REMARK  Name = 
REMARK  28 active torsions:
REMARK  status: ('A' for Active; 'I' for Inactive)
REMARK    1  A    between atoms: C_1  and  C_2
REMARK    2  A    between atoms: C_4  and  O_84
REMARK    3  A    between atoms: C_6  and  O_83
REMARK    4  A    between atoms: C_8  and  O_82
REMARK    5  A    between atoms: C_10  and  O_13
REMARK    6  A    between atoms: O_13  and  C_14
REMARK    7  A    between atoms: C_14  and  C_15
REMARK    8  A    between atoms: C_17  and  O_81
REMARK    9  A    between atoms: C_19  and  O_80
REMARK   10  A    between atoms: C_21  and  O_79
REMARK   11  A    between atoms: C_23  and  O_26
REMARK   12  A    between atoms: O_26  and  C_27
REMARK   13  A    between atoms: C_29  and  O_78
REMARK   14  A    between atoms: C_31  and  O_77
REMARK   15  A    between atoms: C_33  and  C_75
REMARK   16  A    between atoms: C_36  and  O_38
REMARK   17  A    between atoms: O_38  and  C_39
REMARK   18  A    between atoms: C_40  and  C_67
REMARK   19  A    between atoms: C_44  and  O_51
REMARK   20  A    between atoms: C_46  and  O_50
REMARK   21  A    between atoms: O_51  and  C_52
REMARK   22  A    between atoms: C_54  and  O_66
REMARK   23  A    between atoms: C_56  and  O_65
REMARK   24  A    between atoms: C_58  and  O_64
REMARK   25  A    between atoms: C_60  and  C_63
REMARK   26  A    between atoms: C_69  and  O_74
REMARK   27  A    between atoms: C_70  and  O_73
REMARK   28  A    between atoms: C_75  and  O_76
REMARK                            x       y       z     vdW  Elec       q    Type
REMARK                         _______ _______ _______ _____ _____    ______ ____
ROOT
ATOM      1  C   UNL     1       3.882   6.968  -0.217  0.00  0.00    +0.221 C 
ATOM      2  C   UNL     1       5.448   7.825  -1.106  0.00  0.00    +0.340 C 
ATOM      3  O   UNL     1       6.137   7.093  -2.665  0.00  0.00    -0.331 OA
ATOM      4  C   UNL     1       5.533   5.583  -3.407  0.00  0.00    +0.179 C 
ATOM      5  C   UNL     1       3.847   4.828  -2.863  0.00  0.00    +0.177 C 
ATOM      6  C   UNL     1       3.145   5.337  -1.047  0.00  0.00    +0.180 C 
ENDROOT
BRANCH   6   7
ATOM      7  O   UNL     1       1.717   5.176  -0.951  0.00  0.00    -0.386 OA
ATOM      8  H   UNL     1       1.526   4.982  -0.015  0.00  0.00    +0.210 HD
ENDBRANCH   6   7
BRANCH   5   9
ATOM      9  O   UNL     1       3.810   3.413  -3.170  0.00  0.00    -0.386 OA
ATOM     10  H   UNL     1       2.925   3.099  -2.917  0.00  0.00    +0.210 HD
ENDBRANCH   5   9
BRANCH   4  11
ATOM     11  C   UNL     1       6.044   5.371  -4.846  0.00  0.00    +0.190 C 
BRANCH  11  12
ATOM     12  O   UNL     1       7.381   5.868  -5.010  0.00  0.00    -0.392 OA
ATOM     13  H   UNL     1       7.849   5.779  -4.159  0.00  0.00    +0.210 HD
ENDBRANCH  11  12
ENDBRANCH   4  11
BRANCH   2  14
ATOM     14  O   UNL     1       5.026   9.023  -1.641  0.00  0.00    -0.453 OA
BRANCH  14  15
ATOM     15  C   UNL     1       4.129   8.341  -2.427  0.00  0.00    +0.214 A 
ATOM     16  C   UNL     1       3.128   9.326  -2.972  0.00  0.00    +0.238 A 
ATOM     17  O   UNL     1       3.475  10.434  -3.364  0.00  0.00    -0.283 OA
ATOM     18  C   UNL     1       1.724   8.968  -2.793  0.00  0.00    +0.109 A 
ATOM     19  C   UNL     1       1.496   7.623  -2.638  0.00  0.00    +0.147 A 
ATOM     20  C   UNL     1       0.163   7.218  -2.347  0.00  0.00    +0.093 A 
ATOM     21  C   UNL     1      -0.918   8.129  -2.159  0.00  0.00    +0.131 A 
ATOM     22  C   UNL     1      -0.675   9.477  -2.366  0.00  0.00    +0.092 A 
ATOM     23  O   UNL     1       2.521   6.664  -2.716  0.00  0.00    -0.451 OA
ATOM     24  C   UNL     1       0.649   9.890  -2.651  0.00  0.00    +0.135 A 
ATOM     25  C   UNL     1       4.031   6.938  -2.306  0.00  0.00    +0.181 A 
BRANCH  25  26
ATOM     26  C   UNL     1       5.272   5.646  -1.277  0.00  0.00    +0.025 A 
ATOM     27  C   UNL     1       5.241   4.135  -0.978  0.00  0.00    +0.015 A 
ATOM     28  C   UNL     1       6.134   3.217  -0.333  0.00  0.00    +0.050 A 
ATOM     29  C   UNL     1       7.301   3.661   0.186  0.00  0.00    +0.158 A 
ATOM     30  C   UNL     1       7.600   4.978  -0.025  0.00  0.00    +0.159 A 
ATOM     31  C   UNL     1       6.699   5.856  -0.724  0.00  0.00    +0.060 A 
BRANCH  30  32
ATOM     32  O   UNL     1       8.837   5.414   0.386  0.00  0.00    -0.503 OA
ATOM     33  H   UNL     1       8.983   6.304   0.001  0.00  0.00    +0.292 HD
ENDBRANCH  30  32
BRANCH  29  34
ATOM     34  O   UNL     1       8.142   2.800   0.810  0.00  0.00    -0.503 OA
ATOM     35  H   UNL     1       8.901   3.345   1.093  0.00  0.00    +0.292 HD
ENDBRANCH  29  34
ENDBRANCH  25  26
BRANCH  24  36
ATOM     36  O   UNL     1       0.898  11.238  -2.684  0.00  0.00    -0.506 OA
ATOM     37  H   UNL     1       0.240  11.711  -2.149  0.00  0.00    +0.292 HD
ENDBRANCH  24  36
BRANCH  21  38
ATOM     38  O   UNL     1      -2.028   7.622  -1.529  0.00  0.00    -0.461 OA
BRANCH  38  39
ATOM     39  C   UNL     1      -3.401   8.001  -1.794  0.00  0.00    +0.339 C 
ATOM     40  O   UNL     1      -3.846   9.265  -1.260  0.00  0.00    -0.334 OA
ATOM     41  C   UNL     1      -3.894   9.375   0.166  0.00  0.00    +0.150 C 
ATOM     42  C   UNL     1      -4.556  10.710   0.544  0.00  0.00    +0.041 C 
ATOM     43  C   UNL     1      -4.620   8.229   0.895  0.00  0.00    +0.174 C 
ATOM     44  C   UNL     1      -4.181   6.874   0.335  0.00  0.00    +0.180 C 
ATOM     45  C   UNL     1      -4.286   6.860  -1.202  0.00  0.00    +0.214 C 
BRANCH  45  46
ATOM     46  O   UNL     1      -5.650   6.988  -1.642  0.00  0.00    -0.383 OA
ATOM     47  H   UNL     1      -6.230   7.012  -0.858  0.00  0.00    +0.210 HD
ENDBRANCH  45  46
BRANCH  44  48
ATOM     48  O   UNL     1      -5.011   5.845   0.893  0.00  0.00    -0.386 OA
ATOM     49  H   UNL     1      -4.436   5.100   1.144  0.00  0.00    +0.210 HD
ENDBRANCH  44  48
BRANCH  43  50
ATOM     50  O   UNL     1      -4.363   8.308   2.307  0.00  0.00    -0.387 OA
ATOM     51  H   UNL     1      -3.434   8.075   2.468  0.00  0.00    +0.210 HD
ENDBRANCH  43  50
ENDBRANCH  38  39
ENDBRANCH  21  38
ENDBRANCH  14  15
ENDBRANCH   2  14
BRANCH   1  52
ATOM     52  O   UNL     1       3.981   6.910   1.218  0.00  0.00    -0.337 OA
BRANCH  52  55
ATOM     53  C   UNL     1       6.226   9.450   2.417  0.00  0.00    +0.178 C 
ATOM     54  O   UNL     1       5.754   8.209   1.891  0.00  0.00    -0.341 OA
ATOM     55  C   UNL     1       4.348   8.208   1.747  0.00  0.00    +0.282 C 
ATOM     56  C   UNL     1       3.665   8.450   3.110  0.00  0.00    +0.201 C 
ATOM     57  C   UNL     1       4.304   9.595   3.923  0.00  0.00    +0.179 C 
ATOM     58  C   UNL     1       5.828   9.566   3.877  0.00  0.00    +0.177 C 
BRANCH  58  59
ATOM     59  O   UNL     1       6.361  10.769   4.443  0.00  0.00    -0.386 OA
ATOM     60  H   UNL     1       6.919  10.514   5.200  0.00  0.00    +0.210 HD
ENDBRANCH  58  59
BRANCH  57  61
ATOM     61  O   UNL     1       3.880   9.475   5.292  0.00  0.00    -0.386 OA
ATOM     62  H   UNL     1       3.145  10.099   5.414  0.00  0.00    +0.210 HD
ENDBRANCH  57  61
BRANCH  56  63
ATOM     63  O   UNL     1       2.275   8.769   2.908  0.00  0.00    -0.384 OA
ATOM     64  H   UNL     1       1.853   8.668   3.779  0.00  0.00    +0.210 HD
ENDBRANCH  56  63
BRANCH  53  65
ATOM     65  C   UNL     1       7.722   9.441   2.297  0.00  0.00    +0.197 C 
BRANCH  65  66
ATOM     66  O   UNL     1       8.022   9.378   0.903  0.00  0.00    -0.346 OA
BRANCH  66  70
ATOM     67  C   UNL     1      11.897   9.981   2.287  0.00  0.00    +0.041 C 
ATOM     68  C   UNL     1      11.243  10.901   1.259  0.00  0.00    +0.149 C 
ATOM     69  O   UNL     1       9.832  10.723   1.235  0.00  0.00    -0.343 OA
ATOM     70  C   UNL     1       9.422   9.452   0.752  0.00  0.00    +0.282 C 
ATOM     71  C   UNL     1       9.797   9.212  -0.711  0.00  0.00    +0.201 C 
ATOM     72  C   UNL     1      11.284   9.541  -0.919  0.00  0.00    +0.179 C 
ATOM     73  C   UNL     1      11.717  10.829  -0.198  0.00  0.00    +0.174 C 
BRANCH  73  74
ATOM     74  O   UNL     1      11.116  11.940  -0.892  0.00  0.00    -0.387 OA
ATOM     75  H   UNL     1      10.215  12.063  -0.527  0.00  0.00    +0.210 HD
ENDBRANCH  73  74
BRANCH  72  76
ATOM     76  O   UNL     1      12.095   8.425  -0.520  0.00  0.00    -0.386 OA
ATOM     77  H   UNL     1      11.676   7.969   0.230  0.00  0.00    +0.210 HD
ENDBRANCH  72  76
BRANCH  71  78
ATOM     78  O   UNL     1       9.567   7.815  -1.022  0.00  0.00    -0.384 OA
ATOM     79  H   UNL     1      10.281   7.554  -1.640  0.00  0.00    +0.210 HD
ENDBRANCH  71  78
ENDBRANCH  66  70
ENDBRANCH  65  66
ENDBRANCH  53  65
ENDBRANCH  52  55
ENDBRANCH   1  52
TORSDOF 26
