REMARK  Name = 
REMARK  22 active torsions:
REMARK  status: ('A' for Active; 'I' for Inactive)
REMARK    1  A    between atoms: C_2  and  O_67
REMARK    2  A    between atoms: C_4  and  O_66
REMARK    3  A    between atoms: C_6  and  O_65
REMARK    4  A    between atoms: C_8  and  O_11
REMARK    5  A    between atoms: O_11  and  C_12
REMARK    6  A    between atoms: C_12  and  C_13
REMARK    7  A    between atoms: C_15  and  O_64
REMARK    8  A    between atoms: C_17  and  O_63
REMARK    9  A    between atoms: C_19  and  O_62
REMARK   10  A    between atoms: C_21  and  O_24
REMARK   11  A    between atoms: O_24  and  C_25
REMARK   12  A    between atoms: C_26  and  C_54
REMARK   13  A    between atoms: C_30  and  O_37
REMARK   14  A    between atoms: C_32  and  O_36
REMARK   15  A    between atoms: O_37  and  C_38
REMARK   16  A    between atoms: C_40  and  O_53
REMARK   17  A    between atoms: C_42  and  O_52
REMARK   18  A    between atoms: C_44  and  O_51
REMARK   19  A    between atoms: C_46  and  C_49
REMARK   20  A    between atoms: C_49  and  O_50
REMARK   21  A    between atoms: C_56  and  O_61
REMARK   22  A    between atoms: C_57  and  O_60
REMARK                            x       y       z     vdW  Elec       q    Type
REMARK                         _______ _______ _______ _____ _____    ______ ____
ROOT
ATOM      1  C   UNL     1       5.911  -1.600  -2.222  0.00  0.00    +0.214 A 
ATOM      2  C   UNL     1       5.168  -0.400  -2.741  0.00  0.00    +0.238 A 
ATOM      3  O   UNL     1       4.353  -0.476  -3.653  0.00  0.00    -0.283 OA
ATOM      4  C   UNL     1       5.561   0.919  -2.235  0.00  0.00    +0.109 A 
ATOM      5  C   UNL     1       6.730   1.000  -1.489  0.00  0.00    +0.147 A 
ATOM      6  C   UNL     1       7.216   2.254  -1.099  0.00  0.00    +0.093 A 
ATOM      7  C   UNL     1       6.578   3.420  -1.538  0.00  0.00    +0.131 A 
ATOM      8  C   UNL     1       5.374   3.335  -2.234  0.00  0.00    +0.092 A 
ATOM      9  O   UNL     1       7.496  -0.097  -1.175  0.00  0.00    -0.451 OA
ATOM     10  C   UNL     1       4.859   2.085  -2.568  0.00  0.00    +0.135 A 
ATOM     11  C   UNL     1       7.073  -1.367  -1.567  0.00  0.00    +0.181 A 
ENDROOT
BRANCH  11  12
ATOM     12  C   UNL     1       8.054  -2.448  -1.216  0.00  0.00    +0.025 A 
ATOM     13  C   UNL     1       8.869  -2.333  -0.073  0.00  0.00    +0.015 A 
ATOM     14  C   UNL     1       9.824  -3.313   0.247  0.00  0.00    +0.050 A 
ATOM     15  C   UNL     1       9.973  -4.416  -0.574  0.00  0.00    +0.158 A 
ATOM     16  C   UNL     1       9.204  -4.543  -1.722  0.00  0.00    +0.159 A 
ATOM     17  C   UNL     1       8.266  -3.565  -2.055  0.00  0.00    +0.060 A 
BRANCH  16  18
ATOM     18  O   UNL     1       9.405  -5.649  -2.503  0.00  0.00    -0.503 OA
ATOM     19  H   UNL     1       8.731  -5.651  -3.207  0.00  0.00    +0.292 HD
ENDBRANCH  16  18
BRANCH  15  20
ATOM     20  O   UNL     1      10.888  -5.380  -0.254  0.00  0.00    -0.503 OA
ATOM     21  H   UNL     1      10.786  -6.054  -0.955  0.00  0.00    +0.292 HD
ENDBRANCH  15  20
ENDBRANCH  11  12
BRANCH  10  22
ATOM     22  O   UNL     1       3.672   2.025  -3.244  0.00  0.00    -0.506 OA
ATOM     23  H   UNL     1       3.350   2.914  -3.457  0.00  0.00    +0.292 HD
ENDBRANCH  10  22
BRANCH   7  24
ATOM     24  O   UNL     1       7.057   4.692  -1.349  0.00  0.00    -0.461 OA
BRANCH  24  25
ATOM     25  C   UNL     1       8.485   4.812  -1.433  0.00  0.00    +0.339 C 
ATOM     26  O   UNL     1       9.104   4.819  -0.143  0.00  0.00    -0.331 OA
ATOM     27  C   UNL     1       8.864   5.977   0.677  0.00  0.00    +0.179 C 
ATOM     28  C   UNL     1       9.144   7.306  -0.053  0.00  0.00    +0.177 C 
ATOM     29  C   UNL     1       8.512   7.352  -1.453  0.00  0.00    +0.180 C 
ATOM     30  C   UNL     1       8.855   6.077  -2.238  0.00  0.00    +0.214 C 
BRANCH  29  31
ATOM     31  O   UNL     1       7.109   7.597  -1.367  0.00  0.00    -0.386 OA
ATOM     32  H   UNL     1       6.633   6.746  -1.348  0.00  0.00    +0.210 HD
ENDBRANCH  29  31
BRANCH  30  33
ATOM     33  O   UNL     1      10.257   6.065  -2.554  0.00  0.00    -0.383 OA
ATOM     34  H   UNL     1      10.742   6.103  -1.700  0.00  0.00    +0.210 HD
ENDBRANCH  30  33
BRANCH  28  35
ATOM     35  O   UNL     1      10.572   7.434  -0.189  0.00  0.00    -0.386 OA
ATOM     36  H   UNL     1      10.755   8.339  -0.507  0.00  0.00    +0.210 HD
ENDBRANCH  28  35
BRANCH  27  37
ATOM     37  C   UNL     1       7.485   5.950   1.361  0.00  0.00    +0.190 C 
BRANCH  37  38
ATOM     38  O   UNL     1       7.255   4.722   2.049  0.00  0.00    -0.392 OA
ATOM     39  H   UNL     1       8.100   4.422   2.426  0.00  0.00    +0.210 HD
ENDBRANCH  37  38
ENDBRANCH  27  37
ENDBRANCH  24  25
ENDBRANCH   7  24
BRANCH   1  40
ATOM     40  O   UNL     1       5.491  -2.902  -2.488  0.00  0.00    -0.453 OA
BRANCH  40  43
ATOM     41  C   UNL     1       1.911  -2.584  -3.035  0.00  0.00    +0.179 C 
ATOM     42  O   UNL     1       3.162  -2.581  -2.330  0.00  0.00    -0.331 OA
ATOM     43  C   UNL     1       4.231  -3.069  -3.144  0.00  0.00    +0.340 C 
ATOM     44  C   UNL     1       4.014  -4.560  -3.475  0.00  0.00    +0.214 C 
ATOM     45  C   UNL     1       2.652  -4.683  -4.184  0.00  0.00    +0.180 C 
ATOM     46  C   UNL     1       1.536  -4.039  -3.347  0.00  0.00    +0.177 C 
BRANCH  46  47
ATOM     47  O   UNL     1       0.309  -4.134  -4.082  0.00  0.00    -0.386 OA
ATOM     48  H   UNL     1      -0.405  -4.111  -3.417  0.00  0.00    +0.210 HD
ENDBRANCH  46  47
BRANCH  45  49
ATOM     49  O   UNL     1       2.320  -6.052  -4.442  0.00  0.00    -0.386 OA
ATOM     50  H   UNL     1       1.379  -6.040  -4.709  0.00  0.00    +0.210 HD
ENDBRANCH  45  49
BRANCH  44  51
ATOM     51  O   UNL     1       5.083  -5.055  -4.308  0.00  0.00    -0.383 OA
ATOM     52  H   UNL     1       4.949  -4.704  -5.204  0.00  0.00    +0.210 HD
ENDBRANCH  44  51
BRANCH  41  53
ATOM     53  C   UNL     1       0.844  -1.875  -2.188  0.00  0.00    +0.197 C 
BRANCH  53  54
ATOM     54  O   UNL     1       0.611  -2.622  -0.994  0.00  0.00    -0.346 OA
BRANCH  54  57
ATOM     55  C   UNL     1      -1.070  -0.174   1.102  0.00  0.00    +0.197 C 
ATOM     56  O   UNL     1      -0.101  -0.750   0.223  0.00  0.00    -0.346 OA
ATOM     57  C   UNL     1      -0.433  -2.082  -0.178  0.00  0.00    +0.281 C 
ATOM     58  C   UNL     1      -0.589  -3.026   1.036  0.00  0.00    +0.201 C 
ATOM     59  C   UNL     1      -1.479  -2.402   2.114  0.00  0.00    +0.178 C 
ATOM     60  C   UNL     1      -1.079  -0.954   2.413  0.00  0.00    +0.171 C 
BRANCH  60  61
ATOM     61  O   UNL     1       0.214  -0.927   3.024  0.00  0.00    -0.387 OA
ATOM     62  H   UNL     1       0.879  -0.931   2.304  0.00  0.00    +0.210 HD
ENDBRANCH  60  61
BRANCH  59  63
ATOM     63  O   UNL     1      -1.448  -3.235   3.282  0.00  0.00    -0.386 OA
ATOM     64  H   UNL     1      -1.280  -2.658   4.052  0.00  0.00    +0.210 HD
ENDBRANCH  59  63
BRANCH  58  65
ATOM     65  O   UNL     1      -1.186  -4.275   0.635  0.00  0.00    -0.384 OA
ATOM     66  H   UNL     1      -1.403  -4.729   1.474  0.00  0.00    +0.210 HD
ENDBRANCH  58  65
ENDBRANCH  54  57
ENDBRANCH  53  54
ENDBRANCH  41  53
ENDBRANCH  40  43
ENDBRANCH   1  40
TORSDOF 22
