REMARK  Name = 
REMARK  32 active torsions:
REMARK  status: ('A' for Active; 'I' for Inactive)
REMARK    1  A    between atoms: C_1  and  O_2
REMARK    2  A    between atoms: O_2  and  C_3
REMARK    3  A    between atoms: C_5  and  C_12
REMARK    4  A    between atoms: C_7  and  O_10
REMARK    5  A    between atoms: C_8  and  O_9
REMARK    6  A    between atoms: O_10  and  C_11
REMARK    7  A    between atoms: C_13  and  C_14
REMARK    8  A    between atoms: C_14  and  O_16
REMARK    9  A    between atoms: O_16  and  C_17
REMARK   10  A    between atoms: C_17  and  C_18
REMARK   11  A    between atoms: C_20  and  O_85
REMARK   12  A    between atoms: C_22  and  O_84
REMARK   13  A    between atoms: C_24  and  O_83
REMARK   14  A    between atoms: C_26  and  O_29
REMARK   15  A    between atoms: O_29  and  C_30
REMARK   16  A    between atoms: C_32  and  O_82
REMARK   17  A    between atoms: C_34  and  O_81
REMARK   18  A    between atoms: C_36  and  C_79
REMARK   19  A    between atoms: C_39  and  O_41
REMARK   20  A    between atoms: O_41  and  C_42
REMARK   21  A    between atoms: C_43  and  C_71
REMARK   22  A    between atoms: C_47  and  O_54
REMARK   23  A    between atoms: C_49  and  O_53
REMARK   24  A    between atoms: O_54  and  C_55
REMARK   25  A    between atoms: C_57  and  O_70
REMARK   26  A    between atoms: C_59  and  O_69
REMARK   27  A    between atoms: C_61  and  O_68
REMARK   28  A    between atoms: C_63  and  C_66
REMARK   29  A    between atoms: C_66  and  O_67
REMARK   30  A    between atoms: C_73  and  O_78
REMARK   31  A    between atoms: C_74  and  O_77
REMARK   32  A    between atoms: C_79  and  O_80
REMARK                            x       y       z     vdW  Elec       q    Type
REMARK                         _______ _______ _______ _____ _____    ______ ____
ROOT
ATOM      1  C   UNL     1      11.413   1.475   7.112  0.00  0.00    +0.221 C 
ATOM      2  C   UNL     1      12.213   1.322   8.462  0.00  0.00    +0.340 C 
ATOM      3  O   UNL     1      11.573   2.178   9.437  0.00  0.00    -0.331 OA
ATOM      4  C   UNL     1      11.671   3.582   9.085  0.00  0.00    +0.179 C 
ATOM      5  C   UNL     1      11.038   3.901   7.722  0.00  0.00    +0.177 C 
ATOM      6  C   UNL     1      11.596   2.940   6.692  0.00  0.00    +0.180 C 
ENDROOT
BRANCH   5   7
ATOM      7  O   UNL     1      11.382   5.229   7.294  0.00  0.00    -0.386 OA
ATOM      8  H   UNL     1      11.170   5.245   6.336  0.00  0.00    +0.210 HD
ENDBRANCH   5   7
BRANCH   6   9
ATOM      9  O   UNL     1      11.001   3.215   5.411  0.00  0.00    -0.386 OA
ATOM     10  H   UNL     1      11.275   2.470   4.835  0.00  0.00    +0.210 HD
ENDBRANCH   6   9
BRANCH   2  11
ATOM     11  O   UNL     1      12.302  -0.048   8.895  0.00  0.00    -0.453 OA
BRANCH  11  12
ATOM     12  C   UNL     1      13.135  -0.439   9.938  0.00  0.00    +0.214 A 
ATOM     13  C   UNL     1      12.463  -1.359  10.984  0.00  0.00    +0.238 A 
ATOM     14  O   UNL     1      11.257  -1.574  10.913  0.00  0.00    -0.283 OA
ATOM     15  C   UNL     1      13.304  -1.983  12.054  0.00  0.00    +0.109 A 
ATOM     16  C   UNL     1      14.635  -1.612  12.101  0.00  0.00    +0.147 A 
ATOM     17  C   UNL     1      15.530  -2.088  13.081  0.00  0.00    +0.093 A 
ATOM     18  C   UNL     1      15.107  -3.000  14.043  0.00  0.00    +0.131 A 
ATOM     19  C   UNL     1      13.769  -3.402  14.008  0.00  0.00    +0.092 A 
ATOM     20  O   UNL     1      15.169  -0.760  11.205  0.00  0.00    -0.451 OA
ATOM     21  C   UNL     1      12.873  -2.894  13.029  0.00  0.00    +0.135 A 
ATOM     22  C   UNL     1      14.484  -0.264  10.097  0.00  0.00    +0.181 A 
BRANCH  22  23
ATOM     23  C   UNL     1      15.541   0.407   9.255  0.00  0.00    +0.025 A 
ATOM     24  C   UNL     1      16.747   0.764   9.937  0.00  0.00    +0.015 A 
ATOM     25  C   UNL     1      17.887   1.239   9.297  0.00  0.00    +0.050 A 
ATOM     26  C   UNL     1      17.864   1.339   7.928  0.00  0.00    +0.158 A 
ATOM     27  C   UNL     1      16.715   1.002   7.213  0.00  0.00    +0.159 A 
ATOM     28  C   UNL     1      15.549   0.542   7.859  0.00  0.00    +0.060 A 
BRANCH  26  29
ATOM     29  O   UNL     1      19.017   1.709   7.299  0.00  0.00    -0.503 OA
ATOM     30  H   UNL     1      18.862   1.519   6.356  0.00  0.00    +0.292 HD
ENDBRANCH  26  29
BRANCH  27  31
ATOM     31  O   UNL     1      16.802   1.092   5.848  0.00  0.00    -0.503 OA
ATOM     32  H   UNL     1      15.948   0.840   5.462  0.00  0.00    +0.292 HD
ENDBRANCH  27  31
ENDBRANCH  22  23
BRANCH  21  33
ATOM     33  O   UNL     1      11.585  -3.329  13.076  0.00  0.00    -0.506 OA
ATOM     34  H   UNL     1      11.463  -3.929  13.833  0.00  0.00    +0.292 HD
ENDBRANCH  21  33
BRANCH  18  35
ATOM     35  O   UNL     1      16.012  -3.382  15.006  0.00  0.00    -0.461 OA
BRANCH  35  36
ATOM     36  C   UNL     1      15.941  -4.770  15.425  0.00  0.00    +0.339 C 
ATOM     37  O   UNL     1      14.845  -4.985  16.313  0.00  0.00    -0.331 OA
ATOM     38  C   UNL     1      14.988  -5.369  17.684  0.00  0.00    +0.179 C 
ATOM     39  C   UNL     1      16.379  -5.836  18.132  0.00  0.00    +0.177 C 
ATOM     40  C   UNL     1      17.473  -5.020  17.443  0.00  0.00    +0.180 C 
ATOM     41  C   UNL     1      17.343  -5.194  15.926  0.00  0.00    +0.214 C 
BRANCH  40  42
ATOM     42  O   UNL     1      17.434  -3.657  17.862  0.00  0.00    -0.386 OA
ATOM     43  H   UNL     1      16.907  -3.136  17.226  0.00  0.00    +0.210 HD
ENDBRANCH  40  42
BRANCH  41  44
ATOM     44  O   UNL     1      17.606  -6.563  15.560  0.00  0.00    -0.383 OA
ATOM     45  H   UNL     1      16.900  -7.111  15.969  0.00  0.00    +0.210 HD
ENDBRANCH  41  44
BRANCH  39  46
ATOM     46  O   UNL     1      16.519  -7.226  17.775  0.00  0.00    -0.386 OA
ATOM     47  H   UNL     1      17.421  -7.504  18.030  0.00  0.00    +0.210 HD
ENDBRANCH  39  46
BRANCH  38  48
ATOM     48  C   UNL     1      14.399  -4.268  18.587  0.00  0.00    +0.190 C 
BRANCH  48  49
ATOM     49  O   UNL     1      14.251  -4.716  19.931  0.00  0.00    -0.392 OA
ATOM     50  H   UNL     1      15.032  -4.428  20.435  0.00  0.00    +0.210 HD
ENDBRANCH  48  49
ENDBRANCH  38  48
ENDBRANCH  35  36
ENDBRANCH  18  35
ENDBRANCH  11  12
ENDBRANCH   2  11
BRANCH   1  51
ATOM     51  O   UNL     1      11.919   0.809   5.950  0.00  0.00    -0.337 OA
BRANCH  51  54
ATOM     52  C   UNL     1      12.476  -2.667   5.999  0.00  0.00    +0.190 C 
ATOM     53  O   UNL     1      12.360  -1.314   6.400  0.00  0.00    -0.339 OA
ATOM     54  C   UNL     1      11.437  -0.510   5.710  0.00  0.00    +0.282 C 
ATOM     55  C   UNL     1      11.458  -0.670   4.165  0.00  0.00    +0.201 C 
ATOM     56  C   UNL     1      11.675  -2.117   3.719  0.00  0.00    +0.179 C 
ATOM     57  C   UNL     1      12.831  -2.737   4.508  0.00  0.00    +0.178 C 
BRANCH  57  58
ATOM     58  O   UNL     1      13.034  -4.065   4.025  0.00  0.00    -0.386 OA
ATOM     59  H   UNL     1      13.827  -4.414   4.477  0.00  0.00    +0.210 HD
ENDBRANCH  57  58
BRANCH  55  60
ATOM     60  O   UNL     1      10.253  -0.109   3.609  0.00  0.00    -0.384 OA
ATOM     61  H   UNL     1       9.785  -0.806   3.116  0.00  0.00    +0.210 HD
ENDBRANCH  55  60
BRANCH  56  62
ATOM     62  O   UNL     1      11.986  -2.148   2.316  0.00  0.00    -0.386 OA
ATOM     63  H   UNL     1      12.352  -3.041   2.147  0.00  0.00    +0.210 HD
ENDBRANCH  56  62
BRANCH  52  64
ATOM     64  C   UNL     1      13.583  -3.210   6.908  0.00  0.00    +0.266 C 
BRANCH  64  65
ATOM     65  O   UNL     1      13.958  -4.548   6.605  0.00  0.00    -0.459 OA
BRANCH  65  66
ATOM     66  C   UNL     1      13.119  -5.487   7.083  0.00  0.00    +0.332 C 
ATOM     67  O   UNL     1      12.071  -5.296   7.696  0.00  0.00    -0.246 OA
BRANCH  66  69
ATOM     68  C   UNL     1      14.796  -7.088   6.201  0.00  0.00    +0.015 C 
ATOM     69  C   UNL     1      13.567  -6.830   6.676  0.00  0.00    +0.092 C 
BRANCH  68  74
ATOM     70  C   UNL     1      14.667 -10.472   4.550  0.00  0.00    +0.166 A 
ATOM     71  C   UNL     1      16.017 -10.875   4.624  0.00  0.00    +0.201 A 
ATOM     72  C   UNL     1      16.967 -10.034   5.223  0.00  0.00    +0.166 A 
ATOM     73  C   UNL     1      16.532  -8.802   5.751  0.00  0.00    +0.057 A 
ATOM     74  C   UNL     1      15.197  -8.397   5.687  0.00  0.00    -0.018 A 
ATOM     75  C   UNL     1      14.280  -9.227   5.048  0.00  0.00    +0.057 A 
BRANCH  70  77
ATOM     76  C   UNL     1      12.420 -11.201   4.341  0.00  0.00    +0.277 C 
ATOM     77  O   UNL     1      13.779 -11.323   3.930  0.00  0.00    -0.491 OA
ENDBRANCH  70  77
BRANCH  72  78
ATOM     78  O   UNL     1      18.311 -10.186   5.412  0.00  0.00    -0.491 OA
ATOM     79  C   UNL     1      19.003 -11.355   5.027  0.00  0.00    +0.277 C 
ENDBRANCH  72  78
BRANCH  71  80
ATOM     80  O   UNL     1      16.280 -12.110   4.098  0.00  0.00    -0.501 OA
ATOM     81  H   UNL     1      17.221 -12.220   3.937  0.00  0.00    +0.292 HD
ENDBRANCH  71  80
ENDBRANCH  68  74
ENDBRANCH  66  69
ENDBRANCH  65  66
ENDBRANCH  64  65
ENDBRANCH  52  64
ENDBRANCH  51  54
ENDBRANCH   1  51
BRANCH   4  82
ATOM     82  C   UNL     1      11.073   4.470  10.188  0.00  0.00    +0.190 C 
BRANCH  82  83
ATOM     83  O   UNL     1       9.653   4.366  10.254  0.00  0.00    -0.392 OA
ATOM     84  H   UNL     1       9.375   4.859  11.046  0.00  0.00    +0.210 HD
ENDBRANCH  82  83
ENDBRANCH   4  82
TORSDOF 30
