REMARK  Name = 
REMARK  31 active torsions:
REMARK  status: ('A' for Active; 'I' for Inactive)
REMARK    1  A    between atoms: C_1  and  O_2
REMARK    2  A    between atoms: O_2  and  C_3
REMARK    3  A    between atoms: C_5  and  C_11
REMARK    4  A    between atoms: C_7  and  O_10
REMARK    5  A    between atoms: C_8  and  O_9
REMARK    6  A    between atoms: C_12  and  C_13
REMARK    7  A    between atoms: C_13  and  O_15
REMARK    8  A    between atoms: O_15  and  C_16
REMARK    9  A    between atoms: C_16  and  C_17
REMARK   10  A    between atoms: C_19  and  O_84
REMARK   11  A    between atoms: C_21  and  O_83
REMARK   12  A    between atoms: C_23  and  O_82
REMARK   13  A    between atoms: C_25  and  O_28
REMARK   14  A    between atoms: O_28  and  C_29
REMARK   15  A    between atoms: C_31  and  O_81
REMARK   16  A    between atoms: C_33  and  O_80
REMARK   17  A    between atoms: C_35  and  C_78
REMARK   18  A    between atoms: C_38  and  O_40
REMARK   19  A    between atoms: O_40  and  C_41
REMARK   20  A    between atoms: C_42  and  C_70
REMARK   21  A    between atoms: C_46  and  O_53
REMARK   22  A    between atoms: C_48  and  O_52
REMARK   23  A    between atoms: O_53  and  C_54
REMARK   24  A    between atoms: C_56  and  O_69
REMARK   25  A    between atoms: C_58  and  O_68
REMARK   26  A    between atoms: C_60  and  O_67
REMARK   27  A    between atoms: C_62  and  C_65
REMARK   28  A    between atoms: C_65  and  O_66
REMARK   29  A    between atoms: C_72  and  O_77
REMARK   30  A    between atoms: C_73  and  O_76
REMARK   31  A    between atoms: C_78  and  O_79
REMARK                            x       y       z     vdW  Elec       q    Type
REMARK                         _______ _______ _______ _____ _____    ______ ____
ROOT
ATOM      1  C   UNL     1       6.687  -5.653  -8.298  0.00  0.00    +0.221 C 
ATOM      2  C   UNL     1       6.214  -5.362  -9.763  0.00  0.00    +0.340 C 
ATOM      3  O   UNL     1       7.112  -4.380 -10.333  0.00  0.00    -0.331 OA
ATOM      4  C   UNL     1       6.817  -3.074  -9.787  0.00  0.00    +0.179 C 
ATOM      5  C   UNL     1       6.993  -3.069  -8.258  0.00  0.00    +0.177 C 
ATOM      6  C   UNL     1       6.352  -4.302  -7.572  0.00  0.00    +0.180 C 
ENDROOT
BRANCH   5   7
ATOM      7  O   UNL     1       6.393  -1.878  -7.727  0.00  0.00    -0.386 OA
ATOM      8  H   UNL     1       6.496  -1.940  -6.757  0.00  0.00    +0.210 HD
ENDBRANCH   5   7
BRANCH   6   9
ATOM      9  O   UNL     1       6.769  -4.289  -6.199  0.00  0.00    -0.386 OA
ATOM     10  H   UNL     1       6.117  -4.830  -5.715  0.00  0.00    +0.210 HD
ENDBRANCH   6   9
BRANCH   2  11
ATOM     11  O   UNL     1       6.130  -6.511 -10.625  0.00  0.00    -0.453 OA
BRANCH  11  12
ATOM     12  C   UNL     1       5.058  -6.493 -11.532  0.00  0.00    +0.214 A 
ATOM     13  C   UNL     1       3.751  -5.827 -11.162  0.00  0.00    +0.238 A 
ATOM     14  O   UNL     1       3.386  -5.740  -9.996  0.00  0.00    -0.283 OA
ATOM     15  C   UNL     1       2.916  -5.338 -12.268  0.00  0.00    +0.109 A 
ATOM     16  C   UNL     1       3.057  -6.000 -13.471  0.00  0.00    +0.147 A 
ATOM     17  C   UNL     1       2.235  -5.664 -14.560  0.00  0.00    +0.093 A 
ATOM     18  C   UNL     1       1.295  -4.637 -14.466  0.00  0.00    +0.131 A 
ATOM     19  C   UNL     1       1.159  -3.962 -13.238  0.00  0.00    +0.092 A 
ATOM     20  O   UNL     1       3.960  -7.027 -13.620  0.00  0.00    -0.451 OA
ATOM     21  C   UNL     1       1.957  -4.315 -12.157  0.00  0.00    +0.135 A 
ATOM     22  C   UNL     1       5.047  -7.146 -12.725  0.00  0.00    +0.181 A 
BRANCH  22  23
ATOM     23  C   UNL     1       6.127  -8.037 -13.302  0.00  0.00    +0.025 A 
ATOM     24  C   UNL     1       5.861  -8.723 -14.517  0.00  0.00    +0.015 A 
ATOM     25  C   UNL     1       6.858  -9.389 -15.243  0.00  0.00    +0.050 A 
ATOM     26  C   UNL     1       8.144  -9.410 -14.750  0.00  0.00    +0.158 A 
ATOM     27  C   UNL     1       8.406  -8.892 -13.490  0.00  0.00    +0.159 A 
ATOM     28  C   UNL     1       7.418  -8.209 -12.765  0.00  0.00    +0.060 A 
BRANCH  26  29
ATOM     29  O   UNL     1       9.146  -9.928 -15.516  0.00  0.00    -0.503 OA
ATOM     30  H   UNL     1       9.973  -9.633 -15.084  0.00  0.00    +0.292 HD
ENDBRANCH  26  29
BRANCH  27  31
ATOM     31  O   UNL     1       9.670  -9.059 -12.993  0.00  0.00    -0.503 OA
ATOM     32  H   UNL     1       9.574  -9.450 -12.103  0.00  0.00    +0.292 HD
ENDBRANCH  27  31
ENDBRANCH  22  23
BRANCH  21  33
ATOM     33  O   UNL     1       1.826  -3.620 -10.980  0.00  0.00    -0.506 OA
ATOM     34  H   UNL     1       0.959  -3.169 -10.964  0.00  0.00    +0.292 HD
ENDBRANCH  21  33
BRANCH  18  35
ATOM     35  O   UNL     1       0.542  -4.360 -15.583  0.00  0.00    -0.461 OA
BRANCH  35  36
ATOM     36  C   UNL     1      -0.042  -3.045 -15.708  0.00  0.00    +0.339 C 
ATOM     37  O   UNL     1      -1.272  -2.869 -14.989  0.00  0.00    -0.331 OA
ATOM     38  C   UNL     1      -2.422  -3.588 -15.475  0.00  0.00    +0.179 C 
ATOM     39  C   UNL     1      -2.663  -3.436 -16.991  0.00  0.00    +0.177 C 
ATOM     40  C   UNL     1      -1.371  -3.581 -17.804  0.00  0.00    +0.180 C 
ATOM     41  C   UNL     1      -0.256  -2.709 -17.201  0.00  0.00    +0.214 C 
BRANCH  40  42
ATOM     42  O   UNL     1      -1.009  -4.956 -17.927  0.00  0.00    -0.386 OA
ATOM     43  H   UNL     1      -0.409  -5.200 -17.197  0.00  0.00    +0.210 HD
ENDBRANCH  40  42
BRANCH  41  44
ATOM     44  O   UNL     1      -0.593  -1.317 -17.348  0.00  0.00    -0.383 OA
ATOM     45  H   UNL     1      -1.462  -1.182 -16.907  0.00  0.00    +0.210 HD
ENDBRANCH  41  44
BRANCH  39  46
ATOM     46  O   UNL     1      -3.202  -2.118 -17.217  0.00  0.00    -0.386 OA
ATOM     47  H   UNL     1      -3.418  -2.050 -18.168  0.00  0.00    +0.210 HD
ENDBRANCH  39  46
BRANCH  38  48
ATOM     48  C   UNL     1      -2.413  -5.048 -14.999  0.00  0.00    +0.190 C 
BRANCH  48  49
ATOM     49  O   UNL     1      -2.236  -5.124 -13.583  0.00  0.00    -0.392 OA
ATOM     50  H   UNL     1      -2.668  -4.349 -13.183  0.00  0.00    +0.210 HD
ENDBRANCH  48  49
ENDBRANCH  38  48
ENDBRANCH  35  36
ENDBRANCH  18  35
ENDBRANCH  11  12
ENDBRANCH   2  11
BRANCH   1  51
ATOM     51  O   UNL     1       6.077  -6.746  -7.559  0.00  0.00    -0.337 OA
BRANCH  51  54
ATOM     52  C   UNL     1       4.820 -10.148  -7.979  0.00  0.00    +0.190 C 
ATOM     53  O   UNL     1       5.153  -8.905  -7.320  0.00  0.00    -0.339 OA
ATOM     54  C   UNL     1       6.078  -8.087  -8.096  0.00  0.00    +0.282 C 
ATOM     55  C   UNL     1       7.440  -8.855  -8.094  0.00  0.00    +0.201 C 
ATOM     56  C   UNL     1       7.200 -10.186  -8.844  0.00  0.00    +0.179 C 
ATOM     57  C   UNL     1       6.073 -11.013  -8.215  0.00  0.00    +0.178 C 
BRANCH  57  58
ATOM     58  O   UNL     1       5.804 -12.112  -9.104  0.00  0.00    -0.386 OA
ATOM     59  H   UNL     1       5.088 -12.642  -8.705  0.00  0.00    +0.210 HD
ENDBRANCH  57  58
BRANCH  55  60
ATOM     60  O   UNL     1       8.544  -8.190  -8.715  0.00  0.00    -0.384 OA
ATOM     61  H   UNL     1       8.236  -7.399  -9.176  0.00  0.00    +0.210 HD
ENDBRANCH  55  60
BRANCH  56  62
ATOM     62  O   UNL     1       8.385 -10.996  -8.904  0.00  0.00    -0.386 OA
ATOM     63  H   UNL     1       8.130 -11.786  -9.420  0.00  0.00    +0.210 HD
ENDBRANCH  56  62
BRANCH  52  64
ATOM     64  C   UNL     1       3.784 -10.939  -7.143  0.00  0.00    +0.266 C 
BRANCH  64  65
ATOM     65  O   UNL     1       3.307 -12.138  -7.809  0.00  0.00    -0.459 OA
BRANCH  65  66
ATOM     66  C   UNL     1       2.283 -11.965  -8.693  0.00  0.00    +0.332 C 
ATOM     67  O   UNL     1       1.829 -10.893  -9.054  0.00  0.00    -0.246 OA
BRANCH  66  69
ATOM     68  C   UNL     1       0.765 -13.414 -10.003  0.00  0.00    +0.015 C 
ATOM     69  C   UNL     1       1.778 -13.296  -9.123  0.00  0.00    +0.092 C 
BRANCH  68  74
ATOM     70  C   UNL     1      -1.070 -16.038 -12.080  0.00  0.00    +0.166 A 
ATOM     71  C   UNL     1      -1.203 -17.063 -11.146  0.00  0.00    +0.201 A 
ATOM     72  C   UNL     1      -0.673 -16.910  -9.864  0.00  0.00    +0.163 A 
ATOM     73  C   UNL     1      -0.009 -15.747  -9.487  0.00  0.00    +0.057 A 
ATOM     74  C   UNL     1       0.138 -14.696 -10.401  0.00  0.00    -0.018 A 
ATOM     75  C   UNL     1      -0.419 -14.850 -11.687  0.00  0.00    +0.057 A 
BRANCH  70  77
ATOM     76  C   UNL     1      -1.667 -17.288 -14.014  0.00  0.00    +0.277 C 
ATOM     77  O   UNL     1      -1.565 -16.026 -13.359  0.00  0.00    -0.491 OA
ENDBRANCH  70  77
BRANCH  72  78
ATOM     78  O   UNL     1      -0.858 -17.948  -8.986  0.00  0.00    -0.503 OA
ATOM     79  H   UNL     1      -0.455 -17.706  -8.134  0.00  0.00    +0.292 HD
ENDBRANCH  72  78
BRANCH  71  80
ATOM     80  O   UNL     1      -1.879 -18.225 -11.407  0.00  0.00    -0.501 OA
ATOM     81  H   UNL     1      -1.869 -18.717 -10.562  0.00  0.00    +0.292 HD
ENDBRANCH  71  80
ENDBRANCH  68  74
ENDBRANCH  66  69
ENDBRANCH  65  66
ENDBRANCH  64  65
ENDBRANCH  52  64
ENDBRANCH  51  54
ENDBRANCH   1  51
BRANCH   4  82
ATOM     82  C   UNL     1       7.703  -2.013 -10.465  0.00  0.00    +0.190 C 
BRANCH  82  83
ATOM     83  O   UNL     1       9.087  -2.241 -10.206  0.00  0.00    -0.392 OA
ATOM     84  H   UNL     1       9.274  -3.152 -10.497  0.00  0.00    +0.210 HD
ENDBRANCH  82  83
ENDBRANCH   4  82
TORSDOF 30
