REMARK  Name = 
REMARK  30 active torsions:
REMARK  status: ('A' for Active; 'I' for Inactive)
REMARK    1  A    between atoms: C_1  and  O_2
REMARK    2  A    between atoms: O_2  and  C_3
REMARK    3  A    between atoms: C_4  and  O_83
REMARK    4  A    between atoms: C_7  and  C_9
REMARK    5  A    between atoms: C_10  and  C_11
REMARK    6  A    between atoms: C_11  and  O_13
REMARK    7  A    between atoms: O_13  and  C_14
REMARK    8  A    between atoms: C_14  and  C_15
REMARK    9  A    between atoms: C_17  and  O_82
REMARK   10  A    between atoms: C_19  and  O_81
REMARK   11  A    between atoms: C_21  and  O_80
REMARK   12  A    between atoms: C_23  and  O_26
REMARK   13  A    between atoms: O_26  and  C_27
REMARK   14  A    between atoms: C_29  and  O_79
REMARK   15  A    between atoms: C_31  and  O_78
REMARK   16  A    between atoms: C_33  and  C_76
REMARK   17  A    between atoms: C_36  and  O_38
REMARK   18  A    between atoms: O_38  and  C_39
REMARK   19  A    between atoms: C_40  and  C_68
REMARK   20  A    between atoms: C_44  and  O_51
REMARK   21  A    between atoms: C_46  and  O_50
REMARK   22  A    between atoms: O_51  and  C_52
REMARK   23  A    between atoms: C_54  and  O_67
REMARK   24  A    between atoms: C_56  and  O_66
REMARK   25  A    between atoms: C_58  and  O_65
REMARK   26  A    between atoms: C_60  and  C_63
REMARK   27  A    between atoms: C_63  and  O_64
REMARK   28  A    between atoms: C_70  and  O_75
REMARK   29  A    between atoms: C_71  and  O_74
REMARK   30  A    between atoms: C_76  and  O_77
REMARK                            x       y       z     vdW  Elec       q    Type
REMARK                         _______ _______ _______ _____ _____    ______ ____
ROOT
ATOM      1  C   UNL     1       7.658  -8.312  -8.275  0.00  0.00    +0.221 C 
ATOM      2  C   UNL     1       8.293  -8.418  -9.720  0.00  0.00    +0.340 C 
ATOM      3  O   UNL     1       7.841  -9.659 -10.351  0.00  0.00    -0.331 OA
ATOM      4  C   UNL     1       8.503 -10.773  -9.670  0.00  0.00    +0.179 C 
ATOM      5  C   UNL     1       8.000 -10.852  -8.218  0.00  0.00    +0.177 C 
ATOM      6  C   UNL     1       8.261  -9.518  -7.493  0.00  0.00    +0.180 C 
ENDROOT
BRANCH   6   7
ATOM      7  O   UNL     1       7.730  -9.636  -6.161  0.00  0.00    -0.386 OA
ATOM      8  H   UNL     1       8.033  -8.829  -5.701  0.00  0.00    +0.210 HD
ENDBRANCH   6   7
BRANCH   5   9
ATOM      9  O   UNL     1       8.649 -11.915  -7.499  0.00  0.00    -0.386 OA
ATOM     10  H   UNL     1       8.470 -11.720  -6.554  0.00  0.00    +0.210 HD
ENDBRANCH   5   9
BRANCH   4  11
ATOM     11  C   UNL     1       8.350 -12.107 -10.420  0.00  0.00    +0.190 C 
BRANCH  11  12
ATOM     12  O   UNL     1       9.118 -13.154  -9.821  0.00  0.00    -0.392 OA
ATOM     13  H   UNL     1       9.022 -13.064  -8.846  0.00  0.00    +0.210 HD
ENDBRANCH  11  12
ENDBRANCH   4  11
BRANCH   2  14
ATOM     14  O   UNL     1       8.136  -7.212 -10.519  0.00  0.00    -0.453 OA
BRANCH  14  15
ATOM     15  C   UNL     1       9.258  -6.342 -10.434  0.00  0.00    +0.214 A 
ATOM     16  C   UNL     1      10.303  -6.536  -9.326  0.00  0.00    +0.238 A 
ATOM     17  O   UNL     1      10.291  -7.466  -8.526  0.00  0.00    -0.283 OA
ATOM     18  C   UNL     1      11.369  -5.579  -9.149  0.00  0.00    +0.109 A 
ATOM     19  C   UNL     1      11.514  -4.632 -10.137  0.00  0.00    +0.147 A 
ATOM     20  C   UNL     1      12.598  -3.756 -10.084  0.00  0.00    +0.093 A 
ATOM     21  C   UNL     1      13.486  -3.793  -9.006  0.00  0.00    +0.131 A 
ATOM     22  C   UNL     1      13.314  -4.736  -7.991  0.00  0.00    +0.092 A 
ATOM     23  O   UNL     1      10.625  -4.498 -11.162  0.00  0.00    -0.451 OA
ATOM     24  C   UNL     1      12.254  -5.624  -8.059  0.00  0.00    +0.135 A 
ATOM     25  C   UNL     1       9.414  -5.216 -11.186  0.00  0.00    +0.181 A 
BRANCH  25  26
ATOM     26  C   UNL     1       8.423  -4.492 -12.092  0.00  0.00    +0.025 A 
ATOM     27  C   UNL     1       8.713  -3.126 -12.383  0.00  0.00    +0.015 A 
ATOM     28  C   UNL     1       7.851  -2.280 -13.092  0.00  0.00    +0.050 A 
ATOM     29  C   UNL     1       6.672  -2.787 -13.581  0.00  0.00    +0.158 A 
ATOM     30  C   UNL     1       6.375  -4.134 -13.388  0.00  0.00    +0.159 A 
ATOM     31  C   UNL     1       7.221  -4.986 -12.637  0.00  0.00    +0.060 A 
BRANCH  30  32
ATOM     32  O   UNL     1       5.228  -4.595 -13.980  0.00  0.00    -0.503 OA
ATOM     33  H   UNL     1       5.484  -5.364 -14.521  0.00  0.00    +0.292 HD
ENDBRANCH  30  32
BRANCH  29  34
ATOM     34  O   UNL     1       5.849  -1.951 -14.278  0.00  0.00    -0.503 OA
ATOM     35  H   UNL     1       5.104  -2.497 -14.592  0.00  0.00    +0.292 HD
ENDBRANCH  29  34
ENDBRANCH  25  26
BRANCH  24  36
ATOM     36  O   UNL     1      12.095  -6.518  -7.037  0.00  0.00    -0.506 OA
ATOM     37  H   UNL     1      12.745  -6.372  -6.333  0.00  0.00    +0.292 HD
ENDBRANCH  24  36
BRANCH  21  38
ATOM     38  O   UNL     1      14.533  -2.951  -8.799  0.00  0.00    -0.461 OA
BRANCH  38  39
ATOM     39  C   UNL     1      14.441  -1.641  -9.365  0.00  0.00    +0.339 C 
ATOM     40  O   UNL     1      15.677  -0.930  -9.171  0.00  0.00    -0.331 OA
ATOM     41  C   UNL     1      15.953  -0.389  -7.869  0.00  0.00    +0.179 C 
ATOM     42  C   UNL     1      14.759   0.337  -7.213  0.00  0.00    +0.177 C 
ATOM     43  C   UNL     1      13.425  -0.399  -7.394  0.00  0.00    +0.180 C 
ATOM     44  C   UNL     1      13.243  -0.806  -8.861  0.00  0.00    +0.214 C 
BRANCH  44  45
ATOM     45  O   UNL     1      13.106   0.365  -9.689  0.00  0.00    -0.383 OA
ATOM     46  H   UNL     1      13.907   0.912  -9.538  0.00  0.00    +0.210 HD
ENDBRANCH  44  45
BRANCH  43  47
ATOM     47  O   UNL     1      13.268  -1.494  -6.494  0.00  0.00    -0.386 OA
ATOM     48  H   UNL     1      14.134  -1.940  -6.372  0.00  0.00    +0.210 HD
ENDBRANCH  43  47
BRANCH  42  49
ATOM     49  O   UNL     1      14.650   1.627  -7.849  0.00  0.00    -0.386 OA
ATOM     50  H   UNL     1      13.923   2.109  -7.409  0.00  0.00    +0.210 HD
ENDBRANCH  42  49
BRANCH  41  51
ATOM     51  C   UNL     1      16.638  -1.408  -6.947  0.00  0.00    +0.190 C 
BRANCH  51  52
ATOM     52  O   UNL     1      15.752  -2.433  -6.513  0.00  0.00    -0.392 OA
ATOM     53  H   UNL     1      15.729  -3.078  -7.252  0.00  0.00    +0.210 HD
ENDBRANCH  51  52
ENDBRANCH  41  51
ENDBRANCH  38  39
ENDBRANCH  21  38
ENDBRANCH  14  15
ENDBRANCH   2  14
BRANCH   1  54
ATOM     54  O   UNL     1       7.862  -7.097  -7.486  0.00  0.00    -0.337 OA
BRANCH  54  57
ATOM     55  C   UNL     1       7.217  -3.462  -7.466  0.00  0.00    +0.190 C 
ATOM     56  O   UNL     1       7.723  -4.763  -7.074  0.00  0.00    -0.339 OA
ATOM     57  C   UNL     1       7.243  -5.860  -7.908  0.00  0.00    +0.282 C 
ATOM     58  C   UNL     1       5.701  -5.931  -7.920  0.00  0.00    +0.201 C 
ATOM     59  C   UNL     1       5.104  -4.553  -8.215  0.00  0.00    +0.179 C 
ATOM     60  C   UNL     1       5.687  -3.463  -7.324  0.00  0.00    +0.178 C 
BRANCH  58  61
ATOM     61  O   UNL     1       5.235  -6.850  -8.927  0.00  0.00    -0.384 OA
ATOM     62  H   UNL     1       5.346  -6.435  -9.800  0.00  0.00    +0.210 HD
ENDBRANCH  58  61
BRANCH  59  63
ATOM     63  O   UNL     1       3.681  -4.581  -8.045  0.00  0.00    -0.386 OA
ATOM     64  H   UNL     1       3.394  -3.651  -8.136  0.00  0.00    +0.210 HD
ENDBRANCH  59  63
BRANCH  60  65
ATOM     65  O   UNL     1       5.072  -2.233  -7.724  0.00  0.00    -0.386 OA
ATOM     66  H   UNL     1       5.414  -1.538  -7.129  0.00  0.00    +0.210 HD
ENDBRANCH  60  65
BRANCH  55  67
ATOM     67  C   UNL     1       7.839  -2.326  -6.606  0.00  0.00    +0.266 C 
BRANCH  67  68
ATOM     68  O   UNL     1       7.254  -1.019  -6.882  0.00  0.00    -0.459 OA
BRANCH  68  69
ATOM     69  C   UNL     1       7.771  -0.323  -7.935  0.00  0.00    +0.332 C 
ATOM     70  O   UNL     1       8.687  -0.691  -8.646  0.00  0.00    -0.246 OA
BRANCH  69  72
ATOM     71  C   UNL     1       7.310   1.809  -9.098  0.00  0.00    +0.015 C 
ATOM     72  C   UNL     1       7.010   0.949  -8.105  0.00  0.00    +0.092 C 
BRANCH  71  75
ATOM     73  C   UNL     1       5.251   5.003  -8.752  0.00  0.00    +0.162 A 
ATOM     74  C   UNL     1       5.911   3.811  -8.422  0.00  0.00    +0.057 A 
ATOM     75  C   UNL     1       6.588   3.067  -9.403  0.00  0.00    -0.021 A 
ATOM     76  C   UNL     1       6.612   3.564 -10.718  0.00  0.00    +0.012 A 
ATOM     77  C   UNL     1       5.938   4.743 -11.059  0.00  0.00    +0.050 A 
ATOM     78  C   UNL     1       5.254   5.444 -10.078  0.00  0.00    +0.158 A 
BRANCH  73  80
ATOM     79  C   UNL     1       4.975   5.699  -6.512  0.00  0.00    +0.277 C 
ATOM     80  O   UNL     1       4.552   5.791  -7.870  0.00  0.00    -0.491 OA
ENDBRANCH  73  80
BRANCH  78  81
ATOM     81  O   UNL     1       4.599   6.592 -10.431  0.00  0.00    -0.503 OA
ATOM     82  H   UNL     1       4.171   6.907  -9.612  0.00  0.00    +0.292 HD
ENDBRANCH  78  81
ENDBRANCH  71  75
ENDBRANCH  69  72
ENDBRANCH  68  69
ENDBRANCH  67  68
ENDBRANCH  55  67
ENDBRANCH  54  57
ENDBRANCH   1  54
TORSDOF 29
