REMARK  Name = 
REMARK  24 active torsions:
REMARK  status: ('A' for Active; 'I' for Inactive)
REMARK    1  A    between atoms: C_3  and  O_54
REMARK    2  A    between atoms: C_4  and  O_53
REMARK    3  A    between atoms: C_6  and  C_7
REMARK    4  A    between atoms: C_8  and  O_36
REMARK    5  A    between atoms: C_12  and  O_35
REMARK    6  A    between atoms: C_14  and  O_18
REMARK    7  A    between atoms: O_18  and  C_19
REMARK    8  A    between atoms: C_21  and  O_34
REMARK    9  A    between atoms: C_23  and  O_33
REMARK   10  A    between atoms: C_25  and  O_32
REMARK   11  A    between atoms: C_27  and  C_30
REMARK   12  A    between atoms: C_30  and  O_31
REMARK   13  A    between atoms: O_36  and  C_37
REMARK   14  A    between atoms: C_39  and  O_52
REMARK   15  A    between atoms: C_41  and  O_51
REMARK   16  A    between atoms: C_43  and  O_50
REMARK   17  A    between atoms: C_45  and  C_48
REMARK   18  A    between atoms: C_48  and  O_49
REMARK   19  A    between atoms: O_54  and  C_55
REMARK   20  A    between atoms: C_57  and  O_70
REMARK   21  A    between atoms: C_59  and  O_69
REMARK   22  A    between atoms: C_61  and  O_68
REMARK   23  A    between atoms: C_63  and  C_66
REMARK   24  A    between atoms: C_66  and  O_67
REMARK                            x       y       z     vdW  Elec       q    Type
REMARK                         _______ _______ _______ _____ _____    ______ ____
ROOT
ATOM      1  C   UNL     1      -1.315  -2.607   0.863  0.00  0.00    +0.181 A 
ATOM      2  O   UNL     1      -0.702  -3.862   0.940  0.00  0.00    -0.451 OA
ATOM      3  C   UNL     1      -1.300  -4.953   0.373  0.00  0.00    +0.147 A 
ATOM      4  C   UNL     1      -2.629  -4.959   0.001  0.00  0.00    +0.109 A 
ATOM      5  C   UNL     1      -3.202  -6.157  -0.447  0.00  0.00    +0.135 A 
ATOM      6  C   UNL     1      -2.438  -7.333  -0.527  0.00  0.00    +0.092 A 
ATOM      7  C   UNL     1      -1.087  -7.324  -0.159  0.00  0.00    +0.131 A 
ATOM      8  C   UNL     1      -3.351  -3.679   0.059  0.00  0.00    +0.238 A 
ATOM      9  O   UNL     1      -4.561  -3.655  -0.143  0.00  0.00    -0.283 OA
ATOM     10  C   UNL     1      -0.519  -6.106   0.240  0.00  0.00    +0.093 A 
ATOM     11  C   UNL     1      -2.543  -2.436   0.316  0.00  0.00    +0.214 A 
ENDROOT
BRANCH   1  13
ATOM     12  C   UNL     1       0.960  -1.798   1.538  0.00  0.00    +0.015 A 
ATOM     13  C   UNL     1      -0.416  -1.540   1.429  0.00  0.00    +0.025 A 
ATOM     14  C   UNL     1      -0.863  -0.281   1.888  0.00  0.00    +0.060 A 
ATOM     15  C   UNL     1       0.029   0.662   2.428  0.00  0.00    +0.159 A 
ATOM     16  C   UNL     1       1.377   0.333   2.639  0.00  0.00    +0.165 A 
ATOM     17  C   UNL     1       1.841  -0.882   2.127  0.00  0.00    +0.050 A 
BRANCH  15  18
ATOM     18  O   UNL     1      -0.462   1.878   2.793  0.00  0.00    -0.503 OA
ATOM     19  H   UNL     1       0.291   2.379   3.148  0.00  0.00    +0.292 HD
ENDBRANCH  15  18
BRANCH  16  20
ATOM     20  O   UNL     1       2.176   1.228   3.310  0.00  0.00    -0.457 OA
BRANCH  20  21
ATOM     21  C   UNL     1       3.049   0.589   4.283  0.00  0.00    +0.339 C 
ATOM     22  O   UNL     1       2.901   1.211   5.557  0.00  0.00    -0.331 OA
ATOM     23  C   UNL     1       4.011   1.808   6.227  0.00  0.00    +0.179 C 
ATOM     24  C   UNL     1       5.392   1.247   5.847  0.00  0.00    +0.177 C 
ATOM     25  C   UNL     1       5.569   1.277   4.334  0.00  0.00    +0.180 C 
ATOM     26  C   UNL     1       4.476   0.423   3.686  0.00  0.00    +0.214 C 
BRANCH  26  27
ATOM     27  O   UNL     1       4.870  -0.964   3.821  0.00  0.00    -0.383 OA
ATOM     28  H   UNL     1       4.900  -1.142   4.788  0.00  0.00    +0.210 HD
ENDBRANCH  26  27
BRANCH  25  29
ATOM     29  O   UNL     1       5.606   2.624   3.870  0.00  0.00    -0.386 OA
ATOM     30  H   UNL     1       5.241   2.664   2.968  0.00  0.00    +0.210 HD
ENDBRANCH  25  29
BRANCH  24  31
ATOM     31  O   UNL     1       5.507  -0.118   6.297  0.00  0.00    -0.386 OA
ATOM     32  H   UNL     1       6.462  -0.312   6.369  0.00  0.00    +0.210 HD
ENDBRANCH  24  31
BRANCH  23  33
ATOM     33  C   UNL     1       3.890   3.337   6.111  0.00  0.00    +0.190 C 
BRANCH  33  34
ATOM     34  O   UNL     1       4.901   4.009   6.852  0.00  0.00    -0.392 OA
ATOM     35  H   UNL     1       5.694   4.052   6.289  0.00  0.00    +0.210 HD
ENDBRANCH  33  34
ENDBRANCH  23  33
ENDBRANCH  20  21
ENDBRANCH  16  20
ENDBRANCH   1  13
BRANCH   5  36
ATOM     36  O   UNL     1      -4.519  -6.248  -0.813  0.00  0.00    -0.506 OA
ATOM     37  H   UNL     1      -4.950  -5.379  -0.648  0.00  0.00    +0.292 HD
ENDBRANCH   5  36
BRANCH  11  38
ATOM     38  O   UNL     1      -3.140  -1.223  -0.041  0.00  0.00    -0.453 OA
BRANCH  38  39
ATOM     39  C   UNL     1      -2.328  -0.447  -0.944  0.00  0.00    +0.340 C 
ATOM     40  O   UNL     1      -2.570   0.951  -0.800  0.00  0.00    -0.331 OA
ATOM     41  C   UNL     1      -3.263   1.724  -1.785  0.00  0.00    +0.179 C 
ATOM     42  C   UNL     1      -3.476   1.099  -3.176  0.00  0.00    +0.177 C 
ATOM     43  C   UNL     1      -3.588  -0.424  -3.113  0.00  0.00    +0.180 C 
ATOM     44  C   UNL     1      -2.367  -0.978  -2.384  0.00  0.00    +0.214 C 
BRANCH  44  45
ATOM     45  O   UNL     1      -1.165  -0.589  -3.082  0.00  0.00    -0.383 OA
ATOM     46  H   UNL     1      -0.727   0.127  -2.568  0.00  0.00    +0.210 HD
ENDBRANCH  44  45
BRANCH  43  47
ATOM     47  O   UNL     1      -4.825  -0.833  -2.537  0.00  0.00    -0.386 OA
ATOM     48  H   UNL     1      -4.820  -0.707  -1.569  0.00  0.00    +0.210 HD
ENDBRANCH  43  47
BRANCH  42  49
ATOM     49  O   UNL     1      -2.383   1.504  -4.023  0.00  0.00    -0.386 OA
ATOM     50  H   UNL     1      -1.825   0.720  -4.209  0.00  0.00    +0.210 HD
ENDBRANCH  42  49
BRANCH  41  51
ATOM     51  C   UNL     1      -4.587   2.263  -1.210  0.00  0.00    +0.190 C 
BRANCH  51  52
ATOM     52  O   UNL     1      -4.400   2.947   0.028  0.00  0.00    -0.392 OA
ATOM     53  H   UNL     1      -3.562   3.440  -0.018  0.00  0.00    +0.210 HD
ENDBRANCH  51  52
ENDBRANCH  41  51
ENDBRANCH  38  39
ENDBRANCH  11  38
BRANCH   7  54
ATOM     54  O   UNL     1      -0.416  -8.535  -0.200  0.00  0.00    -0.461 OA
BRANCH  54  55
ATOM     55  C   UNL     1       0.763  -8.622   0.626  0.00  0.00    +0.339 C 
ATOM     56  O   UNL     1       1.954  -8.387  -0.129  0.00  0.00    -0.331 OA
ATOM     57  C   UNL     1       2.823  -9.487  -0.431  0.00  0.00    +0.179 C 
ATOM     58  C   UNL     1       3.015 -10.444   0.751  0.00  0.00    +0.177 C 
ATOM     59  C   UNL     1       1.672 -10.997   1.228  0.00  0.00    +0.180 C 
ATOM     60  C   UNL     1       0.728  -9.844   1.590  0.00  0.00    +0.214 C 
BRANCH  60  61
ATOM     61  O   UNL     1       1.132  -9.384   2.907  0.00  0.00    -0.383 OA
ATOM     62  H   UNL     1       2.028  -8.996   2.800  0.00  0.00    +0.210 HD
ENDBRANCH  60  61
BRANCH  59  63
ATOM     63  O   UNL     1       1.147 -11.916   0.278  0.00  0.00    -0.386 OA
ATOM     64  H   UNL     1       0.260 -11.633  -0.006  0.00  0.00    +0.210 HD
ENDBRANCH  59  63
BRANCH  58  65
ATOM     65  O   UNL     1       3.635  -9.718   1.830  0.00  0.00    -0.386 OA
ATOM     66  H   UNL     1       3.907 -10.374   2.500  0.00  0.00    +0.210 HD
ENDBRANCH  58  65
BRANCH  57  67
ATOM     67  C   UNL     1       2.424 -10.191  -1.740  0.00  0.00    +0.190 C 
BRANCH  67  68
ATOM     68  O   UNL     1       2.428  -9.281  -2.840  0.00  0.00    -0.392 OA
ATOM     69  H   UNL     1       2.424  -8.378  -2.473  0.00  0.00    +0.210 HD
ENDBRANCH  67  68
ENDBRANCH  57  67
ENDBRANCH  54  55
ENDBRANCH   7  54
TORSDOF 24
