REMARK  Name = 
REMARK  21 active torsions:
REMARK  status: ('A' for Active; 'I' for Inactive)
REMARK    1  A    between atoms: C_1  and  C_2
REMARK    2  A    between atoms: C_4  and  O_64
REMARK    3  A    between atoms: C_6  and  O_63
REMARK    4  A    between atoms: C_8  and  O_35
REMARK    5  A    between atoms: C_10  and  O_13
REMARK    6  A    between atoms: O_13  and  C_14
REMARK    7  A    between atoms: C_15  and  C_27
REMARK    8  A    between atoms: C_19  and  O_26
REMARK    9  A    between atoms: C_21  and  O_25
REMARK   10  A    between atoms: C_29  and  O_34
REMARK   11  A    between atoms: C_30  and  O_33
REMARK   12  A    between atoms: O_35  and  C_36
REMARK   13  A    between atoms: C_38  and  O_62
REMARK   14  A    between atoms: C_40  and  O_61
REMARK   15  A    between atoms: C_42  and  O_60
REMARK   16  A    between atoms: C_44  and  C_47
REMARK   17  A    between atoms: C_47  and  O_48
REMARK   18  A    between atoms: O_48  and  C_49
REMARK   19  A    between atoms: C_49  and  C_51
REMARK   20  A    between atoms: C_52  and  C_53
REMARK   21  A    between atoms: C_56  and  O_59
REMARK                            x       y       z     vdW  Elec       q    Type
REMARK                         _______ _______ _______ _____ _____    ______ ____
ROOT
ATOM      1  C   UNL     1       0.919   0.096   0.450  0.00  0.00    +0.041 C 
ATOM      2  C   UNL     1       2.442  -0.012   0.312  0.00  0.00    +0.150 C 
ATOM      3  O   UNL     1       2.958   0.936  -0.620  0.00  0.00    -0.334 OA
ATOM      4  C   UNL     1       2.653   0.628  -1.981  0.00  0.00    +0.340 C 
ATOM      5  C   UNL     1       3.021  -0.792  -2.562  0.00  0.00    +0.221 C 
ATOM      6  C   UNL     1       2.655  -1.841  -1.482  0.00  0.00    +0.180 C 
ATOM      7  C   UNL     1       2.990  -1.406  -0.040  0.00  0.00    +0.174 C 
ENDROOT
BRANCH   6   8
ATOM      8  O   UNL     1       1.250  -2.136  -1.558  0.00  0.00    -0.386 OA
ATOM      9  H   UNL     1       0.995  -1.994  -2.487  0.00  0.00    +0.210 HD
ENDBRANCH   6   8
BRANCH   7  10
ATOM     10  O   UNL     1       4.410  -1.410   0.157  0.00  0.00    -0.387 OA
ATOM     11  H   UNL     1       4.789  -0.637  -0.329  0.00  0.00    +0.210 HD
ENDBRANCH   7  10
BRANCH   5  12
ATOM     12  O   UNL     1       2.313  -1.155  -3.810  0.00  0.00    -0.337 OA
BRANCH  12  13
ATOM     13  C   UNL     1       2.788  -0.422  -4.956  0.00  0.00    +0.282 C 
ATOM     14  O   UNL     1       2.305   0.911  -4.960  0.00  0.00    -0.339 OA
ATOM     15  C   UNL     1       0.896   1.119  -5.126  0.00  0.00    +0.190 C 
ATOM     16  C   UNL     1       0.431   0.525  -6.447  0.00  0.00    +0.178 C 
ATOM     17  C   UNL     1       0.903  -0.933  -6.593  0.00  0.00    +0.179 C 
ATOM     18  C   UNL     1       2.416  -1.059  -6.317  0.00  0.00    +0.201 C 
BRANCH  17  19
ATOM     19  O   UNL     1       0.133  -1.804  -5.763  0.00  0.00    -0.386 OA
ATOM     20  H   UNL     1       0.691  -2.101  -5.020  0.00  0.00    +0.210 HD
ENDBRANCH  17  19
BRANCH  16  21
ATOM     21  O   UNL     1       1.040   1.308  -7.480  0.00  0.00    -0.386 OA
ATOM     22  H   UNL     1       0.500   1.192  -8.282  0.00  0.00    +0.210 HD
ENDBRANCH  16  21
BRANCH  18  23
ATOM     23  O   UNL     1       3.144  -0.388  -7.364  0.00  0.00    -0.384 OA
ATOM     24  H   UNL     1       2.854   0.554  -7.333  0.00  0.00    +0.210 HD
ENDBRANCH  18  23
BRANCH  15  25
ATOM     25  C   UNL     1       0.046   0.664  -3.944  0.00  0.00    +0.266 C 
BRANCH  25  26
ATOM     26  O   UNL     1      -1.310   1.072  -4.021  0.00  0.00    -0.459 OA
BRANCH  26  27
ATOM     27  C   UNL     1      -1.529   2.226  -3.342  0.00  0.00    +0.332 C 
ATOM     28  O   UNL     1      -0.704   2.983  -2.856  0.00  0.00    -0.246 OA
BRANCH  27  29
ATOM     29  C   UNL     1      -2.973   2.390  -3.251  0.00  0.00    +0.092 C 
ATOM     30  C   UNL     1      -3.441   3.556  -2.795  0.00  0.00    +0.015 C 
BRANCH  30  31
ATOM     31  C   UNL     1      -4.871   3.818  -2.693  0.00  0.00    -0.025 A 
ATOM     32  C   UNL     1      -5.788   3.230  -3.574  0.00  0.00    +0.011 A 
ATOM     33  C   UNL     1      -7.145   3.483  -3.435  0.00  0.00    +0.046 A 
ATOM     34  C   UNL     1      -7.585   4.333  -2.433  0.00  0.00    +0.117 A 
ATOM     35  C   UNL     1      -6.690   4.960  -1.575  0.00  0.00    +0.046 A 
ATOM     36  C   UNL     1      -5.323   4.705  -1.710  0.00  0.00    +0.011 A 
BRANCH  34  37
ATOM     37  O   UNL     1      -8.928   4.528  -2.321  0.00  0.00    -0.507 OA
ATOM     38  H   UNL     1      -9.092   5.055  -1.522  0.00  0.00    +0.292 HD
ENDBRANCH  34  37
ENDBRANCH  30  31
ENDBRANCH  27  29
ENDBRANCH  26  27
ENDBRANCH  25  26
ENDBRANCH  15  25
ENDBRANCH  12  13
ENDBRANCH   5  12
BRANCH   4  39
ATOM     39  O   UNL     1       2.970   1.739  -2.822  0.00  0.00    -0.453 OA
BRANCH  39  40
ATOM     40  C   UNL     1       4.246   2.248  -2.784  0.00  0.00    +0.214 A 
ATOM     41  C   UNL     1       5.316   1.533  -2.047  0.00  0.00    +0.238 A 
ATOM     42  O   UNL     1       5.223   0.365  -1.697  0.00  0.00    -0.283 OA
ATOM     43  C   UNL     1       6.535   2.245  -1.754  0.00  0.00    +0.109 A 
ATOM     44  C   UNL     1       6.738   3.466  -2.383  0.00  0.00    +0.147 A 
ATOM     45  C   UNL     1       7.894   4.176  -2.084  0.00  0.00    +0.092 A 
ATOM     46  C   UNL     1       8.821   3.629  -1.184  0.00  0.00    +0.124 A 
ATOM     47  C   UNL     1       8.628   2.392  -0.579  0.00  0.00    +0.091 A 
ATOM     48  O   UNL     1       5.844   3.992  -3.298  0.00  0.00    -0.451 OA
ATOM     49  C   UNL     1       7.472   1.697  -0.863  0.00  0.00    +0.135 A 
ATOM     50  C   UNL     1       4.591   3.384  -3.427  0.00  0.00    +0.181 A 
BRANCH  50  51
ATOM     51  C   UNL     1       3.656   4.081  -4.359  0.00  0.00    +0.025 A 
ATOM     52  C   UNL     1       3.711   3.834  -5.751  0.00  0.00    +0.015 A 
ATOM     53  C   UNL     1       2.804   4.433  -6.641  0.00  0.00    +0.050 A 
ATOM     54  C   UNL     1       1.836   5.287  -6.146  0.00  0.00    +0.158 A 
ATOM     55  C   UNL     1       1.766   5.547  -4.781  0.00  0.00    +0.159 A 
ATOM     56  C   UNL     1       2.663   4.952  -3.884  0.00  0.00    +0.060 A 
BRANCH  55  57
ATOM     57  O   UNL     1       0.774   6.399  -4.367  0.00  0.00    -0.503 OA
ATOM     58  H   UNL     1       0.783   6.411  -3.394  0.00  0.00    +0.292 HD
ENDBRANCH  55  57
BRANCH  54  59
ATOM     59  O   UNL     1       0.933   5.852  -7.002  0.00  0.00    -0.503 OA
ATOM     60  H   UNL     1       0.338   6.377  -6.430  0.00  0.00    +0.292 HD
ENDBRANCH  54  59
ENDBRANCH  50  51
BRANCH  49  61
ATOM     61  O   UNL     1       7.260   0.485  -0.265  0.00  0.00    -0.506 OA
ATOM     62  H   UNL     1       7.948   0.284   0.388  0.00  0.00    +0.292 HD
ENDBRANCH  49  61
BRANCH  46  63
ATOM     63  O   UNL     1       9.968   4.286  -0.850  0.00  0.00    -0.507 OA
ATOM     64  H   UNL     1       9.979   5.144  -1.303  0.00  0.00    +0.292 HD
ENDBRANCH  46  63
ENDBRANCH  39  40
ENDBRANCH   4  39
TORSDOF 20
