REMARK  Name = 
REMARK  22 active torsions:
REMARK  status: ('A' for Active; 'I' for Inactive)
REMARK    1  A    between atoms: C_1  and  C_2
REMARK    2  A    between atoms: C_4  and  O_68
REMARK    3  A    between atoms: C_6  and  O_67
REMARK    4  A    between atoms: C_8  and  O_66
REMARK    5  A    between atoms: C_10  and  O_13
REMARK    6  A    between atoms: O_13  and  C_14
REMARK    7  A    between atoms: C_14  and  C_15
REMARK    8  A    between atoms: C_17  and  O_65
REMARK    9  A    between atoms: C_19  and  O_64
REMARK   10  A    between atoms: C_21  and  O_63
REMARK   11  A    between atoms: C_23  and  O_26
REMARK   12  A    between atoms: O_26  and  C_27
REMARK   13  A    between atoms: C_28  and  C_55
REMARK   14  A    between atoms: C_32  and  O_39
REMARK   15  A    between atoms: C_34  and  O_38
REMARK   16  A    between atoms: O_39  and  C_40
REMARK   17  A    between atoms: C_42  and  O_54
REMARK   18  A    between atoms: C_44  and  O_53
REMARK   19  A    between atoms: C_46  and  O_52
REMARK   20  A    between atoms: C_48  and  C_51
REMARK   21  A    between atoms: C_57  and  O_62
REMARK   22  A    between atoms: C_58  and  O_61
REMARK                            x       y       z     vdW  Elec       q    Type
REMARK                         _______ _______ _______ _____ _____    ______ ____
ROOT
ATOM      1  C   UNL     1       4.054   6.769  -1.019  0.00  0.00    +0.214 A 
ATOM      2  C   UNL     1       4.572   7.944  -0.214  0.00  0.00    +0.238 A 
ATOM      3  O   UNL     1       4.205   9.106  -0.348  0.00  0.00    -0.283 OA
ATOM      4  C   UNL     1       5.501   7.685   0.866  0.00  0.00    +0.109 A 
ATOM      5  C   UNL     1       5.364   6.456   1.467  0.00  0.00    +0.147 A 
ATOM      6  C   UNL     1       6.057   6.190   2.645  0.00  0.00    +0.093 A 
ATOM      7  C   UNL     1       6.945   7.129   3.170  0.00  0.00    +0.131 A 
ATOM      8  C   UNL     1       7.094   8.369   2.554  0.00  0.00    +0.092 A 
ATOM      9  O   UNL     1       4.540   5.492   0.970  0.00  0.00    -0.451 OA
ATOM     10  C   UNL     1       6.369   8.644   1.394  0.00  0.00    +0.135 A 
ATOM     11  C   UNL     1       4.052   5.587  -0.344  0.00  0.00    +0.181 A 
ENDROOT
BRANCH  11  12
ATOM     12  C   UNL     1       3.489   4.238  -0.759  0.00  0.00    +0.025 A 
ATOM     13  C   UNL     1       3.525   3.174   0.188  0.00  0.00    +0.015 A 
ATOM     14  C   UNL     1       2.897   1.943  -0.021  0.00  0.00    +0.050 A 
ATOM     15  C   UNL     1       2.237   1.727  -1.208  0.00  0.00    +0.158 A 
ATOM     16  C   UNL     1       2.266   2.702  -2.203  0.00  0.00    +0.159 A 
ATOM     17  C   UNL     1       2.878   3.949  -1.992  0.00  0.00    +0.060 A 
BRANCH  16  18
ATOM     18  O   UNL     1       1.662   2.379  -3.389  0.00  0.00    -0.503 OA
ATOM     19  H   UNL     1       2.049   2.953  -4.079  0.00  0.00    +0.292 HD
ENDBRANCH  16  18
BRANCH  15  20
ATOM     20  O   UNL     1       1.557   0.560  -1.387  0.00  0.00    -0.503 OA
ATOM     21  H   UNL     1       1.076   0.679  -2.230  0.00  0.00    +0.292 HD
ENDBRANCH  15  20
ENDBRANCH  11  12
BRANCH  10  22
ATOM     22  O   UNL     1       6.553   9.843   0.765  0.00  0.00    -0.506 OA
ATOM     23  H   UNL     1       6.682  10.534   1.436  0.00  0.00    +0.292 HD
ENDBRANCH  10  22
BRANCH   7  24
ATOM     24  O   UNL     1       7.722   6.907   4.284  0.00  0.00    -0.461 OA
BRANCH  24  25
ATOM     25  C   UNL     1       8.118   5.539   4.434  0.00  0.00    +0.339 C 
ATOM     26  O   UNL     1       7.148   4.760   5.147  0.00  0.00    -0.334 OA
ATOM     27  C   UNL     1       6.974   5.167   6.507  0.00  0.00    +0.150 C 
ATOM     28  C   UNL     1       5.839   4.328   7.086  0.00  0.00    +0.041 C 
ATOM     29  C   UNL     1       8.275   4.973   7.298  0.00  0.00    +0.174 C 
ATOM     30  C   UNL     1       9.421   5.740   6.612  0.00  0.00    +0.180 C 
ATOM     31  C   UNL     1       9.497   5.430   5.108  0.00  0.00    +0.214 C 
BRANCH  31  32
ATOM     32  O   UNL     1      10.032   4.110   4.903  0.00  0.00    -0.383 OA
ATOM     33  H   UNL     1       9.359   3.466   5.197  0.00  0.00    +0.210 HD
ENDBRANCH  31  32
BRANCH  30  34
ATOM     34  O   UNL     1      10.658   5.431   7.269  0.00  0.00    -0.386 OA
ATOM     35  H   UNL     1      11.386   5.584   6.641  0.00  0.00    +0.210 HD
ENDBRANCH  30  34
BRANCH  29  36
ATOM     36  O   UNL     1       8.093   5.395   8.653  0.00  0.00    -0.387 OA
ATOM     37  H   UNL     1       8.137   6.365   8.686  0.00  0.00    +0.210 HD
ENDBRANCH  29  36
ENDBRANCH  24  25
ENDBRANCH   7  24
BRANCH   1  38
ATOM     38  O   UNL     1       3.566   6.935  -2.328  0.00  0.00    -0.453 OA
BRANCH  38  41
ATOM     39  C   UNL     1       2.974  10.503  -2.523  0.00  0.00    +0.179 C 
ATOM     40  O   UNL     1       2.649   9.112  -2.367  0.00  0.00    -0.331 OA
ATOM     41  C   UNL     1       3.714   8.281  -2.843  0.00  0.00    +0.340 C 
ATOM     42  C   UNL     1       3.739   8.394  -4.384  0.00  0.00    +0.214 C 
ATOM     43  C   UNL     1       3.973   9.896  -4.713  0.00  0.00    +0.180 C 
ATOM     44  C   UNL     1       2.954  10.820  -4.020  0.00  0.00    +0.177 C 
BRANCH  44  45
ATOM     45  O   UNL     1       3.339  12.179  -4.283  0.00  0.00    -0.386 OA
ATOM     46  H   UNL     1       2.579  12.735  -4.025  0.00  0.00    +0.210 HD
ENDBRANCH  44  45
BRANCH  43  47
ATOM     47  O   UNL     1       3.975  10.140  -6.125  0.00  0.00    -0.386 OA
ATOM     48  H   UNL     1       3.973  11.111  -6.210  0.00  0.00    +0.210 HD
ENDBRANCH  43  47
BRANCH  42  49
ATOM     49  O   UNL     1       4.809   7.591  -4.916  0.00  0.00    -0.383 OA
ATOM     50  H   UNL     1       5.389   8.182  -5.431  0.00  0.00    +0.210 HD
ENDBRANCH  42  49
BRANCH  39  51
ATOM     51  C   UNL     1       2.011  11.339  -1.686  0.00  0.00    +0.197 C 
BRANCH  51  52
ATOM     52  O   UNL     1       0.701  11.207  -2.219  0.00  0.00    -0.346 OA
BRANCH  52  56
ATOM     53  C   UNL     1      -1.151  13.517   0.995  0.00  0.00    +0.041 C 
ATOM     54  C   UNL     1      -1.341  12.031   0.696  0.00  0.00    +0.149 C 
ATOM     55  O   UNL     1      -0.292  11.499  -0.115  0.00  0.00    -0.343 OA
ATOM     56  C   UNL     1      -0.290  11.923  -1.476  0.00  0.00    +0.282 C 
ATOM     57  C   UNL     1      -1.626  11.641  -2.196  0.00  0.00    +0.201 C 
ATOM     58  C   UNL     1      -2.838  12.072  -1.364  0.00  0.00    +0.179 C 
ATOM     59  C   UNL     1      -2.697  11.641   0.100  0.00  0.00    +0.174 C 
BRANCH  59  60
ATOM     60  O   UNL     1      -2.817  10.206   0.155  0.00  0.00    -0.387 OA
ATOM     61  H   UNL     1      -1.918   9.826   0.056  0.00  0.00    +0.210 HD
ENDBRANCH  59  60
BRANCH  58  62
ATOM     62  O   UNL     1      -3.071  13.482  -1.494  0.00  0.00    -0.386 OA
ATOM     63  H   UNL     1      -2.222  13.948  -1.581  0.00  0.00    +0.210 HD
ENDBRANCH  58  62
BRANCH  57  64
ATOM     64  O   UNL     1      -1.642  12.314  -3.471  0.00  0.00    -0.384 OA
ATOM     65  H   UNL     1      -2.449  12.860  -3.508  0.00  0.00    +0.210 HD
ENDBRANCH  57  64
ENDBRANCH  52  56
ENDBRANCH  51  52
ENDBRANCH  39  51
ENDBRANCH  38  41
ENDBRANCH   1  38
TORSDOF 20
