REMARK  Name = 
REMARK  17 active torsions:
REMARK  status: ('A' for Active; 'I' for Inactive)
REMARK    1  A    between atoms: C_1  and  C_2
REMARK    2  A    between atoms: C_4  and  O_53
REMARK    3  A    between atoms: C_6  and  O_52
REMARK    4  A    between atoms: C_8  and  O_35
REMARK    5  A    between atoms: C_10  and  O_13
REMARK    6  A    between atoms: O_13  and  C_14
REMARK    7  A    between atoms: C_15  and  C_27
REMARK    8  A    between atoms: C_19  and  O_26
REMARK    9  A    between atoms: C_21  and  O_25
REMARK   10  A    between atoms: C_29  and  O_34
REMARK   11  A    between atoms: C_30  and  O_33
REMARK   12  A    between atoms: O_35  and  C_36
REMARK   13  A    between atoms: C_38  and  O_51
REMARK   14  A    between atoms: C_40  and  O_50
REMARK   15  A    between atoms: C_42  and  O_49
REMARK   16  A    between atoms: C_44  and  C_47
REMARK   17  A    between atoms: C_47  and  O_48
REMARK                            x       y       z     vdW  Elec       q    Type
REMARK                         _______ _______ _______ _____ _____    ______ ____
ROOT
ATOM      1  C   UNL     1       0.969   0.424   0.345  0.00  0.00    +0.041 C 
ATOM      2  C   UNL     1       2.476   0.336   0.113  0.00  0.00    +0.150 C 
ATOM      3  O   UNL     1       2.930   1.141  -0.991  0.00  0.00    -0.334 OA
ATOM      4  C   UNL     1       2.546   0.661  -2.288  0.00  0.00    +0.340 C 
ATOM      5  C   UNL     1       3.116  -0.753  -2.532  0.00  0.00    +0.221 C 
ATOM      6  C   UNL     1       2.655  -1.694  -1.400  0.00  0.00    +0.180 C 
ATOM      7  C   UNL     1       3.004  -1.101  -0.034  0.00  0.00    +0.174 C 
ENDROOT
BRANCH   7   8
ATOM      8  O   UNL     1       4.437  -1.091   0.097  0.00  0.00    -0.387 OA
ATOM      9  H   UNL     1       4.752  -0.212  -0.189  0.00  0.00    +0.210 HD
ENDBRANCH   7   8
BRANCH   6  10
ATOM     10  O   UNL     1       1.252  -1.968  -1.489  0.00  0.00    -0.386 OA
ATOM     11  H   UNL     1       0.942  -1.736  -2.384  0.00  0.00    +0.210 HD
ENDBRANCH   6  10
BRANCH   5  12
ATOM     12  O   UNL     1       2.708  -1.224  -3.842  0.00  0.00    -0.337 OA
BRANCH  12  13
ATOM     13  C   UNL     1       3.247  -2.508  -4.173  0.00  0.00    +0.282 C 
ATOM     14  O   UNL     1       4.672  -2.545  -4.104  0.00  0.00    -0.341 OA
ATOM     15  C   UNL     1       5.398  -1.918  -5.173  0.00  0.00    +0.178 C 
ATOM     16  C   UNL     1       4.885  -2.299  -6.572  0.00  0.00    +0.177 C 
ATOM     17  C   UNL     1       3.355  -2.220  -6.688  0.00  0.00    +0.179 C 
ATOM     18  C   UNL     1       2.699  -2.983  -5.533  0.00  0.00    +0.201 C 
BRANCH  16  19
ATOM     19  O   UNL     1       5.299  -3.657  -6.812  0.00  0.00    -0.386 OA
ATOM     20  H   UNL     1       5.081  -3.864  -7.740  0.00  0.00    +0.210 HD
ENDBRANCH  16  19
BRANCH  17  21
ATOM     21  O   UNL     1       2.903  -0.871  -6.789  0.00  0.00    -0.386 OA
ATOM     22  H   UNL     1       2.649  -0.548  -5.903  0.00  0.00    +0.210 HD
ENDBRANCH  17  21
BRANCH  18  23
ATOM     23  O   UNL     1       2.937  -4.391  -5.680  0.00  0.00    -0.384 OA
ATOM     24  H   UNL     1       3.912  -4.516  -5.643  0.00  0.00    +0.210 HD
ENDBRANCH  18  23
BRANCH  15  25
ATOM     25  C   UNL     1       5.492  -0.408  -4.997  0.00  0.00    +0.190 C 
BRANCH  25  26
ATOM     26  O   UNL     1       6.176  -0.016  -3.802  0.00  0.00    -0.392 OA
ATOM     27  H   UNL     1       6.247  -0.808  -3.238  0.00  0.00    +0.210 HD
ENDBRANCH  25  26
ENDBRANCH  15  25
ENDBRANCH  12  13
ENDBRANCH   5  12
BRANCH   4  28
ATOM     28  O   UNL     1       3.050   1.554  -3.306  0.00  0.00    -0.453 OA
BRANCH  28  29
ATOM     29  C   UNL     1       2.127   2.252  -4.078  0.00  0.00    +0.214 A 
ATOM     30  C   UNL     1       0.788   2.634  -3.507  0.00  0.00    +0.238 A 
ATOM     31  O   UNL     1       0.559   2.551  -2.310  0.00  0.00    -0.283 OA
ATOM     32  C   UNL     1      -0.234   3.144  -4.434  0.00  0.00    +0.109 A 
ATOM     33  C   UNL     1       0.167   3.448  -5.729  0.00  0.00    +0.147 A 
ATOM     34  C   UNL     1      -0.748   3.971  -6.648  0.00  0.00    +0.092 A 
ATOM     35  C   UNL     1      -2.067   4.200  -6.246  0.00  0.00    +0.124 A 
ATOM     36  C   UNL     1      -2.483   3.901  -4.955  0.00  0.00    +0.091 A 
ATOM     37  O   UNL     1       1.456   3.288  -6.165  0.00  0.00    -0.451 OA
ATOM     38  C   UNL     1      -1.568   3.364  -4.051  0.00  0.00    +0.135 A 
ATOM     39  C   UNL     1       2.397   2.680  -5.336  0.00  0.00    +0.181 A 
BRANCH  39  40
ATOM     40  C   UNL     1       3.728   2.561  -6.010  0.00  0.00    +0.025 A 
ATOM     41  C   UNL     1       3.807   2.296  -7.394  0.00  0.00    +0.015 A 
ATOM     42  C   UNL     1       5.040   2.175  -8.055  0.00  0.00    +0.050 A 
ATOM     43  C   UNL     1       6.213   2.310  -7.332  0.00  0.00    +0.158 A 
ATOM     44  C   UNL     1       6.162   2.588  -5.971  0.00  0.00    +0.159 A 
ATOM     45  C   UNL     1       4.937   2.742  -5.313  0.00  0.00    +0.060 A 
BRANCH  43  46
ATOM     46  O   UNL     1       7.412   2.079  -7.943  0.00  0.00    -0.503 OA
ATOM     47  H   UNL     1       8.077   2.177  -7.231  0.00  0.00    +0.292 HD
ENDBRANCH  43  46
BRANCH  44  48
ATOM     48  O   UNL     1       7.342   2.572  -5.276  0.00  0.00    -0.503 OA
ATOM     49  H   UNL     1       7.130   2.246  -4.377  0.00  0.00    +0.292 HD
ENDBRANCH  44  48
ENDBRANCH  39  40
BRANCH  35  50
ATOM     50  O   UNL     1      -2.999   4.711  -7.097  0.00  0.00    -0.507 OA
ATOM     51  H   UNL     1      -2.584   4.893  -7.956  0.00  0.00    +0.292 HD
ENDBRANCH  35  50
BRANCH  38  52
ATOM     52  O   UNL     1      -2.005   3.039  -2.799  0.00  0.00    -0.506 OA
ATOM     53  H   UNL     1      -2.933   3.299  -2.681  0.00  0.00    +0.292 HD
ENDBRANCH  38  52
ENDBRANCH  28  29
ENDBRANCH   4  28
TORSDOF 16
