REMARK  Name = 
REMARK  18 active torsions:
REMARK  status: ('A' for Active; 'I' for Inactive)
REMARK    1  A    between atoms: C_3  and  O_54
REMARK    2  A    between atoms: C_4  and  O_53
REMARK    3  A    between atoms: C_6  and  C_7
REMARK    4  A    between atoms: C_8  and  O_20
REMARK    5  A    between atoms: C_12  and  O_19
REMARK    6  A    between atoms: C_14  and  O_18
REMARK    7  A    between atoms: O_20  and  C_21
REMARK    8  A    between atoms: C_23  and  O_52
REMARK    9  A    between atoms: C_25  and  O_35
REMARK   10  A    between atoms: C_27  and  O_34
REMARK   11  A    between atoms: C_29  and  C_32
REMARK   12  A    between atoms: C_32  and  O_33
REMARK   13  A    between atoms: O_35  and  C_36
REMARK   14  A    between atoms: C_38  and  O_51
REMARK   15  A    between atoms: C_40  and  O_50
REMARK   16  A    between atoms: C_42  and  O_49
REMARK   17  A    between atoms: C_44  and  C_47
REMARK   18  A    between atoms: C_47  and  O_48
REMARK                            x       y       z     vdW  Elec       q    Type
REMARK                         _______ _______ _______ _____ _____    ______ ____
ROOT
ATOM      1  C   UNL     1      -2.534  -0.625  -0.777  0.00  0.00    +0.340 C 
ATOM      2  O   UNL     1      -3.493  -0.127  -1.699  0.00  0.00    -0.331 OA
ATOM      3  C   UNL     1      -3.145   0.137  -3.064  0.00  0.00    +0.179 C 
ATOM      4  C   UNL     1      -2.193  -0.895  -3.705  0.00  0.00    +0.177 C 
ATOM      5  C   UNL     1      -2.027  -2.097  -2.768  0.00  0.00    +0.187 C 
ATOM      6  C   UNL     1      -1.484  -1.546  -1.434  0.00  0.00    +0.214 C 
ENDROOT
BRANCH   6   7
ATOM      7  O   UNL     1      -0.232  -0.855  -1.640  0.00  0.00    -0.383 OA
ATOM      8  H   UNL     1      -0.417   0.094  -1.782  0.00  0.00    +0.210 HD
ENDBRANCH   6   7
BRANCH   4   9
ATOM      9  O   UNL     1      -0.933  -0.261  -3.993  0.00  0.00    -0.386 OA
ATOM     10  H   UNL     1      -0.210  -0.800  -3.610  0.00  0.00    +0.210 HD
ENDBRANCH   4   9
BRANCH   5  11
ATOM     11  O   UNL     1      -3.260  -2.817  -2.550  0.00  0.00    -0.340 OA
BRANCH  11  12
ATOM     12  C   UNL     1      -3.841  -3.397  -3.724  0.00  0.00    +0.282 C 
ATOM     13  O   UNL     1      -5.239  -3.647  -3.551  0.00  0.00    -0.341 OA
ATOM     14  C   UNL     1      -5.628  -4.739  -2.704  0.00  0.00    +0.178 C 
ATOM     15  C   UNL     1      -4.803  -6.021  -2.953  0.00  0.00    +0.177 C 
ATOM     16  C   UNL     1      -3.300  -5.737  -3.081  0.00  0.00    +0.179 C 
ATOM     17  C   UNL     1      -3.071  -4.653  -4.145  0.00  0.00    +0.201 C 
BRANCH  17  18
ATOM     18  O   UNL     1      -3.478  -5.073  -5.451  0.00  0.00    -0.384 OA
ATOM     19  H   UNL     1      -4.445  -5.247  -5.402  0.00  0.00    +0.210 HD
ENDBRANCH  17  18
BRANCH  16  20
ATOM     20  O   UNL     1      -2.704  -5.393  -1.825  0.00  0.00    -0.386 OA
ATOM     21  H   UNL     1      -2.956  -4.470  -1.611  0.00  0.00    +0.210 HD
ENDBRANCH  16  20
BRANCH  15  22
ATOM     22  O   UNL     1      -5.254  -6.581  -4.209  0.00  0.00    -0.386 OA
ATOM     23  H   UNL     1      -4.694  -7.355  -4.404  0.00  0.00    +0.210 HD
ENDBRANCH  15  22
BRANCH  14  24
ATOM     24  C   UNL     1      -5.738  -4.293  -1.239  0.00  0.00    +0.190 C 
BRANCH  24  25
ATOM     25  O   UNL     1      -6.204  -5.357  -0.418  0.00  0.00    -0.392 OA
ATOM     26  H   UNL     1      -6.298  -5.002   0.485  0.00  0.00    +0.210 HD
ENDBRANCH  24  25
ENDBRANCH  14  24
ENDBRANCH  11  12
ENDBRANCH   5  11
BRANCH   3  27
ATOM     27  C   UNL     1      -4.498   0.117  -3.806  0.00  0.00    +0.190 C 
BRANCH  27  28
ATOM     28  O   UNL     1      -5.347   1.188  -3.397  0.00  0.00    -0.392 OA
ATOM     29  H   UNL     1      -4.806   1.991  -3.328  0.00  0.00    +0.210 HD
ENDBRANCH  27  28
ENDBRANCH   3  27
BRANCH   1  30
ATOM     30  O   UNL     1      -3.176  -1.475   0.187  0.00  0.00    -0.453 OA
BRANCH  30  41
ATOM     31  C   UNL     1      -4.251  -1.665   2.308  0.00  0.00    +0.181 A 
ATOM     32  O   UNL     1      -5.217  -1.238   3.231  0.00  0.00    -0.451 OA
ATOM     33  C   UNL     1      -6.138  -0.309   2.813  0.00  0.00    +0.147 A 
ATOM     34  C   UNL     1      -5.885   0.531   1.738  0.00  0.00    +0.109 A 
ATOM     35  C   UNL     1      -6.837   1.474   1.331  0.00  0.00    +0.135 A 
ATOM     36  C   UNL     1      -8.040   1.589   2.016  0.00  0.00    +0.091 A 
ATOM     37  C   UNL     1      -8.284   0.741   3.097  0.00  0.00    +0.124 A 
ATOM     38  C   UNL     1      -4.607   0.389   1.061  0.00  0.00    +0.238 A 
ATOM     39  O   UNL     1      -4.142   1.329   0.425  0.00  0.00    -0.283 OA
ATOM     40  C   UNL     1      -7.345  -0.210   3.501  0.00  0.00    +0.092 A 
ATOM     41  C   UNL     1      -3.950  -0.949   1.196  0.00  0.00    +0.214 A 
BRANCH  31  43
ATOM     42  C   UNL     1      -2.532  -3.539   2.021  0.00  0.00    +0.015 A 
ATOM     43  C   UNL     1      -3.685  -3.017   2.643  0.00  0.00    +0.025 A 
ATOM     44  C   UNL     1      -4.314  -3.842   3.595  0.00  0.00    +0.060 A 
ATOM     45  C   UNL     1      -3.897  -5.160   3.777  0.00  0.00    +0.159 A 
ATOM     46  C   UNL     1      -2.852  -5.689   3.032  0.00  0.00    +0.158 A 
ATOM     47  C   UNL     1      -2.134  -4.872   2.179  0.00  0.00    +0.050 A 
BRANCH  46  48
ATOM     48  O   UNL     1      -2.572  -7.019   3.162  0.00  0.00    -0.503 OA
ATOM     49  H   UNL     1      -2.054  -7.288   2.381  0.00  0.00    +0.292 HD
ENDBRANCH  46  48
BRANCH  45  50
ATOM     50  O   UNL     1      -4.555  -5.953   4.674  0.00  0.00    -0.503 OA
ATOM     51  H   UNL     1      -4.101  -6.818   4.618  0.00  0.00    +0.292 HD
ENDBRANCH  45  50
ENDBRANCH  31  43
BRANCH  37  52
ATOM     52  O   UNL     1      -9.457   0.809   3.792  0.00  0.00    -0.507 OA
ATOM     53  H   UNL     1     -10.015   1.500   3.392  0.00  0.00    +0.292 HD
ENDBRANCH  37  52
BRANCH  35  54
ATOM     54  O   UNL     1      -6.663   2.293   0.248  0.00  0.00    -0.506 OA
ATOM     55  H   UNL     1      -5.792   2.091  -0.160  0.00  0.00    +0.292 HD
ENDBRANCH  35  54
ENDBRANCH  30  41
ENDBRANCH   1  30
TORSDOF 18
