REMARK  Name = 
REMARK  22 active torsions:
REMARK  status: ('A' for Active; 'I' for Inactive)
REMARK    1  A    between atoms: C_3  and  O_60
REMARK    2  A    between atoms: C_4  and  O_59
REMARK    3  A    between atoms: C_6  and  C_7
REMARK    4  A    between atoms: C_8  and  O_36
REMARK    5  A    between atoms: C_12  and  O_35
REMARK    6  A    between atoms: C_14  and  O_18
REMARK    7  A    between atoms: O_18  and  C_19
REMARK    8  A    between atoms: C_21  and  O_34
REMARK    9  A    between atoms: C_23  and  O_33
REMARK   10  A    between atoms: C_25  and  O_32
REMARK   11  A    between atoms: C_27  and  C_30
REMARK   12  A    between atoms: C_30  and  O_31
REMARK   13  A    between atoms: O_36  and  C_37
REMARK   14  A    between atoms: C_39  and  O_58
REMARK   15  A    between atoms: C_41  and  O_57
REMARK   16  A    between atoms: C_43  and  O_56
REMARK   17  A    between atoms: C_45  and  C_48
REMARK   18  A    between atoms: C_48  and  O_49
REMARK   19  A    between atoms: O_49  and  C_50
REMARK   20  A    between atoms: C_50  and  C_52
REMARK   21  A    between atoms: C_52  and  C_53
REMARK   22  A    between atoms: C_53  and  O_55
REMARK                            x       y       z     vdW  Elec       q    Type
REMARK                         _______ _______ _______ _____ _____    ______ ____
ROOT
ATOM      1  C   UNL     1      -1.283  -2.657   0.829  0.00  0.00    +0.181 A 
ATOM      2  O   UNL     1      -0.592  -3.868   0.854  0.00  0.00    -0.451 OA
ATOM      3  C   UNL     1      -1.165  -4.993   0.324  0.00  0.00    +0.147 A 
ATOM      4  C   UNL     1      -2.491  -5.049  -0.057  0.00  0.00    +0.109 A 
ATOM      5  C   UNL     1      -3.030  -6.277  -0.463  0.00  0.00    +0.135 A 
ATOM      6  C   UNL     1      -2.243  -7.439  -0.485  0.00  0.00    +0.092 A 
ATOM      7  C   UNL     1      -0.898  -7.382  -0.113  0.00  0.00    +0.131 A 
ATOM      8  C   UNL     1      -3.258  -3.793  -0.041  0.00  0.00    +0.238 A 
ATOM      9  O   UNL     1      -4.458  -3.811  -0.297  0.00  0.00    -0.283 OA
ATOM     10  C   UNL     1      -0.359  -6.133   0.238  0.00  0.00    +0.093 A 
ATOM     11  C   UNL     1      -2.518  -2.527   0.278  0.00  0.00    +0.214 A 
ENDROOT
BRANCH   1  13
ATOM     12  C   UNL     1       0.900  -1.693   1.667  0.00  0.00    +0.015 A 
ATOM     13  C   UNL     1      -0.489  -1.552   1.456  0.00  0.00    +0.025 A 
ATOM     14  C   UNL     1      -1.086  -0.370   1.923  0.00  0.00    +0.060 A 
ATOM     15  C   UNL     1      -0.324   0.643   2.493  0.00  0.00    +0.159 A 
ATOM     16  C   UNL     1       1.032   0.471   2.716  0.00  0.00    +0.158 A 
ATOM     17  C   UNL     1       1.655  -0.700   2.312  0.00  0.00    +0.050 A 
BRANCH  16  18
ATOM     18  O   UNL     1       1.704   1.469   3.361  0.00  0.00    -0.503 OA
ATOM     19  H   UNL     1       2.536   1.100   3.704  0.00  0.00    +0.292 HD
ENDBRANCH  16  18
BRANCH  15  20
ATOM     20  O   UNL     1      -0.940   1.810   2.842  0.00  0.00    -0.503 OA
ATOM     21  H   UNL     1      -0.218   2.404   3.124  0.00  0.00    +0.292 HD
ENDBRANCH  15  20
ENDBRANCH   1  13
BRANCH   5  22
ATOM     22  O   UNL     1      -4.343  -6.416  -0.834  0.00  0.00    -0.506 OA
ATOM     23  H   UNL     1      -4.794  -5.550  -0.718  0.00  0.00    +0.292 HD
ENDBRANCH   5  22
BRANCH   7  24
ATOM     24  O   UNL     1      -0.201  -8.578  -0.073  0.00  0.00    -0.461 OA
BRANCH  24  25
ATOM     25  C   UNL     1       0.988  -8.569   0.743  0.00  0.00    +0.339 C 
ATOM     26  O   UNL     1       2.158  -8.307  -0.034  0.00  0.00    -0.331 OA
ATOM     27  C   UNL     1       3.006  -9.411  -0.389  0.00  0.00    +0.179 C 
ATOM     28  C   UNL     1       3.291 -10.332   0.803  0.00  0.00    +0.177 C 
ATOM     29  C   UNL     1       1.989 -10.892   1.377  0.00  0.00    +0.180 C 
ATOM     30  C   UNL     1       1.045  -9.745   1.757  0.00  0.00    +0.214 C 
BRANCH  28  31
ATOM     31  O   UNL     1       3.965  -9.564   1.819  0.00  0.00    -0.386 OA
ATOM     32  H   UNL     1       4.267 -10.190   2.504  0.00  0.00    +0.210 HD
ENDBRANCH  28  31
BRANCH  29  33
ATOM     33  O   UNL     1       1.426 -11.840   0.477  0.00  0.00    -0.386 OA
ATOM     34  H   UNL     1       0.468 -11.689   0.392  0.00  0.00    +0.210 HD
ENDBRANCH  29  33
BRANCH  30  35
ATOM     35  O   UNL     1       1.529  -9.216   3.020  0.00  0.00    -0.383 OA
ATOM     36  H   UNL     1       2.398  -8.798   2.826  0.00  0.00    +0.210 HD
ENDBRANCH  30  35
BRANCH  27  37
ATOM     37  C   UNL     1       2.497 -10.144  -1.640  0.00  0.00    +0.190 C 
BRANCH  37  38
ATOM     38  O   UNL     1       2.449  -9.250  -2.753  0.00  0.00    -0.392 OA
ATOM     39  H   UNL     1       2.256  -8.364  -2.392  0.00  0.00    +0.210 HD
ENDBRANCH  37  38
ENDBRANCH  27  37
ENDBRANCH  24  25
ENDBRANCH   7  24
BRANCH  11  40
ATOM     40  O   UNL     1      -3.184  -1.321   0.023  0.00  0.00    -0.453 OA
BRANCH  40  41
ATOM     41  C   UNL     1      -2.485  -0.516  -0.949  0.00  0.00    +0.340 C 
ATOM     42  O   UNL     1      -2.320   0.840  -0.527  0.00  0.00    -0.330 OA
ATOM     43  C   UNL     1      -3.200   1.899  -0.925  0.00  0.00    +0.191 C 
ATOM     44  C   UNL     1      -4.066   1.681  -2.186  0.00  0.00    +0.178 C 
ATOM     45  C   UNL     1      -4.388   0.204  -2.423  0.00  0.00    +0.180 C 
ATOM     46  C   UNL     1      -3.100  -0.616  -2.342  0.00  0.00    +0.214 C 
BRANCH  46  47
ATOM     47  O   UNL     1      -2.152  -0.122  -3.316  0.00  0.00    -0.383 OA
ATOM     48  H   UNL     1      -1.507   0.452  -2.847  0.00  0.00    +0.210 HD
ENDBRANCH  46  47
BRANCH  45  49
ATOM     49  O   UNL     1      -5.405  -0.247  -1.532  0.00  0.00    -0.386 OA
ATOM     50  H   UNL     1      -5.043  -0.383  -0.637  0.00  0.00    +0.210 HD
ENDBRANCH  45  49
BRANCH  44  51
ATOM     51  O   UNL     1      -3.367   2.236  -3.320  0.00  0.00    -0.386 OA
ATOM     52  H   UNL     1      -2.973   1.500  -3.832  0.00  0.00    +0.210 HD
ENDBRANCH  44  51
BRANCH  43  53
ATOM     53  C   UNL     1      -4.031   2.413   0.265  0.00  0.00    +0.266 C 
BRANCH  53  54
ATOM     54  O   UNL     1      -4.664   3.677  -0.041  0.00  0.00    -0.462 OA
BRANCH  54  55
ATOM     55  C   UNL     1      -3.880   4.786   0.089  0.00  0.00    +0.318 C 
ATOM     56  O   UNL     1      -2.687   4.775   0.368  0.00  0.00    -0.250 OA
BRANCH  55  57
ATOM     57  C   UNL     1      -4.635   6.041  -0.242  0.00  0.00    +0.240 C 
BRANCH  57  58
ATOM     58  C   UNL     1      -5.717   6.355   0.740  0.00  0.00    +0.316 C 
ATOM     59  O   UNL     1      -5.989   5.711   1.731  0.00  0.00    -0.250 OA
BRANCH  58  60
ATOM     60  O   UNL     1      -6.396   7.492   0.416  0.00  0.00    -0.480 OA
ATOM     61  H   UNL     1      -6.081   7.942  -0.394  0.00  0.00    +0.295 HD
ENDBRANCH  58  60
ENDBRANCH  57  58
ENDBRANCH  55  57
ENDBRANCH  54  55
ENDBRANCH  53  54
ENDBRANCH  43  53
ENDBRANCH  40  41
ENDBRANCH  11  40
TORSDOF 22
