REMARK  Name = 
REMARK  16 active torsions:
REMARK  status: ('A' for Active; 'I' for Inactive)
REMARK    1  A    between atoms: C_2  and  O_51
REMARK    2  A    between atoms: C_4  and  O_50
REMARK    3  A    between atoms: C_6  and  O_33
REMARK    4  A    between atoms: C_8  and  O_11
REMARK    5  A    between atoms: O_11  and  C_12
REMARK    6  A    between atoms: C_13  and  C_25
REMARK    7  A    between atoms: C_17  and  O_24
REMARK    8  A    between atoms: C_19  and  O_23
REMARK    9  A    between atoms: C_27  and  O_32
REMARK   10  A    between atoms: C_28  and  O_31
REMARK   11  A    between atoms: O_33  and  C_34
REMARK   12  A    between atoms: C_36  and  O_49
REMARK   13  A    between atoms: C_38  and  O_48
REMARK   14  A    between atoms: C_40  and  O_47
REMARK   15  A    between atoms: C_42  and  C_45
REMARK   16  A    between atoms: C_45  and  O_46
REMARK                            x       y       z     vdW  Elec       q    Type
REMARK                         _______ _______ _______ _____ _____    ______ ____
ROOT
ATOM      1  C   UNL     1       1.071   1.944   0.651  0.00  0.00    +0.198 C 
ATOM      2  O   UNL     1       1.550   0.999   1.616  0.00  0.00    -0.337 OA
ATOM      3  C   UNL     1       1.205  -0.332   1.235  0.00  0.00    +0.340 C 
ATOM      4  C   UNL     1      -0.296  -0.510   0.843  0.00  0.00    +0.221 C 
ATOM      5  C   UNL     1      -1.143   0.765   0.662  0.00  0.00    +0.180 C 
ATOM      6  C   UNL     1      -0.425   2.105   0.842  0.00  0.00    +0.171 C 
ENDROOT
BRANCH   6   7
ATOM      7  O   UNL     1      -0.966   3.074  -0.056  0.00  0.00    -0.387 OA
ATOM      8  H   UNL     1      -0.889   3.945   0.377  0.00  0.00    +0.210 HD
ENDBRANCH   6   7
BRANCH   5   9
ATOM      9  O   UNL     1      -1.756   0.641  -0.646  0.00  0.00    -0.386 OA
ATOM     10  H   UNL     1      -1.368   1.344  -1.206  0.00  0.00    +0.210 HD
ENDBRANCH   5   9
BRANCH   4  11
ATOM     11  O   UNL     1      -0.966  -1.490   1.699  0.00  0.00    -0.337 OA
BRANCH  11  12
ATOM     12  C   UNL     1      -2.260  -1.887   1.249  0.00  0.00    +0.282 C 
ATOM     13  O   UNL     1      -2.999  -2.444   2.332  0.00  0.00    -0.341 OA
ATOM     14  C   UNL     1      -3.135  -3.853   2.472  0.00  0.00    +0.178 C 
ATOM     15  C   UNL     1      -3.057  -4.679   1.185  0.00  0.00    +0.177 C 
ATOM     16  C   UNL     1      -2.033  -4.178   0.172  0.00  0.00    +0.179 C 
ATOM     17  C   UNL     1      -2.210  -2.689  -0.068  0.00  0.00    +0.201 C 
BRANCH  15  18
ATOM     18  O   UNL     1      -2.845  -6.067   1.459  0.00  0.00    -0.386 OA
ATOM     19  H   UNL     1      -1.884  -6.143   1.648  0.00  0.00    +0.210 HD
ENDBRANCH  15  18
BRANCH  16  20
ATOM     20  O   UNL     1      -0.693  -4.524   0.537  0.00  0.00    -0.386 OA
ATOM     21  H   UNL     1      -0.289  -3.828   1.087  0.00  0.00    +0.210 HD
ENDBRANCH  16  20
BRANCH  17  22
ATOM     22  O   UNL     1      -3.400  -2.429  -0.824  0.00  0.00    -0.384 OA
ATOM     23  H   UNL     1      -3.377  -1.474  -1.040  0.00  0.00    +0.210 HD
ENDBRANCH  17  22
BRANCH  14  24
ATOM     24  C   UNL     1      -2.284  -4.365   3.657  0.00  0.00    +0.190 C 
BRANCH  24  25
ATOM     25  O   UNL     1      -0.914  -4.524   3.324  0.00  0.00    -0.392 OA
ATOM     26  H   UNL     1      -0.533  -3.621   3.272  0.00  0.00    +0.210 HD
ENDBRANCH  24  25
ENDBRANCH  14  24
ENDBRANCH  11  12
ENDBRANCH   4  11
BRANCH   3  27
ATOM     27  O   UNL     1       1.437  -1.391   2.174  0.00  0.00    -0.453 OA
BRANCH  27  28
ATOM     28  C   UNL     1       2.496  -1.499   3.015  0.00  0.00    +0.214 A 
ATOM     29  C   UNL     1       3.290  -2.782   2.875  0.00  0.00    +0.238 A 
ATOM     30  O   UNL     1       2.898  -3.655   2.114  0.00  0.00    -0.283 OA
ATOM     31  C   UNL     1       4.451  -2.957   3.759  0.00  0.00    +0.109 A 
ATOM     32  C   UNL     1       4.514  -2.149   4.889  0.00  0.00    +0.147 A 
ATOM     33  C   UNL     1       5.535  -2.311   5.832  0.00  0.00    +0.092 A 
ATOM     34  C   UNL     1       6.517  -3.268   5.609  0.00  0.00    +0.124 A 
ATOM     35  C   UNL     1       6.491  -4.065   4.471  0.00  0.00    +0.091 A 
ATOM     36  O   UNL     1       3.589  -1.175   5.154  0.00  0.00    -0.451 OA
ATOM     37  C   UNL     1       5.450  -3.917   3.549  0.00  0.00    +0.135 A 
ATOM     38  C   UNL     1       2.608  -0.869   4.217  0.00  0.00    +0.181 A 
BRANCH  38  39
ATOM     39  C   UNL     1       1.612   0.072   4.780  0.00  0.00    +0.025 A 
ATOM     40  C   UNL     1       0.229  -0.148   4.622  0.00  0.00    +0.015 A 
ATOM     41  C   UNL     1      -0.721   0.609   5.308  0.00  0.00    +0.050 A 
ATOM     42  C   UNL     1      -0.296   1.570   6.224  0.00  0.00    +0.158 A 
ATOM     43  C   UNL     1       1.057   1.808   6.391  0.00  0.00    +0.159 A 
ATOM     44  C   UNL     1       2.015   1.084   5.680  0.00  0.00    +0.060 A 
BRANCH  42  45
ATOM     45  O   UNL     1      -1.226   2.238   6.956  0.00  0.00    -0.503 OA
ATOM     46  H   UNL     1      -0.700   2.747   7.602  0.00  0.00    +0.292 HD
ENDBRANCH  42  45
BRANCH  43  47
ATOM     47  O   UNL     1       1.408   2.752   7.322  0.00  0.00    -0.503 OA
ATOM     48  H   UNL     1       2.368   2.872   7.298  0.00  0.00    +0.292 HD
ENDBRANCH  43  47
ENDBRANCH  38  39
BRANCH  34  49
ATOM     49  O   UNL     1       7.543  -3.459   6.485  0.00  0.00    -0.507 OA
ATOM     50  H   UNL     1       7.426  -2.873   7.251  0.00  0.00    +0.292 HD
ENDBRANCH  34  49
BRANCH  37  51
ATOM     51  O   UNL     1       5.451  -4.700   2.433  0.00  0.00    -0.506 OA
ATOM     52  H   UNL     1       6.083  -5.431   2.539  0.00  0.00    +0.292 HD
ENDBRANCH  37  51
ENDBRANCH  27  28
ENDBRANCH   3  27
TORSDOF 16
