REMARK  Name = 
REMARK  8 active torsions:
REMARK  status: ('A' for Active; 'I' for Inactive)
REMARK    1  A    between atoms: C_2  and  C_13
REMARK    2  A    between atoms: C_4  and  S_9
REMARK    3  A    between atoms: C_6  and  O_7
REMARK    4  A    between atoms: S_9  and  O_12
REMARK    5  A    between atoms: C_20  and  S_26
REMARK    6  A    between atoms: C_21  and  O_25
REMARK    7  A    between atoms: C_23  and  O_24
REMARK    8  A    between atoms: S_26  and  O_29
REMARK                            x       y       z     vdW  Elec       q    Type
REMARK                         _______ _______ _______ _____ _____    ______ ____
ROOT
ATOM      1  C   UNL     1       1.648   2.460   0.081  0.00  0.00    +0.132 A 
ATOM      2  O   UNL     1       1.034   3.626  -0.343  0.00  0.00    -0.453 OA
ATOM      3  C   UNL     1       1.661   4.825  -0.124  0.00  0.00    +0.174 A 
ATOM      4  C   UNL     1       0.907   6.008  -0.124  0.00  0.00    +0.201 A 
ATOM      5  C   UNL     1       1.544   7.251  -0.037  0.00  0.00    +0.151 A 
ATOM      6  C   UNL     1       2.933   7.316   0.005  0.00  0.00    +0.093 A 
ATOM      7  C   UNL     1       3.679   6.140   0.062  0.00  0.00    +0.135 A 
ATOM      8  C   UNL     1       3.041   4.890   0.034  0.00  0.00    +0.107 A 
ATOM      9  C   UNL     1       3.758   3.616   0.217  0.00  0.00    +0.189 A 
ATOM     10  O   UNL     1       4.982   3.557   0.099  0.00  0.00    -0.288 OA
ATOM     11  C   UNL     1       2.916   2.382   0.558  0.00  0.00    -0.015 A 
ATOM     12  O   UNL     1       3.527   1.440   1.150  0.00  0.00    -0.869 OA
ENDROOT
BRANCH   1  19
ATOM     13  C   UNL     1       1.291   0.001  -0.342  0.00  0.00    +0.056 A 
ATOM     14  C   UNL     1       0.463  -1.103  -0.494  0.00  0.00    +0.112 A 
ATOM     15  C   UNL     1      -0.938  -1.047  -0.484  0.00  0.00    -0.038 A 
ATOM     16  O   UNL     1      -1.633  -2.051  -0.862  0.00  0.00    -0.870 OA
ATOM     17  C   UNL     1      -1.451   0.233  -0.171  0.00  0.00    +0.113 A 
ATOM     18  C   UNL     1      -0.631   1.356   0.062  0.00  0.00    +0.040 A 
ATOM     19  C   UNL     1       0.760   1.261  -0.031  0.00  0.00    +0.022 A 
BRANCH  17  20
ATOM     20  S   UNL     1      -3.216   0.557  -0.281  0.00  0.00    +0.109 S 
ATOM     21  O   UNL     1      -3.394   1.096  -1.616  0.00  0.00    -0.142 OA
ATOM     22  O   UNL     1      -3.604   1.273   0.914  0.00  0.00    -0.142 OA
BRANCH  20  23
ATOM     23  O   UNL     1      -3.939  -0.894  -0.250  0.00  0.00    -0.250 OA
ATOM     24  H   UNL     1      -3.241  -1.596  -0.395  0.00  0.00    +0.245 HD
ENDBRANCH  20  23
ENDBRANCH  17  20
BRANCH  14  25
ATOM     25  O   UNL     1       1.038  -2.314  -0.785  0.00  0.00    -0.507 OA
ATOM     26  H   UNL     1       0.283  -2.939  -0.686  0.00  0.00    +0.292 HD
ENDBRANCH  14  25
ENDBRANCH   1  19
BRANCH   4  27
ATOM     27  S   UNL     1      -0.852   5.905  -0.085  0.00  0.00    +0.117 S 
ATOM     28  O   UNL     1      -1.303   5.458  -1.381  0.00  0.00    -0.142 OA
ATOM     29  O   UNL     1      -1.328   7.144   0.502  0.00  0.00    -0.142 OA
BRANCH  27  30
ATOM     30  O   UNL     1      -1.187   4.777   1.013  0.00  0.00    -0.250 OA
ATOM     31  H   UNL     1      -1.689   5.195   1.744  0.00  0.00    +0.245 HD
ENDBRANCH  27  30
ENDBRANCH   4  27
BRANCH   5  32
ATOM     32  O   UNL     1       0.912   8.463   0.026  0.00  0.00    -0.505 OA
ATOM     33  H   UNL     1      -0.036   8.358   0.259  0.00  0.00    +0.292 HD
ENDBRANCH   5  32
BRANCH   7  34
ATOM     34  O   UNL     1       5.036   6.242   0.170  0.00  0.00    -0.506 OA
ATOM     35  H   UNL     1       5.327   7.157   0.042  0.00  0.00    +0.292 HD
ENDBRANCH   7  34
TORSDOF 8
REMARK  Name = 
REMARK  8 active torsions:
REMARK  status: ('A' for Active; 'I' for Inactive)
REMARK    1  A    between atoms: C_2  and  C_13
REMARK    2  A    between atoms: C_4  and  S_9
REMARK    3  A    between atoms: C_6  and  O_7
REMARK    4  A    between atoms: S_9  and  O_12
REMARK    5  A    between atoms: C_20  and  S_26
REMARK    6  A    between atoms: C_21  and  O_25
REMARK    7  A    between atoms: C_23  and  O_24
REMARK    8  A    between atoms: S_26  and  O_29
REMARK                            x       y       z     vdW  Elec       q    Type
REMARK                         _______ _______ _______ _____ _____    ______ ____
ROOT
ATOM      1 NA   UNL     1       2.351   0.249   2.419  0.00  0.00    +0.000 Na
ENDROOT
TORSDOF 0
REMARK  Name = 
REMARK  8 active torsions:
REMARK  status: ('A' for Active; 'I' for Inactive)
REMARK    1  A    between atoms: C_2  and  C_13
REMARK    2  A    between atoms: C_4  and  S_9
REMARK    3  A    between atoms: C_6  and  O_7
REMARK    4  A    between atoms: S_9  and  O_12
REMARK    5  A    between atoms: C_20  and  S_26
REMARK    6  A    between atoms: C_21  and  O_25
REMARK    7  A    between atoms: C_23  and  O_24
REMARK    8  A    between atoms: S_26  and  O_29
REMARK                            x       y       z     vdW  Elec       q    Type
REMARK                         _______ _______ _______ _____ _____    ______ ____
ROOT
ATOM      1 NA   UNL     1      -0.959  -1.053  -2.943  0.00  0.00    +0.000 Na
ENDROOT
TORSDOF 0
