REMARK  Name = 
REMARK  24 active torsions:
REMARK  status: ('A' for Active; 'I' for Inactive)
REMARK    1  A    between atoms: C_3  and  O_71
REMARK    2  A    between atoms: C_4  and  O_70
REMARK    3  A    between atoms: C_6  and  C_7
REMARK    4  A    between atoms: C_8  and  O_37
REMARK    5  A    between atoms: C_12  and  O_36
REMARK    6  A    between atoms: C_14  and  O_18
REMARK    7  A    between atoms: O_18  and  C_19
REMARK    8  A    between atoms: C_21  and  O_35
REMARK    9  A    between atoms: C_23  and  O_34
REMARK   10  A    between atoms: C_25  and  O_33
REMARK   11  A    between atoms: C_27  and  C_30
REMARK   12  A    between atoms: C_30  and  O_32
REMARK   13  A    between atoms: O_37  and  C_38
REMARK   14  A    between atoms: C_40  and  O_53
REMARK   15  A    between atoms: C_42  and  O_52
REMARK   16  A    between atoms: C_44  and  O_51
REMARK   17  A    between atoms: C_46  and  C_49
REMARK   18  A    between atoms: C_49  and  O_50
REMARK   19  A    between atoms: O_53  and  C_54
REMARK   20  A    between atoms: C_56  and  O_69
REMARK   21  A    between atoms: C_58  and  O_68
REMARK   22  A    between atoms: C_60  and  O_67
REMARK   23  A    between atoms: C_62  and  C_65
REMARK   24  A    between atoms: C_65  and  O_66
REMARK                            x       y       z     vdW  Elec       q    Type
REMARK                         _______ _______ _______ _____ _____    ______ ____
ROOT
ATOM      1  C   UNL     1      -2.124  -2.176   0.767  0.00  0.00    +0.181 A 
ATOM      2  O   UNL     1      -1.375  -3.366   1.017  0.00  0.00    -0.451 OA
ATOM      3  C   UNL     1      -1.896  -4.596   0.589  0.00  0.00    +0.147 A 
ATOM      4  C   UNL     1      -3.204  -4.686   0.135  0.00  0.00    +0.109 A 
ATOM      5  C   UNL     1      -3.724  -5.892  -0.346  0.00  0.00    +0.135 A 
ATOM      6  C   UNL     1      -2.957  -7.047  -0.358  0.00  0.00    +0.092 A 
ATOM      7  C   UNL     1      -1.657  -7.047   0.154  0.00  0.00    +0.131 A 
ATOM      8  C   UNL     1      -4.057  -3.511   0.201  0.00  0.00    +0.238 A 
ATOM      9  O   UNL     1      -5.272  -3.690   0.206  0.00  0.00    -0.283 OA
ATOM     10  C   UNL     1      -1.126  -5.799   0.618  0.00  0.00    +0.093 A 
ATOM     11  C   UNL     1      -3.395  -2.185   0.290  0.00  0.00    +0.214 A 
ENDROOT
BRANCH   1  13
ATOM     12  C   UNL     1      -1.963   0.222   1.718  0.00  0.00    +0.015 A 
ATOM     13  C   UNL     1      -1.419  -0.846   0.951  0.00  0.00    +0.025 A 
ATOM     14  C   UNL     1      -0.259  -0.557   0.220  0.00  0.00    +0.060 A 
ATOM     15  C   UNL     1       0.276   0.745   0.200  0.00  0.00    +0.159 A 
ATOM     16  C   UNL     1      -0.323   1.795   0.891  0.00  0.00    +0.158 A 
ATOM     17  C   UNL     1      -1.432   1.538   1.679  0.00  0.00    +0.050 A 
BRANCH  16  18
ATOM     18  O   UNL     1       0.203   3.045   0.727  0.00  0.00    -0.503 OA
ATOM     19  H   UNL     1      -0.510   3.699   0.829  0.00  0.00    +0.292 HD
ENDBRANCH  16  18
BRANCH  15  20
ATOM     20  O   UNL     1       1.391   0.996  -0.545  0.00  0.00    -0.503 OA
ATOM     21  H   UNL     1       1.587   1.943  -0.384  0.00  0.00    +0.292 HD
ENDBRANCH  15  20
ENDBRANCH   1  13
BRANCH   5  22
ATOM     22  O   UNL     1      -4.999  -6.030  -0.834  0.00  0.00    -0.506 OA
ATOM     23  H   UNL     1      -5.501  -5.212  -0.630  0.00  0.00    +0.292 HD
ENDBRANCH   5  22
BRANCH  11  24
ATOM     24  O   UNL     1      -3.999  -1.025  -0.188  0.00  0.00    -0.453 OA
BRANCH  24  25
ATOM     25  C   UNL     1      -5.432  -0.903  -0.178  0.00  0.00    +0.340 C 
ATOM     26  O   UNL     1      -5.856  -0.286  -1.397  0.00  0.00    -0.331 OA
ATOM     27  C   UNL     1      -5.904   1.130  -1.504  0.00  0.00    +0.179 C 
ATOM     28  C   UNL     1      -6.553   1.763  -0.275  0.00  0.00    +0.177 C 
ATOM     29  C   UNL     1      -5.986   1.243   1.055  0.00  0.00    +0.180 C 
ATOM     30  C   UNL     1      -5.863  -0.280   1.190  0.00  0.00    +0.221 C 
BRANCH  29  31
ATOM     31  O   UNL     1      -4.709   1.833   1.333  0.00  0.00    -0.386 OA
ATOM     32  H   UNL     1      -4.124   1.687   0.553  0.00  0.00    +0.210 HD
ENDBRANCH  29  31
BRANCH  28  33
ATOM     33  O   UNL     1      -7.964   1.573  -0.417  0.00  0.00    -0.386 OA
ATOM     34  H   UNL     1      -8.358   1.087   0.334  0.00  0.00    +0.210 HD
ENDBRANCH  28  33
BRANCH  27  35
ATOM     35  C   UNL     1      -4.572   1.763  -1.931  0.00  0.00    +0.190 C 
BRANCH  35  36
ATOM     36  O   UNL     1      -3.537   1.553  -0.981  0.00  0.00    -0.392 OA
ATOM     37  H   UNL     1      -3.113   0.704  -1.226  0.00  0.00    +0.210 HD
ENDBRANCH  35  36
ENDBRANCH  27  35
BRANCH  30  38
ATOM     38  O   UNL     1      -7.033  -0.944   1.728  0.00  0.00    -0.337 OA
BRANCH  38  39
ATOM     39  C   UNL     1      -7.334  -0.744   3.124  0.00  0.00    +0.282 C 
ATOM     40  O   UNL     1      -7.870  -1.943   3.727  0.00  0.00    -0.341 OA
ATOM     41  C   UNL     1      -9.185  -2.384   3.305  0.00  0.00    +0.178 C 
ATOM     42  C   UNL     1     -10.233  -1.275   3.004  0.00  0.00    +0.177 C 
ATOM     43  C   UNL     1      -9.616   0.047   2.542  0.00  0.00    +0.179 C 
ATOM     44  C   UNL     1      -8.376   0.361   3.386  0.00  0.00    +0.201 C 
BRANCH  44  45
ATOM     45  O   UNL     1      -8.733   0.442   4.781  0.00  0.00    -0.384 OA
ATOM     46  H   UNL     1      -8.477  -0.405   5.200  0.00  0.00    +0.210 HD
ENDBRANCH  44  45
BRANCH  43  47
ATOM     47  O   UNL     1      -9.301   0.013   1.150  0.00  0.00    -0.386 OA
ATOM     48  H   UNL     1      -8.878  -0.858   0.954  0.00  0.00    +0.210 HD
ENDBRANCH  43  47
BRANCH  42  49
ATOM     49  O   UNL     1     -11.006  -1.040   4.199  0.00  0.00    -0.386 OA
ATOM     50  H   UNL     1     -10.627  -0.266   4.664  0.00  0.00    +0.210 HD
ENDBRANCH  42  49
BRANCH  41  51
ATOM     51  C   UNL     1      -9.045  -3.417   2.180  0.00  0.00    +0.190 C 
BRANCH  51  52
ATOM     52  O   UNL     1      -8.513  -2.844   0.995  0.00  0.00    -0.392 OA
ATOM     53  H   UNL     1      -7.558  -2.708   1.177  0.00  0.00    +0.210 HD
ENDBRANCH  51  52
ENDBRANCH  41  51
ENDBRANCH  38  39
ENDBRANCH  30  38
ENDBRANCH  24  25
ENDBRANCH  11  24
BRANCH   7  54
ATOM     54  O   UNL     1      -0.881  -8.212   0.224  0.00  0.00    -0.461 OA
BRANCH  54  55
ATOM     55  C   UNL     1      -1.568  -9.465  -0.090  0.00  0.00    +0.340 C 
ATOM     56  O   UNL     1      -2.659  -9.718   0.803  0.00  0.00    -0.322 OA
ATOM     57  C   UNL     1      -2.361 -10.452   1.981  0.00  0.00    +0.261 C 
ATOM     58  C   UNL     1      -1.913 -11.868   1.603  0.00  0.00    +0.185 C 
ATOM     59  C   UNL     1      -0.620 -11.802   0.778  0.00  0.00    +0.180 C 
ATOM     60  C   UNL     1      -0.707 -10.759  -0.362  0.00  0.00    +0.214 C 
BRANCH  60  61
ATOM     61  O   UNL     1      -1.358 -11.485  -1.450  0.00  0.00    -0.383 OA
ATOM     62  H   UNL     1      -2.251 -11.734  -1.129  0.00  0.00    +0.210 HD
ENDBRANCH  60  61
BRANCH  59  63
ATOM     63  O   UNL     1       0.520 -11.642   1.616  0.00  0.00    -0.386 OA
ATOM     64  H   UNL     1       0.678 -10.691   1.789  0.00  0.00    +0.210 HD
ENDBRANCH  59  63
BRANCH  58  65
ATOM     65  O   UNL     1      -2.953 -12.494   0.826  0.00  0.00    -0.386 OA
ATOM     66  H   UNL     1      -2.705 -13.428   0.689  0.00  0.00    +0.210 HD
ENDBRANCH  58  65
BRANCH  57  67
ATOM     67  C   UNL     1      -1.346  -9.873   2.985  0.00  0.00    +0.337 C 
ATOM     68  O   UNL     1      -0.309  -9.305   2.668  0.00  0.00    -0.248 OA
BRANCH  67  69
ATOM     69  O   UNL     1      -1.626 -10.152   4.279  0.00  0.00    -0.479 OA
ATOM     70  H   UNL     1      -2.450 -10.650   4.436  0.00  0.00    +0.295 HD
ENDBRANCH  67  69
ENDBRANCH  57  67
ENDBRANCH  54  55
ENDBRANCH   7  54
TORSDOF 24
