REMARK  Name = 
REMARK  23 active torsions:
REMARK  status: ('A' for Active; 'I' for Inactive)
REMARK    1  A    between atoms: C_1  and  C_2
REMARK    2  A    between atoms: C_4  and  O_69
REMARK    3  A    between atoms: C_6  and  O_68
REMARK    4  A    between atoms: C_8  and  O_67
REMARK    5  A    between atoms: C_10  and  O_13
REMARK    6  A    between atoms: O_13  and  C_14
REMARK    7  A    between atoms: C_14  and  C_15
REMARK    8  A    between atoms: C_17  and  O_66
REMARK    9  A    between atoms: C_19  and  O_65
REMARK   10  A    between atoms: C_21  and  O_64
REMARK   11  A    between atoms: C_23  and  O_26
REMARK   12  A    between atoms: O_26  and  C_27
REMARK   13  A    between atoms: C_28  and  C_56
REMARK   14  A    between atoms: C_32  and  O_39
REMARK   15  A    between atoms: C_34  and  O_38
REMARK   16  A    between atoms: O_39  and  C_40
REMARK   17  A    between atoms: C_42  and  O_55
REMARK   18  A    between atoms: C_44  and  O_54
REMARK   19  A    between atoms: C_46  and  O_53
REMARK   20  A    between atoms: C_48  and  C_51
REMARK   21  A    between atoms: C_51  and  O_52
REMARK   22  A    between atoms: C_58  and  O_63
REMARK   23  A    between atoms: C_59  and  O_62
REMARK                            x       y       z     vdW  Elec       q    Type
REMARK                         _______ _______ _______ _____ _____    ______ ____
ROOT
ATOM      1  C   UNL     1       4.001   6.986  -0.864  0.00  0.00    +0.214 A 
ATOM      2  C   UNL     1       4.631   8.171  -0.132  0.00  0.00    +0.238 A 
ATOM      3  O   UNL     1       4.508   9.347  -0.457  0.00  0.00    -0.283 OA
ATOM      4  C   UNL     1       5.419   7.908   1.071  0.00  0.00    +0.109 A 
ATOM      5  C   UNL     1       5.226   6.694   1.681  0.00  0.00    +0.147 A 
ATOM      6  C   UNL     1       5.862   6.404   2.887  0.00  0.00    +0.093 A 
ATOM      7  C   UNL     1       6.771   7.313   3.441  0.00  0.00    +0.131 A 
ATOM      8  C   UNL     1       6.957   8.556   2.840  0.00  0.00    +0.092 A 
ATOM      9  O   UNL     1       4.440   5.721   1.145  0.00  0.00    -0.451 OA
ATOM     10  C   UNL     1       6.283   8.848   1.652  0.00  0.00    +0.135 A 
ATOM     11  C   UNL     1       3.996   5.810  -0.180  0.00  0.00    +0.181 A 
ENDROOT
BRANCH  11  12
ATOM     12  C   UNL     1       3.470   4.451  -0.603  0.00  0.00    +0.025 A 
ATOM     13  C   UNL     1       3.471   3.399   0.357  0.00  0.00    +0.015 A 
ATOM     14  C   UNL     1       2.937   2.131   0.105  0.00  0.00    +0.050 A 
ATOM     15  C   UNL     1       2.401   1.876  -1.135  0.00  0.00    +0.158 A 
ATOM     16  C   UNL     1       2.466   2.842  -2.137  0.00  0.00    +0.159 A 
ATOM     17  C   UNL     1       2.989   4.122  -1.883  0.00  0.00    +0.060 A 
BRANCH  16  18
ATOM     18  O   UNL     1       2.005   2.481  -3.375  0.00  0.00    -0.503 OA
ATOM     19  H   UNL     1       2.418   3.076  -4.026  0.00  0.00    +0.292 HD
ENDBRANCH  16  18
BRANCH  15  20
ATOM     20  O   UNL     1       1.815   0.667  -1.372  0.00  0.00    -0.503 OA
ATOM     21  H   UNL     1       1.424   0.754  -2.264  0.00  0.00    +0.292 HD
ENDBRANCH  15  20
ENDBRANCH  11  12
BRANCH  10  22
ATOM     22  O   UNL     1       6.551  10.043   1.043  0.00  0.00    -0.506 OA
ATOM     23  H   UNL     1       6.395  10.756   1.686  0.00  0.00    +0.292 HD
ENDBRANCH  10  22
BRANCH   7  24
ATOM     24  O   UNL     1       7.535   7.024   4.552  0.00  0.00    -0.461 OA
BRANCH  24  25
ATOM     25  C   UNL     1       8.082   5.690   4.501  0.00  0.00    +0.339 C 
ATOM     26  O   UNL     1       7.207   4.726   5.093  0.00  0.00    -0.331 OA
ATOM     27  C   UNL     1       7.195   4.631   6.521  0.00  0.00    +0.179 C 
ATOM     28  C   UNL     1       8.604   4.460   7.116  0.00  0.00    +0.177 C 
ATOM     29  C   UNL     1       9.630   5.460   6.563  0.00  0.00    +0.180 C 
ATOM     30  C   UNL     1       9.527   5.595   5.037  0.00  0.00    +0.214 C 
BRANCH  29  31
ATOM     31  O   UNL     1       9.602   6.722   7.224  0.00  0.00    -0.386 OA
ATOM     32  H   UNL     1       8.685   6.924   7.506  0.00  0.00    +0.210 HD
ENDBRANCH  29  31
BRANCH  30  33
ATOM     33  O   UNL     1      10.136   4.420   4.452  0.00  0.00    -0.383 OA
ATOM     34  H   UNL     1       9.623   3.649   4.778  0.00  0.00    +0.210 HD
ENDBRANCH  30  33
BRANCH  28  35
ATOM     35  O   UNL     1       9.046   3.130   6.776  0.00  0.00    -0.386 OA
ATOM     36  H   UNL     1       9.817   2.931   7.340  0.00  0.00    +0.210 HD
ENDBRANCH  28  35
BRANCH  27  37
ATOM     37  C   UNL     1       6.362   5.734   7.189  0.00  0.00    +0.190 C 
BRANCH  37  38
ATOM     38  O   UNL     1       7.030   6.990   7.207  0.00  0.00    -0.392 OA
ATOM     39  H   UNL     1       6.911   7.375   6.314  0.00  0.00    +0.210 HD
ENDBRANCH  37  38
ENDBRANCH  27  37
ENDBRANCH  24  25
ENDBRANCH   7  24
BRANCH   1  40
ATOM     40  O   UNL     1       3.451   7.134  -2.158  0.00  0.00    -0.453 OA
BRANCH  40  43
ATOM     41  C   UNL     1       1.977  10.402  -1.685  0.00  0.00    +0.179 C 
ATOM     42  O   UNL     1       2.111   8.976  -1.622  0.00  0.00    -0.331 OA
ATOM     43  C   UNL     1       3.123   8.495  -2.509  0.00  0.00    +0.340 C 
ATOM     44  C   UNL     1       2.666   8.727  -3.968  0.00  0.00    +0.214 C 
ATOM     45  C   UNL     1       2.380  10.247  -4.119  0.00  0.00    +0.180 C 
ATOM     46  C   UNL     1       1.405  10.773  -3.052  0.00  0.00    +0.177 C 
BRANCH  46  47
ATOM     47  O   UNL     1       1.280  12.190  -3.218  0.00  0.00    -0.386 OA
ATOM     48  H   UNL     1       0.502  12.460  -2.694  0.00  0.00    +0.210 HD
ENDBRANCH  46  47
BRANCH  45  49
ATOM     49  O   UNL     1       1.878  10.545  -5.430  0.00  0.00    -0.386 OA
ATOM     50  H   UNL     1       1.580  11.478  -5.375  0.00  0.00    +0.210 HD
ENDBRANCH  45  49
BRANCH  44  51
ATOM     51  O   UNL     1       3.710   8.350  -4.886  0.00  0.00    -0.383 OA
ATOM     52  H   UNL     1       3.758   9.054  -5.562  0.00  0.00    +0.210 HD
ENDBRANCH  44  51
BRANCH  41  53
ATOM     53  C   UNL     1       1.112  10.851  -0.508  0.00  0.00    +0.197 C 
BRANCH  53  54
ATOM     54  O   UNL     1      -0.209  10.347  -0.678  0.00  0.00    -0.346 OA
BRANCH  54  58
ATOM     55  C   UNL     1      -1.510  11.760   3.229  0.00  0.00    +0.041 C 
ATOM     56  C   UNL     1      -1.384  10.308   2.779  0.00  0.00    +0.149 C 
ATOM     57  O   UNL     1      -0.543  10.165   1.629  0.00  0.00    -0.343 OA
ATOM     58  C   UNL     1      -1.078  10.674   0.410  0.00  0.00    +0.282 C 
ATOM     59  C   UNL     1      -2.455  10.069   0.057  0.00  0.00    +0.201 C 
ATOM     60  C   UNL     1      -3.407  10.054   1.259  0.00  0.00    +0.179 C 
ATOM     61  C   UNL     1      -2.704   9.566   2.537  0.00  0.00    +0.174 C 
BRANCH  61  62
ATOM     62  O   UNL     1      -2.417   8.171   2.395  0.00  0.00    -0.387 OA
ATOM     63  H   UNL     1      -1.544   8.084   1.972  0.00  0.00    +0.210 HD
ENDBRANCH  61  62
BRANCH  60  64
ATOM     64  O   UNL     1      -4.022  11.339   1.440  0.00  0.00    -0.386 OA
ATOM     65  H   UNL     1      -3.435  12.033   1.091  0.00  0.00    +0.210 HD
ENDBRANCH  60  64
BRANCH  59  66
ATOM     66  O   UNL     1      -3.046  10.819  -1.024  0.00  0.00    -0.384 OA
ATOM     67  H   UNL     1      -3.977  10.993  -0.790  0.00  0.00    +0.210 HD
ENDBRANCH  59  66
ENDBRANCH  54  58
ENDBRANCH  53  54
ENDBRANCH  41  53
ENDBRANCH  40  43
ENDBRANCH   1  40
TORSDOF 22
