REMARK  Name = 
REMARK  17 active torsions:
REMARK  status: ('A' for Active; 'I' for Inactive)
REMARK    1  A    between atoms: C_1  and  C_2
REMARK    2  A    between atoms: C_4  and  O_53
REMARK    3  A    between atoms: C_6  and  O_52
REMARK    4  A    between atoms: C_8  and  O_51
REMARK    5  A    between atoms: C_10  and  O_13
REMARK    6  A    between atoms: O_13  and  C_14
REMARK    7  A    between atoms: C_15  and  C_27
REMARK    8  A    between atoms: C_19  and  O_26
REMARK    9  A    between atoms: C_21  and  O_25
REMARK   10  A    between atoms: C_29  and  O_34
REMARK   11  A    between atoms: C_30  and  O_33
REMARK   12  A    between atoms: O_34  and  C_35
REMARK   13  A    between atoms: C_37  and  O_50
REMARK   14  A    between atoms: C_39  and  O_49
REMARK   15  A    between atoms: C_41  and  O_48
REMARK   16  A    between atoms: C_43  and  C_46
REMARK   17  A    between atoms: C_46  and  O_47
REMARK                            x       y       z     vdW  Elec       q    Type
REMARK                         _______ _______ _______ _____ _____    ______ ____
ROOT
ATOM      1  C   UNL     1       2.676   2.856  -2.979  0.00  0.00    +0.237 C 
ATOM      2  C   UNL     1       1.859   3.158  -1.719  0.00  0.00    +0.203 C 
ATOM      3  O   UNL     1       1.064   2.342  -1.249  0.00  0.00    -0.289 OA
ATOM      4  C   UNL     1       1.952   4.517  -1.145  0.00  0.00    +0.103 A 
ATOM      5  C   UNL     1       2.498   5.517  -1.946  0.00  0.00    +0.139 A 
ATOM      6  C   UNL     1       2.368   6.855  -1.566  0.00  0.00    +0.092 A 
ATOM      7  C   UNL     1       1.743   7.169  -0.362  0.00  0.00    +0.124 A 
ATOM      8  C   UNL     1       1.286   6.172   0.491  0.00  0.00    +0.091 A 
ATOM      9  O   UNL     1       3.117   5.279  -3.141  0.00  0.00    -0.480 OA
ATOM     10  C   UNL     1       1.396   4.841   0.098  0.00  0.00    +0.134 A 
ATOM     11  C   UNL     1       3.706   3.967  -3.234  0.00  0.00    +0.240 C 
ENDROOT
BRANCH  11  12
ATOM     12  C   UNL     1       4.313   3.825  -4.638  0.00  0.00    -0.001 A 
ATOM     13  C   UNL     1       3.713   4.437  -5.754  0.00  0.00    +0.011 A 
ATOM     14  C   UNL     1       4.286   4.325  -7.020  0.00  0.00    +0.049 A 
ATOM     15  C   UNL     1       5.466   3.613  -7.172  0.00  0.00    +0.159 A 
ATOM     16  C   UNL     1       6.069   2.951  -6.097  0.00  0.00    +0.166 A 
ATOM     17  C   UNL     1       5.475   3.045  -4.835  0.00  0.00    +0.057 A 
BRANCH  15  18
ATOM     18  O   UNL     1       6.038   3.584  -8.416  0.00  0.00    -0.503 OA
ATOM     19  H   UNL     1       6.971   3.328  -8.276  0.00  0.00    +0.292 HD
ENDBRANCH  15  18
BRANCH  16  20
ATOM     20  O   UNL     1       7.212   2.273  -6.428  0.00  0.00    -0.457 OA
BRANCH  20  21
ATOM     21  C   UNL     1       7.862   1.461  -5.451  0.00  0.00    +0.339 C 
ATOM     22  O   UNL     1       9.285   1.458  -5.658  0.00  0.00    -0.331 OA
ATOM     23  C   UNL     1       9.777   0.780  -6.827  0.00  0.00    +0.179 C 
ATOM     24  C   UNL     1       9.232  -0.656  -6.939  0.00  0.00    +0.177 C 
ATOM     25  C   UNL     1       7.706  -0.702  -6.766  0.00  0.00    +0.180 C 
ATOM     26  C   UNL     1       7.289   0.028  -5.475  0.00  0.00    +0.214 C 
BRANCH  26  27
ATOM     27  O   UNL     1       7.743  -0.709  -4.329  0.00  0.00    -0.383 OA
ATOM     28  H   UNL     1       8.722  -0.754  -4.392  0.00  0.00    +0.210 HD
ENDBRANCH  26  27
BRANCH  25  29
ATOM     29  O   UNL     1       7.066  -0.204  -7.941  0.00  0.00    -0.386 OA
ATOM     30  H   UNL     1       6.619   0.641  -7.741  0.00  0.00    +0.210 HD
ENDBRANCH  25  29
BRANCH  24  31
ATOM     31  O   UNL     1       9.845  -1.442  -5.900  0.00  0.00    -0.386 OA
ATOM     32  H   UNL     1       9.549  -2.364  -6.020  0.00  0.00    +0.210 HD
ENDBRANCH  24  31
BRANCH  23  33
ATOM     33  C   UNL     1       9.600   1.599  -8.119  0.00  0.00    +0.190 C 
BRANCH  33  34
ATOM     34  O   UNL     1      10.133   2.917  -7.995  0.00  0.00    -0.392 OA
ATOM     35  H   UNL     1      10.993   2.852  -7.543  0.00  0.00    +0.210 HD
ENDBRANCH  33  34
ENDBRANCH  23  33
ENDBRANCH  20  21
ENDBRANCH  16  20
ENDBRANCH  11  12
BRANCH  10  36
ATOM     36  O   UNL     1       0.965   3.863   0.946  0.00  0.00    -0.506 OA
ATOM     37  H   UNL     1       0.516   4.257   1.710  0.00  0.00    +0.292 HD
ENDBRANCH  10  36
BRANCH   7  38
ATOM     38  O   UNL     1       1.548   8.461   0.026  0.00  0.00    -0.507 OA
ATOM     39  H   UNL     1       1.775   9.051  -0.713  0.00  0.00    +0.292 HD
ENDBRANCH   7  38
BRANCH   1  40
ATOM     40  O   UNL     1       3.359   1.601  -2.933  0.00  0.00    -0.333 OA
BRANCH  40  44
ATOM     41  C   UNL     1       2.437  -2.102  -0.949  0.00  0.00    +0.041 C 
ATOM     42  C   UNL     1       2.874  -1.947  -2.403  0.00  0.00    +0.149 C 
ATOM     43  O   UNL     1       3.468  -0.670  -2.678  0.00  0.00    -0.343 OA
ATOM     44  C   UNL     1       2.558   0.442  -2.679  0.00  0.00    +0.283 C 
ATOM     45  C   UNL     1       1.431   0.240  -3.733  0.00  0.00    +0.201 C 
ATOM     46  C   UNL     1       0.750  -1.121  -3.546  0.00  0.00    +0.179 C 
ATOM     47  C   UNL     1       1.791  -2.241  -3.452  0.00  0.00    +0.174 C 
BRANCH  47  48
ATOM     48  O   UNL     1       2.439  -2.371  -4.732  0.00  0.00    -0.387 OA
ATOM     49  H   UNL     1       3.225  -1.795  -4.724  0.00  0.00    +0.210 HD
ENDBRANCH  47  48
BRANCH  46  50
ATOM     50  O   UNL     1      -0.136  -1.130  -2.415  0.00  0.00    -0.386 OA
ATOM     51  H   UNL     1       0.197  -0.551  -1.709  0.00  0.00    +0.210 HD
ENDBRANCH  46  50
BRANCH  45  52
ATOM     52  O   UNL     1       0.418   1.257  -3.730  0.00  0.00    -0.384 OA
ATOM     53  H   UNL     1      -0.073   1.196  -2.887  0.00  0.00    +0.210 HD
ENDBRANCH  45  52
ENDBRANCH  40  44
ENDBRANCH   1  40
TORSDOF 16
