REMARK  Name = 
REMARK  27 active torsions:
REMARK  status: ('A' for Active; 'I' for Inactive)
REMARK    1  A    between atoms: C_1  and  C_2
REMARK    2  A    between atoms: C_4  and  O_80
REMARK    3  A    between atoms: C_6  and  O_79
REMARK    4  A    between atoms: C_8  and  O_51
REMARK    5  A    between atoms: C_10  and  O_13
REMARK    6  A    between atoms: O_13  and  C_14
REMARK    7  A    between atoms: C_15  and  C_43
REMARK    8  A    between atoms: C_19  and  O_26
REMARK    9  A    between atoms: C_21  and  O_25
REMARK   10  A    between atoms: O_26  and  C_27
REMARK   11  A    between atoms: C_29  and  O_42
REMARK   12  A    between atoms: C_31  and  O_41
REMARK   13  A    between atoms: C_33  and  O_40
REMARK   14  A    between atoms: C_35  and  C_38
REMARK   15  A    between atoms: C_38  and  O_39
REMARK   16  A    between atoms: C_45  and  O_50
REMARK   17  A    between atoms: C_46  and  O_49
REMARK   18  A    between atoms: O_51  and  C_52
REMARK   19  A    between atoms: C_54  and  O_78
REMARK   20  A    between atoms: C_56  and  O_77
REMARK   21  A    between atoms: C_58  and  O_76
REMARK   22  A    between atoms: C_60  and  C_63
REMARK   23  A    between atoms: C_63  and  O_64
REMARK   24  A    between atoms: O_64  and  C_65
REMARK   25  A    between atoms: C_65  and  C_67
REMARK   26  A    between atoms: C_68  and  C_69
REMARK   27  A    between atoms: C_72  and  O_75
REMARK                            x       y       z     vdW  Elec       q    Type
REMARK                         _______ _______ _______ _____ _____    ______ ____
ROOT
ATOM      1  O   UNL     1       2.952   1.549  -3.414  0.00  0.00    -0.453 OA
ENDROOT
BRANCH   1   2
ATOM      2  C   UNL     1       1.995   2.175  -4.200  0.00  0.00    +0.214 A 
ATOM      3  C   UNL     1       0.667   2.580  -3.633  0.00  0.00    +0.238 A 
ATOM      4  O   UNL     1       0.446   2.549  -2.429  0.00  0.00    -0.283 OA
ATOM      5  C   UNL     1      -0.364   3.025  -4.578  0.00  0.00    +0.109 A 
ATOM      6  C   UNL     1       0.021   3.249  -5.895  0.00  0.00    +0.147 A 
ATOM      7  C   UNL     1      -0.910   3.719  -6.822  0.00  0.00    +0.093 A 
ATOM      8  C   UNL     1      -2.233   3.956  -6.433  0.00  0.00    +0.131 A 
ATOM      9  C   UNL     1      -2.621   3.735  -5.114  0.00  0.00    +0.092 A 
ATOM     10  O   UNL     1       1.301   3.048  -6.349  0.00  0.00    -0.451 OA
ATOM     11  C   UNL     1      -1.694   3.255  -4.193  0.00  0.00    +0.135 A 
ATOM     12  C   UNL     1       2.230   2.473  -5.494  0.00  0.00    +0.181 A 
BRANCH  12  13
ATOM     13  C   UNL     1       3.526   2.217  -6.166  0.00  0.00    +0.025 A 
ATOM     14  C   UNL     1       3.725   1.033  -6.893  0.00  0.00    +0.015 A 
ATOM     15  C   UNL     1       4.906   0.812  -7.619  0.00  0.00    +0.050 A 
ATOM     16  C   UNL     1       5.891   1.785  -7.626  0.00  0.00    +0.158 A 
ATOM     17  C   UNL     1       5.720   2.961  -6.900  0.00  0.00    +0.159 A 
ATOM     18  C   UNL     1       4.551   3.184  -6.162  0.00  0.00    +0.060 A 
BRANCH  17  19
ATOM     19  O   UNL     1       6.735   3.879  -6.953  0.00  0.00    -0.503 OA
ATOM     20  H   UNL     1       6.501   4.633  -6.387  0.00  0.00    +0.292 HD
ENDBRANCH  17  19
BRANCH  16  21
ATOM     21  O   UNL     1       7.023   1.591  -8.365  0.00  0.00    -0.503 OA
ATOM     22  H   UNL     1       7.548   2.407  -8.236  0.00  0.00    +0.292 HD
ENDBRANCH  16  21
ENDBRANCH  12  13
BRANCH  11  23
ATOM     23  O   UNL     1      -2.109   3.002  -2.917  0.00  0.00    -0.506 OA
ATOM     24  H   UNL     1      -3.065   3.145  -2.826  0.00  0.00    +0.292 HD
ENDBRANCH  11  23
BRANCH   8  25
ATOM     25  O   UNL     1      -3.216   4.444  -7.259  0.00  0.00    -0.461 OA
BRANCH  25  26
ATOM     26  C   UNL     1      -3.152   3.948  -8.602  0.00  0.00    +0.339 C 
ATOM     27  O   UNL     1      -2.257   4.719  -9.407  0.00  0.00    -0.331 OA
ATOM     28  C   UNL     1      -2.747   5.947  -9.958  0.00  0.00    +0.179 C 
ATOM     29  C   UNL     1      -4.069   5.736 -10.712  0.00  0.00    +0.177 C 
ATOM     30  C   UNL     1      -5.138   5.035  -9.863  0.00  0.00    +0.180 C 
ATOM     31  C   UNL     1      -4.567   3.771  -9.205  0.00  0.00    +0.214 C 
BRANCH  31  32
ATOM     32  O   UNL     1      -4.499   2.741 -10.218  0.00  0.00    -0.383 OA
ATOM     33  H   UNL     1      -3.868   3.065 -10.897  0.00  0.00    +0.210 HD
ENDBRANCH  31  32
BRANCH  30  34
ATOM     34  O   UNL     1      -5.790   5.902  -8.942  0.00  0.00    -0.386 OA
ATOM     35  H   UNL     1      -5.119   6.387  -8.415  0.00  0.00    +0.210 HD
ENDBRANCH  30  34
BRANCH  29  36
ATOM     36  O   UNL     1      -3.770   4.888 -11.845  0.00  0.00    -0.386 OA
ATOM     37  H   UNL     1      -4.581   4.819 -12.382  0.00  0.00    +0.210 HD
ENDBRANCH  29  36
BRANCH  28  38
ATOM     38  C   UNL     1      -2.745   7.110  -8.952  0.00  0.00    +0.190 C 
BRANCH  38  39
ATOM     39  O   UNL     1      -3.701   6.957  -7.909  0.00  0.00    -0.392 OA
ATOM     40  H   UNL     1      -3.299   6.349  -7.254  0.00  0.00    +0.210 HD
ENDBRANCH  38  39
ENDBRANCH  28  38
ENDBRANCH  25  26
ENDBRANCH   8  25
ENDBRANCH   1   2
BRANCH   1  44
ATOM     41  C   UNL     1       0.985   0.482   0.302  0.00  0.00    +0.041 C 
ATOM     42  C   UNL     1       2.506   0.525   0.080  0.00  0.00    +0.150 C 
ATOM     43  O   UNL     1       2.895   1.270  -1.089  0.00  0.00    -0.334 OA
ATOM     44  C   UNL     1       2.460   0.719  -2.344  0.00  0.00    +0.340 C 
ATOM     45  C   UNL     1       2.996  -0.707  -2.567  0.00  0.00    +0.221 C 
ATOM     46  C   UNL     1       2.793  -1.542  -1.270  0.00  0.00    +0.180 C 
ATOM     47  C   UNL     1       3.177  -0.849   0.022  0.00  0.00    +0.174 C 
BRANCH  47  48
ATOM     48  O   UNL     1       4.602  -0.751   0.114  0.00  0.00    -0.387 OA
ATOM     49  H   UNL     1       4.866   0.037  -0.409  0.00  0.00    +0.210 HD
ENDBRANCH  47  48
BRANCH  46  50
ATOM     50  O   UNL     1       1.458  -1.974  -1.001  0.00  0.00    -0.386 OA
ATOM     51  H   UNL     1       0.894  -1.879  -1.782  0.00  0.00    +0.210 HD
ENDBRANCH  46  50
BRANCH  45  52
ATOM     52  O   UNL     1       2.590  -1.362  -3.826  0.00  0.00    -0.337 OA
BRANCH  52  53
ATOM     53  C   UNL     1       1.193  -1.475  -4.099  0.00  0.00    +0.282 C 
ATOM     54  O   UNL     1       0.569  -2.369  -3.188  0.00  0.00    -0.339 OA
ATOM     55  C   UNL     1       0.882  -3.776  -3.323  0.00  0.00    +0.190 C 
ATOM     56  C   UNL     1       0.489  -4.273  -4.707  0.00  0.00    +0.178 C 
ATOM     57  C   UNL     1       1.103  -3.389  -5.806  0.00  0.00    +0.179 C 
ATOM     58  C   UNL     1       0.818  -1.898  -5.542  0.00  0.00    +0.201 C 
BRANCH  58  59
ATOM     59  O   UNL     1      -0.591  -1.650  -5.729  0.00  0.00    -0.384 OA
ATOM     60  H   UNL     1      -1.060  -2.240  -5.093  0.00  0.00    +0.210 HD
ENDBRANCH  58  59
BRANCH  57  61
ATOM     61  O   UNL     1       2.496  -3.650  -5.964  0.00  0.00    -0.386 OA
ATOM     62  H   UNL     1       3.009  -2.953  -5.512  0.00  0.00    +0.210 HD
ENDBRANCH  57  61
BRANCH  56  63
ATOM     63  O   UNL     1      -0.947  -4.184  -4.784  0.00  0.00    -0.386 OA
ATOM     64  H   UNL     1      -1.233  -4.755  -5.512  0.00  0.00    +0.210 HD
ENDBRANCH  56  63
BRANCH  55  65
ATOM     65  C   UNL     1       2.306  -4.169  -2.939  0.00  0.00    +0.266 C 
BRANCH  65  66
ATOM     66  O   UNL     1       2.509  -5.575  -2.855  0.00  0.00    -0.459 OA
BRANCH  66  67
ATOM     67  C   UNL     1       2.287  -6.045  -1.598  0.00  0.00    +0.332 C 
ATOM     68  O   UNL     1       1.804  -5.446  -0.653  0.00  0.00    -0.246 OA
BRANCH  67  69
ATOM     69  C   UNL     1       2.750  -7.426  -1.563  0.00  0.00    +0.092 C 
ATOM     70  C   UNL     1       2.495  -8.147  -0.465  0.00  0.00    +0.015 C 
BRANCH  70  71
ATOM     71  C   UNL     1       2.885  -9.544  -0.359  0.00  0.00    -0.025 A 
ATOM     72  C   UNL     1       2.925 -10.378  -1.482  0.00  0.00    +0.011 A 
ATOM     73  C   UNL     1       3.315 -11.704  -1.350  0.00  0.00    +0.046 A 
ATOM     74  C   UNL     1       3.638 -12.206  -0.096  0.00  0.00    +0.117 A 
ATOM     75  C   UNL     1       3.558 -11.408   1.039  0.00  0.00    +0.046 A 
ATOM     76  C   UNL     1       3.172 -10.077   0.906  0.00  0.00    +0.011 A 
BRANCH  74  77
ATOM     77  O   UNL     1       4.040 -13.505  -0.023  0.00  0.00    -0.507 OA
ATOM     78  H   UNL     1       4.353 -13.674   0.881  0.00  0.00    +0.292 HD
ENDBRANCH  74  77
ENDBRANCH  70  71
ENDBRANCH  67  69
ENDBRANCH  66  67
ENDBRANCH  65  66
ENDBRANCH  55  65
ENDBRANCH  52  53
ENDBRANCH  45  52
ENDBRANCH   1  44
TORSDOF 26
