REMARK  Name = 
REMARK  11 active torsions:
REMARK  status: ('A' for Active; 'I' for Inactive)
REMARK    1  A    between atoms: C_1  and  C_2
REMARK    2  A    between atoms: C_4  and  O_37
REMARK    3  A    between atoms: C_6  and  O_36
REMARK    4  A    between atoms: C_8  and  O_35
REMARK    5  A    between atoms: C_10  and  O_13
REMARK    6  A    between atoms: O_13  and  C_14
REMARK    7  A    between atoms: C_16  and  O_34
REMARK    8  A    between atoms: C_22  and  O_33
REMARK    9  A    between atoms: C_23  and  C_25
REMARK   10  A    between atoms: C_27  and  O_32
REMARK   11  A    between atoms: C_28  and  O_31
REMARK                            x       y       z     vdW  Elec       q    Type
REMARK                         _______ _______ _______ _____ _____    ______ ____
ROOT
ATOM      1  C   UNL     1       2.638   2.944  -3.264  0.00  0.00    +0.142 A 
ATOM      2  C   UNL     1       1.288   3.322  -3.102  0.00  0.00    +0.110 A 
ATOM      3  C   UNL     1       0.148   2.392  -3.210  0.00  0.00    +0.238 A 
ATOM      4  C   UNL     1      -1.095   2.803  -2.529  0.00  0.00    +0.208 A 
ATOM      5  C   UNL     1      -1.287   4.116  -2.299  0.00  0.00    +0.181 A 
ATOM      6  O   UNL     1      -0.338   5.080  -2.628  0.00  0.00    -0.451 OA
ATOM      7  O   UNL     1       0.180   1.306  -3.785  0.00  0.00    -0.283 OA
ATOM      8  C   UNL     1       0.943   4.671  -2.925  0.00  0.00    +0.147 A 
ATOM      9  C   UNL     1       1.920   5.666  -3.063  0.00  0.00    +0.092 A 
ATOM     10  C   UNL     1       3.227   5.299  -3.355  0.00  0.00    +0.124 A 
ATOM     11  C   UNL     1       3.596   3.958  -3.425  0.00  0.00    +0.092 A 
ENDROOT
BRANCH   5  12
ATOM     12  C   UNL     1      -2.605   4.645  -1.852  0.00  0.00    +0.025 A 
ATOM     13  C   UNL     1      -3.088   5.861  -2.374  0.00  0.00    +0.015 A 
ATOM     14  C   UNL     1      -4.402   6.280  -2.132  0.00  0.00    +0.050 A 
ATOM     15  C   UNL     1      -5.241   5.483  -1.372  0.00  0.00    +0.158 A 
ATOM     16  C   UNL     1      -4.770   4.308  -0.800  0.00  0.00    +0.159 A 
ATOM     17  C   UNL     1      -3.453   3.909  -1.001  0.00  0.00    +0.060 A 
BRANCH  15  18
ATOM     18  O   UNL     1      -6.547   5.841  -1.211  0.00  0.00    -0.503 OA
ATOM     19  H   UNL     1      -6.941   5.108  -0.697  0.00  0.00    +0.292 HD
ENDBRANCH  15  18
BRANCH  16  20
ATOM     20  O   UNL     1      -5.652   3.546  -0.085  0.00  0.00    -0.503 OA
ATOM     21  H   UNL     1      -5.218   2.700   0.123  0.00  0.00    +0.292 HD
ENDBRANCH  16  20
ENDBRANCH   5  12
BRANCH   4  22
ATOM     22  O   UNL     1      -2.015   1.805  -2.282  0.00  0.00    -0.501 OA
ATOM     23  H   UNL     1      -1.657   1.003  -2.713  0.00  0.00    +0.292 HD
ENDBRANCH   4  22
BRANCH  10  24
ATOM     24  O   UNL     1       4.149   6.293  -3.532  0.00  0.00    -0.507 OA
ATOM     25  H   UNL     1       4.991   5.902  -3.815  0.00  0.00    +0.292 HD
ENDBRANCH  10  24
BRANCH   1  26
ATOM     26  O   UNL     1       3.169   1.684  -3.306  0.00  0.00    -0.460 OA
BRANCH  26  30
ATOM     27  C   UNL     1       1.109   0.113   0.117  0.00  0.00    +0.041 C 
ATOM     28  C   UNL     1       2.540  -0.290  -0.264  0.00  0.00    +0.150 C 
ATOM     29  O   UNL     1       3.182   0.663  -1.145  0.00  0.00    -0.334 OA
ATOM     30  C   UNL     1       2.608   0.674  -2.459  0.00  0.00    +0.339 C 
ATOM     31  C   UNL     1       2.771  -0.692  -3.160  0.00  0.00    +0.214 C 
ATOM     32  C   UNL     1       2.136  -1.792  -2.292  0.00  0.00    +0.180 C 
ATOM     33  C   UNL     1       2.667  -1.712  -0.853  0.00  0.00    +0.174 C 
BRANCH  31  34
ATOM     34  O   UNL     1       2.204  -0.737  -4.478  0.00  0.00    -0.383 OA
ATOM     35  H   UNL     1       1.339  -0.287  -4.480  0.00  0.00    +0.210 HD
ENDBRANCH  31  34
BRANCH  32  36
ATOM     36  O   UNL     1       0.700  -1.710  -2.261  0.00  0.00    -0.386 OA
ATOM     37  H   UNL     1       0.401  -0.999  -2.852  0.00  0.00    +0.210 HD
ENDBRANCH  32  36
BRANCH  33  38
ATOM     38  O   UNL     1       4.053  -2.083  -0.845  0.00  0.00    -0.387 OA
ATOM     39  H   UNL     1       4.578  -1.273  -0.992  0.00  0.00    +0.210 HD
ENDBRANCH  33  38
ENDBRANCH  26  30
ENDBRANCH   1  26
TORSDOF 10
