REMARK  Name = 
REMARK  23 active torsions:
REMARK  status: ('A' for Active; 'I' for Inactive)
REMARK    1  A    between atoms: C_1  and  C_2
REMARK    2  A    between atoms: C_4  and  O_69
REMARK    3  A    between atoms: C_6  and  O_68
REMARK    4  A    between atoms: C_8  and  O_67
REMARK    5  A    between atoms: C_10  and  O_13
REMARK    6  A    between atoms: O_13  and  C_14
REMARK    7  A    between atoms: C_16  and  O_66
REMARK    8  A    between atoms: C_21  and  C_58
REMARK    9  A    between atoms: C_22  and  O_25
REMARK   10  A    between atoms: O_25  and  C_26
REMARK   11  A    between atoms: C_28  and  O_41
REMARK   12  A    between atoms: C_30  and  O_40
REMARK   13  A    between atoms: C_32  and  O_39
REMARK   14  A    between atoms: C_34  and  C_37
REMARK   15  A    between atoms: C_37  and  O_38
REMARK   16  A    between atoms: O_41  and  C_42
REMARK   17  A    between atoms: C_44  and  O_57
REMARK   18  A    between atoms: C_46  and  O_56
REMARK   19  A    between atoms: C_48  and  O_55
REMARK   20  A    between atoms: C_50  and  C_53
REMARK   21  A    between atoms: C_53  and  O_54
REMARK   22  A    between atoms: C_60  and  O_65
REMARK   23  A    between atoms: C_61  and  O_64
REMARK                            x       y       z     vdW  Elec       q    Type
REMARK                         _______ _______ _______ _____ _____    ______ ____
ROOT
ATOM      1  C   UNL     1       2.655   2.832  -3.223  0.00  0.00    +0.131 A 
ATOM      2  C   UNL     1       1.382   3.295  -2.885  0.00  0.00    +0.093 A 
ATOM      3  C   UNL     1       1.156   4.671  -2.743  0.00  0.00    +0.147 A 
ATOM      4  O   UNL     1      -0.108   5.095  -2.409  0.00  0.00    -0.451 OA
ATOM      5  C   UNL     1      -0.383   6.462  -2.473  0.00  0.00    +0.181 A 
ATOM      6  C   UNL     1       0.554   7.437  -2.572  0.00  0.00    +0.214 A 
ATOM      7  C   UNL     1       1.952   6.936  -2.459  0.00  0.00    +0.238 A 
ATOM      8  O   UNL     1       2.812   7.621  -1.901  0.00  0.00    -0.283 OA
ATOM      9  C   UNL     1       2.214   5.564  -2.887  0.00  0.00    +0.109 A 
ATOM     10  C   UNL     1       3.462   5.099  -3.314  0.00  0.00    +0.135 A 
ATOM     11  C   UNL     1       3.681   3.742  -3.488  0.00  0.00    +0.092 A 
ENDROOT
BRANCH   5  12
ATOM     12  C   UNL     1      -1.817   6.762  -2.320  0.00  0.00    +0.025 A 
ATOM     13  C   UNL     1      -2.638   6.936  -3.444  0.00  0.00    +0.015 A 
ATOM     14  C   UNL     1      -3.999   7.223  -3.285  0.00  0.00    +0.050 A 
ATOM     15  C   UNL     1      -4.529   7.318  -2.008  0.00  0.00    +0.158 A 
ATOM     16  C   UNL     1      -3.729   7.119  -0.887  0.00  0.00    +0.159 A 
ATOM     17  C   UNL     1      -2.371   6.848  -1.032  0.00  0.00    +0.060 A 
BRANCH  16  18
ATOM     18  O   UNL     1      -4.329   7.188   0.340  0.00  0.00    -0.503 OA
ATOM     19  H   UNL     1      -3.684   6.913   1.014  0.00  0.00    +0.292 HD
ENDBRANCH  16  18
BRANCH  15  20
ATOM     20  O   UNL     1      -5.857   7.602  -1.855  0.00  0.00    -0.503 OA
ATOM     21  H   UNL     1      -5.990   7.644  -0.887  0.00  0.00    +0.292 HD
ENDBRANCH  15  20
ENDBRANCH   5  12
BRANCH  10  22
ATOM     22  O   UNL     1       4.478   5.973  -3.558  0.00  0.00    -0.506 OA
ATOM     23  H   UNL     1       5.293   5.503  -3.819  0.00  0.00    +0.292 HD
ENDBRANCH  10  22
BRANCH   6  24
ATOM     24  O   UNL     1       0.259   8.804  -2.599  0.00  0.00    -0.453 OA
BRANCH  24  25
ATOM     25  C   UNL     1       1.184   9.572  -3.399  0.00  0.00    +0.340 C 
ATOM     26  O   UNL     1       1.979  10.507  -2.670  0.00  0.00    -0.331 OA
ATOM     27  C   UNL     1       1.397  11.733  -2.232  0.00  0.00    +0.179 C 
ATOM     28  C   UNL     1       0.455  12.433  -3.230  0.00  0.00    +0.177 C 
ATOM     29  C   UNL     1      -0.261  11.490  -4.207  0.00  0.00    +0.180 C 
ATOM     30  C   UNL     1       0.524  10.226  -4.621  0.00  0.00    +0.221 C 
BRANCH  29  31
ATOM     31  O   UNL     1      -1.535  11.113  -3.657  0.00  0.00    -0.386 OA
ATOM     32  H   UNL     1      -1.429  10.937  -2.697  0.00  0.00    +0.210 HD
ENDBRANCH  29  31
BRANCH  28  33
ATOM     33  O   UNL     1       1.196  13.416  -3.974  0.00  0.00    -0.386 OA
ATOM     34  H   UNL     1       0.540  14.029  -4.356  0.00  0.00    +0.210 HD
ENDBRANCH  28  33
BRANCH  30  35
ATOM     35  O   UNL     1       1.557  10.525  -5.613  0.00  0.00    -0.337 OA
BRANCH  35  36
ATOM     36  C   UNL     1       1.819   9.404  -6.488  0.00  0.00    +0.282 C 
ATOM     37  O   UNL     1       2.502   8.315  -5.862  0.00  0.00    -0.341 OA
ATOM     38  C   UNL     1       3.944   8.294  -5.812  0.00  0.00    +0.178 C 
ATOM     39  C   UNL     1       4.643   8.808  -7.078  0.00  0.00    +0.177 C 
ATOM     40  C   UNL     1       3.999  10.114  -7.552  0.00  0.00    +0.179 C 
ATOM     41  C   UNL     1       2.501   9.880  -7.784  0.00  0.00    +0.201 C 
BRANCH  41  42
ATOM     42  O   UNL     1       2.300   8.910  -8.826  0.00  0.00    -0.384 OA
ATOM     43  H   UNL     1       2.776   8.091  -8.544  0.00  0.00    +0.210 HD
ENDBRANCH  41  42
BRANCH  40  44
ATOM     44  O   UNL     1       4.267  11.179  -6.641  0.00  0.00    -0.386 OA
ATOM     45  H   UNL     1       3.457  11.384  -6.131  0.00  0.00    +0.210 HD
ENDBRANCH  40  44
BRANCH  39  46
ATOM     46  O   UNL     1       4.518   7.804  -8.107  0.00  0.00    -0.386 OA
ATOM     47  H   UNL     1       5.023   8.125  -8.877  0.00  0.00    +0.210 HD
ENDBRANCH  39  46
BRANCH  38  48
ATOM     48  C   UNL     1       4.542   8.930  -4.544  0.00  0.00    +0.190 C 
BRANCH  48  49
ATOM     49  O   UNL     1       5.945   8.669  -4.473  0.00  0.00    -0.392 OA
ATOM     50  H   UNL     1       6.406   9.510  -4.648  0.00  0.00    +0.210 HD
ENDBRANCH  48  49
ENDBRANCH  38  48
ENDBRANCH  35  36
ENDBRANCH  30  35
BRANCH  27  51
ATOM     51  C   UNL     1       0.748  11.539  -0.858  0.00  0.00    +0.190 C 
BRANCH  51  52
ATOM     52  O   UNL     1      -0.465  10.800  -0.966  0.00  0.00    -0.392 OA
ATOM     53  H   UNL     1      -0.186   9.868  -1.087  0.00  0.00    +0.210 HD
ENDBRANCH  51  52
ENDBRANCH  27  51
ENDBRANCH  24  25
ENDBRANCH   6  24
BRANCH   1  54
ATOM     54  O   UNL     1       3.061   1.530  -3.303  0.00  0.00    -0.461 OA
BRANCH  54  58
ATOM     55  C   UNL     1      -0.547  -0.235  -1.677  0.00  0.00    +0.041 C 
ATOM     56  C   UNL     1       0.851  -0.386  -1.085  0.00  0.00    +0.150 C 
ATOM     57  O   UNL     1       1.744   0.628  -1.564  0.00  0.00    -0.334 OA
ATOM     58  C   UNL     1       2.139   0.496  -2.934  0.00  0.00    +0.339 C 
ATOM     59  C   UNL     1       2.863  -0.850  -3.170  0.00  0.00    +0.214 C 
ATOM     60  C   UNL     1       2.024  -2.027  -2.658  0.00  0.00    +0.180 C 
ATOM     61  C   UNL     1       1.494  -1.770  -1.242  0.00  0.00    +0.174 C 
BRANCH  61  62
ATOM     62  O   UNL     1       2.602  -1.853  -0.330  0.00  0.00    -0.387 OA
ATOM     63  H   UNL     1       2.995  -0.963  -0.247  0.00  0.00    +0.210 HD
ENDBRANCH  61  62
BRANCH  60  64
ATOM     64  O   UNL     1       0.974  -2.340  -3.589  0.00  0.00    -0.386 OA
ATOM     65  H   UNL     1       0.520  -1.535  -3.882  0.00  0.00    +0.210 HD
ENDBRANCH  60  64
BRANCH  59  66
ATOM     66  O   UNL     1       3.161  -1.036  -4.564  0.00  0.00    -0.383 OA
ATOM     67  H   UNL     1       2.562  -1.726  -4.906  0.00  0.00    +0.210 HD
ENDBRANCH  59  66
ENDBRANCH  54  58
ENDBRANCH   1  54
TORSDOF 22
