REMARK  Name = 
REMARK  18 active torsions:
REMARK  status: ('A' for Active; 'I' for Inactive)
REMARK    1  A    between atoms: C_3  and  O_54
REMARK    2  A    between atoms: C_4  and  O_53
REMARK    3  A    between atoms: C_6  and  C_7
REMARK    4  A    between atoms: C_8  and  O_20
REMARK    5  A    between atoms: C_12  and  O_19
REMARK    6  A    between atoms: C_14  and  O_18
REMARK    7  A    between atoms: O_20  and  C_21
REMARK    8  A    between atoms: C_23  and  O_52
REMARK    9  A    between atoms: C_25  and  O_51
REMARK   10  A    between atoms: C_27  and  O_34
REMARK   11  A    between atoms: C_29  and  C_32
REMARK   12  A    between atoms: C_32  and  O_33
REMARK   13  A    between atoms: O_34  and  C_35
REMARK   14  A    between atoms: C_37  and  O_50
REMARK   15  A    between atoms: C_39  and  O_49
REMARK   16  A    between atoms: C_41  and  O_48
REMARK   17  A    between atoms: C_43  and  C_46
REMARK   18  A    between atoms: C_46  and  O_47
REMARK                            x       y       z     vdW  Elec       q    Type
REMARK                         _______ _______ _______ _____ _____    ______ ____
ROOT
ATOM      1  C   UNL     1      -2.770  -0.899  -0.695  0.00  0.00    +0.340 C 
ATOM      2  O   UNL     1      -3.586  -0.396  -1.751  0.00  0.00    -0.331 OA
ATOM      3  C   UNL     1      -3.532  -0.833  -3.106  0.00  0.00    +0.179 C 
ATOM      4  C   UNL     1      -2.248  -1.593  -3.482  0.00  0.00    +0.184 C 
ATOM      5  C   UNL     1      -1.885  -2.568  -2.366  0.00  0.00    +0.180 C 
ATOM      6  C   UNL     1      -1.601  -1.817  -1.064  0.00  0.00    +0.214 C 
ENDROOT
BRANCH   5   7
ATOM      7  O   UNL     1      -2.935  -3.530  -2.202  0.00  0.00    -0.386 OA
ATOM      8  H   UNL     1      -3.556  -3.218  -1.513  0.00  0.00    +0.210 HD
ENDBRANCH   5   7
BRANCH   6   9
ATOM      9  O   UNL     1      -0.367  -1.093  -1.064  0.00  0.00    -0.383 OA
ATOM     10  H   UNL     1      -0.507  -0.218  -1.483  0.00  0.00    +0.210 HD
ENDBRANCH   6   9
BRANCH   1  11
ATOM     11  O   UNL     1      -3.542  -1.678   0.239  0.00  0.00    -0.453 OA
BRANCH  11  22
ATOM     12  C   UNL     1      -4.434  -1.415   2.453  0.00  0.00    +0.181 A 
ATOM     13  O   UNL     1      -5.381  -0.837   3.312  0.00  0.00    -0.451 OA
ATOM     14  C   UNL     1      -6.352  -0.034   2.767  0.00  0.00    +0.147 A 
ATOM     15  C   UNL     1      -6.190   0.565   1.532  0.00  0.00    +0.109 A 
ATOM     16  C   UNL     1      -7.153   1.433   1.008  0.00  0.00    +0.135 A 
ATOM     17  C   UNL     1      -8.299   1.707   1.740  0.00  0.00    +0.091 A 
ATOM     18  C   UNL     1      -8.458   1.107   2.985  0.00  0.00    +0.124 A 
ATOM     19  C   UNL     1      -4.964   0.285   0.821  0.00  0.00    +0.238 A 
ATOM     20  O   UNL     1      -4.587   1.109  -0.008  0.00  0.00    -0.283 OA
ATOM     21  C   UNL     1      -7.503   0.229   3.505  0.00  0.00    +0.092 A 
ATOM     22  C   UNL     1      -4.250  -0.976   1.185  0.00  0.00    +0.214 A 
BRANCH  12  24
ATOM     23  C   UNL     1      -4.178  -3.075   4.336  0.00  0.00    +0.015 A 
ATOM     24  C   UNL     1      -3.654  -2.511   3.148  0.00  0.00    +0.025 A 
ATOM     25  C   UNL     1      -2.367  -2.937   2.763  0.00  0.00    +0.060 A 
ATOM     26  C   UNL     1      -1.664  -3.880   3.532  0.00  0.00    +0.159 A 
ATOM     27  C   UNL     1      -2.207  -4.400   4.698  0.00  0.00    +0.158 A 
ATOM     28  C   UNL     1      -3.458  -4.003   5.111  0.00  0.00    +0.050 A 
BRANCH  26  29
ATOM     29  O   UNL     1      -0.411  -4.273   3.144  0.00  0.00    -0.503 OA
ATOM     30  H   UNL     1      -0.127  -4.912   3.827  0.00  0.00    +0.292 HD
ENDBRANCH  26  29
BRANCH  27  31
ATOM     31  O   UNL     1      -1.449  -5.294   5.413  0.00  0.00    -0.503 OA
ATOM     32  H   UNL     1      -1.939  -5.526   6.220  0.00  0.00    +0.292 HD
ENDBRANCH  27  31
ENDBRANCH  12  24
BRANCH  18  33
ATOM     33  O   UNL     1      -9.552   1.376   3.753  0.00  0.00    -0.507 OA
ATOM     34  H   UNL     1     -10.052   2.097   3.330  0.00  0.00    +0.292 HD
ENDBRANCH  18  33
BRANCH  16  35
ATOM     35  O   UNL     1      -7.024   2.043  -0.211  0.00  0.00    -0.506 OA
ATOM     36  H   UNL     1      -6.122   1.845  -0.552  0.00  0.00    +0.292 HD
ENDBRANCH  16  35
ENDBRANCH  11  22
ENDBRANCH   1  11
BRANCH   3  37
ATOM     37  C   UNL     1      -4.858  -1.506  -3.496  0.00  0.00    +0.190 C 
BRANCH  37  38
ATOM     38  O   UNL     1      -5.986  -0.666  -3.204  0.00  0.00    -0.392 OA
ATOM     39  H   UNL     1      -5.696   0.262  -3.237  0.00  0.00    +0.210 HD
ENDBRANCH  37  38
ENDBRANCH   3  37
BRANCH   4  40
ATOM     40  O   UNL     1      -1.287  -0.547  -3.689  0.00  0.00    -0.340 OA
BRANCH  40  41
ATOM     41  C   UNL     1       0.085  -0.846  -3.854  0.00  0.00    +0.282 C 
ATOM     42  O   UNL     1       0.819   0.362  -3.613  0.00  0.00    -0.341 OA
ATOM     43  C   UNL     1       0.640   1.424  -4.573  0.00  0.00    +0.178 C 
ATOM     44  C   UNL     1       0.861   0.921  -6.016  0.00  0.00    +0.177 C 
ATOM     45  C   UNL     1       0.132  -0.404  -6.308  0.00  0.00    +0.179 C 
ATOM     46  C   UNL     1       0.431  -1.440  -5.222  0.00  0.00    +0.201 C 
BRANCH  44  47
ATOM     47  O   UNL     1       2.278   0.725  -6.180  0.00  0.00    -0.386 OA
ATOM     48  H   UNL     1       2.426   0.288  -7.039  0.00  0.00    +0.210 HD
ENDBRANCH  44  47
BRANCH  45  49
ATOM     49  O   UNL     1      -1.271  -0.193  -6.476  0.00  0.00    -0.386 OA
ATOM     50  H   UNL     1      -1.676  -0.114  -5.591  0.00  0.00    +0.210 HD
ENDBRANCH  45  49
BRANCH  46  51
ATOM     51  O   UNL     1       1.813  -1.821  -5.248  0.00  0.00    -0.384 OA
ATOM     52  H   UNL     1       2.324  -1.046  -4.924  0.00  0.00    +0.210 HD
ENDBRANCH  46  51
BRANCH  43  53
ATOM     53  C   UNL     1      -0.671   2.221  -4.398  0.00  0.00    +0.190 C 
BRANCH  53  54
ATOM     54  O   UNL     1      -0.792   2.767  -3.085  0.00  0.00    -0.392 OA
ATOM     55  H   UNL     1      -0.208   3.543  -3.029  0.00  0.00    +0.210 HD
ENDBRANCH  53  54
ENDBRANCH  43  53
ENDBRANCH  40  41
ENDBRANCH   4  40
TORSDOF 18
