REMARK  Name = 
REMARK  17 active torsions:
REMARK  status: ('A' for Active; 'I' for Inactive)
REMARK    1  A    between atoms: C_1  and  C_2
REMARK    2  A    between atoms: C_4  and  O_53
REMARK    3  A    between atoms: C_6  and  O_52
REMARK    4  A    between atoms: C_8  and  O_51
REMARK    5  A    between atoms: C_10  and  O_13
REMARK    6  A    between atoms: O_13  and  C_14
REMARK    7  A    between atoms: C_14  and  C_15
REMARK    8  A    between atoms: C_17  and  O_50
REMARK    9  A    between atoms: C_19  and  O_49
REMARK   10  A    between atoms: C_21  and  O_48
REMARK   11  A    between atoms: C_23  and  O_26
REMARK   12  A    between atoms: O_26  and  C_27
REMARK   13  A    between atoms: C_28  and  C_40
REMARK   14  A    between atoms: C_32  and  O_39
REMARK   15  A    between atoms: C_34  and  O_38
REMARK   16  A    between atoms: C_42  and  O_47
REMARK   17  A    between atoms: C_43  and  O_46
REMARK                            x       y       z     vdW  Elec       q    Type
REMARK                         _______ _______ _______ _____ _____    ______ ____
ROOT
ATOM      1  C   UNL     1       3.203   4.270  -4.337  0.00  0.00    +0.179 C 
ATOM      2  O   UNL     1       3.689   5.516  -3.819  0.00  0.00    -0.331 OA
ATOM      3  C   UNL     1       2.750   6.093  -2.911  0.00  0.00    +0.340 C 
ATOM      4  C   UNL     1       1.582   6.618  -3.777  0.00  0.00    +0.214 C 
ATOM      5  C   UNL     1       1.010   5.410  -4.572  0.00  0.00    +0.180 C 
ATOM      6  C   UNL     1       2.090   4.612  -5.329  0.00  0.00    +0.177 C 
ENDROOT
BRANCH   6   7
ATOM      7  O   UNL     1       1.477   3.438  -5.879  0.00  0.00    -0.386 OA
ATOM      8  H   UNL     1       2.113   3.076  -6.525  0.00  0.00    +0.210 HD
ENDBRANCH   6   7
BRANCH   5   9
ATOM      9  O   UNL     1      -0.019   5.835  -5.478  0.00  0.00    -0.386 OA
ATOM     10  H   UNL     1      -0.185   5.060  -6.057  0.00  0.00    +0.210 HD
ENDBRANCH   5   9
BRANCH   4  11
ATOM     11  O   UNL     1       0.554   7.177  -2.942  0.00  0.00    -0.383 OA
ATOM     12  H   UNL     1      -0.296   6.913  -3.341  0.00  0.00    +0.210 HD
ENDBRANCH   4  11
BRANCH   3  13
ATOM     13  O   UNL     1       3.361   7.101  -2.063  0.00  0.00    -0.453 OA
BRANCH  13  14
ATOM     14  C   UNL     1       3.926   6.537  -0.907  0.00  0.00    +0.214 A 
ATOM     15  C   UNL     1       4.689   5.242  -1.013  0.00  0.00    +0.238 A 
ATOM     16  O   UNL     1       5.258   4.885  -2.037  0.00  0.00    -0.283 OA
ATOM     17  C   UNL     1       4.869   4.442   0.188  0.00  0.00    +0.109 A 
ATOM     18  C   UNL     1       4.788   5.121   1.388  0.00  0.00    +0.147 A 
ATOM     19  C   UNL     1       5.117   4.470   2.577  0.00  0.00    +0.092 A 
ATOM     20  C   UNL     1       5.530   3.136   2.538  0.00  0.00    +0.124 A 
ATOM     21  C   UNL     1       5.595   2.441   1.337  0.00  0.00    +0.091 A 
ATOM     22  O   UNL     1       4.454   6.444   1.453  0.00  0.00    -0.451 OA
ATOM     23  C   UNL     1       5.247   3.093   0.158  0.00  0.00    +0.135 A 
ATOM     24  C   UNL     1       3.961   7.122   0.322  0.00  0.00    +0.181 A 
BRANCH  24  25
ATOM     25  C   UNL     1       3.621   8.552   0.684  0.00  0.00    +0.025 A 
ATOM     26  C   UNL     1       3.931   9.006   1.996  0.00  0.00    +0.015 A 
ATOM     27  C   UNL     1       3.864  10.354   2.366  0.00  0.00    +0.050 A 
ATOM     28  C   UNL     1       3.454  11.279   1.432  0.00  0.00    +0.158 A 
ATOM     29  C   UNL     1       3.041  10.862   0.172  0.00  0.00    +0.159 A 
ATOM     30  C   UNL     1       3.127   9.514  -0.208  0.00  0.00    +0.060 A 
BRANCH  29  31
ATOM     31  O   UNL     1       2.564  11.829  -0.673  0.00  0.00    -0.503 OA
ATOM     32  H   UNL     1       1.962  11.388  -1.297  0.00  0.00    +0.292 HD
ENDBRANCH  29  31
BRANCH  28  33
ATOM     33  O   UNL     1       3.493  12.605   1.750  0.00  0.00    -0.503 OA
ATOM     34  H   UNL     1       3.312  13.069   0.909  0.00  0.00    +0.292 HD
ENDBRANCH  28  33
ENDBRANCH  24  25
BRANCH  23  35
ATOM     35  O   UNL     1       5.257   2.386  -1.011  0.00  0.00    -0.506 OA
ATOM     36  H   UNL     1       5.842   1.617  -0.907  0.00  0.00    +0.292 HD
ENDBRANCH  23  35
BRANCH  20  37
ATOM     37  O   UNL     1       5.878   2.451   3.665  0.00  0.00    -0.507 OA
ATOM     38  H   UNL     1       5.802   3.044   4.430  0.00  0.00    +0.292 HD
ENDBRANCH  20  37
ENDBRANCH  13  14
ENDBRANCH   3  13
BRANCH   1  39
ATOM     39  C   UNL     1       4.355   3.452  -4.928  0.00  0.00    +0.197 C 
BRANCH  39  40
ATOM     40  O   UNL     1       4.886   4.119  -6.061  0.00  0.00    -0.346 OA
BRANCH  40  44
ATOM     41  C   UNL     1       9.167   2.389  -5.048  0.00  0.00    +0.041 C 
ATOM     42  C   UNL     1       8.220   2.647  -6.215  0.00  0.00    +0.149 C 
ATOM     43  O   UNL     1       7.035   3.230  -5.677  0.00  0.00    -0.343 OA
ATOM     44  C   UNL     1       6.007   3.447  -6.642  0.00  0.00    +0.282 C 
ATOM     45  C   UNL     1       6.482   4.341  -7.804  0.00  0.00    +0.201 C 
ATOM     46  C   UNL     1       7.803   3.816  -8.373  0.00  0.00    +0.179 C 
ATOM     47  C   UNL     1       8.833   3.586  -7.262  0.00  0.00    +0.174 C 
BRANCH  47  48
ATOM     48  O   UNL     1      10.009   3.034  -7.864  0.00  0.00    -0.387 OA
ATOM     49  H   UNL     1      10.728   3.102  -7.209  0.00  0.00    +0.210 HD
ENDBRANCH  47  48
BRANCH  46  50
ATOM     50  O   UNL     1       8.327   4.735  -9.342  0.00  0.00    -0.386 OA
ATOM     51  H   UNL     1       9.249   4.450  -9.501  0.00  0.00    +0.210 HD
ENDBRANCH  46  50
BRANCH  45  52
ATOM     52  O   UNL     1       5.454   4.388  -8.815  0.00  0.00    -0.384 OA
ATOM     53  H   UNL     1       5.801   3.973  -9.621  0.00  0.00    +0.210 HD
ENDBRANCH  45  52
ENDBRANCH  40  44
ENDBRANCH  39  40
ENDBRANCH   1  39
TORSDOF 16
