REMARK  Name = 
REMARK  23 active torsions:
REMARK  status: ('A' for Active; 'I' for Inactive)
REMARK    1  A    between atoms: C_1  and  C_2
REMARK    2  A    between atoms: C_4  and  O_53
REMARK    3  A    between atoms: C_6  and  O_52
REMARK    4  A    between atoms: C_8  and  O_51
REMARK    5  A    between atoms: C_10  and  O_13
REMARK    6  A    between atoms: O_13  and  C_14
REMARK    7  A    between atoms: C_14  and  C_15
REMARK    8  A    between atoms: C_17  and  O_50
REMARK    9  A    between atoms: C_19  and  O_49
REMARK   10  A    between atoms: C_21  and  O_48
REMARK   11  A    between atoms: C_23  and  O_26
REMARK   12  A    between atoms: O_26  and  C_27
REMARK   13  A    between atoms: C_28  and  C_40
REMARK   14  A    between atoms: C_32  and  O_39
REMARK   15  A    between atoms: C_34  and  O_38
REMARK   16  A    between atoms: C_42  and  O_47
REMARK   17  A    between atoms: C_43  and  O_46
REMARK   18  A    between atoms: O_53  and  C_54
REMARK   19  A    between atoms: C_56  and  O_69
REMARK   20  A    between atoms: C_58  and  O_68
REMARK   21  A    between atoms: C_60  and  O_67
REMARK   22  A    between atoms: C_62  and  C_65
REMARK   23  A    between atoms: C_65  and  O_66
REMARK                            x       y       z     vdW  Elec       q    Type
REMARK                         _______ _______ _______ _____ _____    ______ ____
ROOT
ATOM      1  C   UNL     1       3.161   4.481  -4.374  0.00  0.00    +0.179 C 
ATOM      2  O   UNL     1       3.679   5.700  -3.835  0.00  0.00    -0.331 OA
ATOM      3  C   UNL     1       2.706   6.303  -2.973  0.00  0.00    +0.340 C 
ATOM      4  C   UNL     1       1.587   6.868  -3.884  0.00  0.00    +0.214 C 
ATOM      5  C   UNL     1       0.997   5.652  -4.666  0.00  0.00    +0.180 C 
ATOM      6  C   UNL     1       2.078   4.834  -5.398  0.00  0.00    +0.177 C 
ENDROOT
BRANCH   4   7
ATOM      7  O   UNL     1       0.575   7.506  -3.089  0.00  0.00    -0.383 OA
ATOM      8  H   UNL     1      -0.231   6.960  -3.140  0.00  0.00    +0.210 HD
ENDBRANCH   4   7
BRANCH   6   9
ATOM      9  O   UNL     1       1.438   3.689  -5.978  0.00  0.00    -0.386 OA
ATOM     10  H   UNL     1       2.145   3.026  -6.134  0.00  0.00    +0.210 HD
ENDBRANCH   6   9
BRANCH   5  11
ATOM     11  O   UNL     1      -0.020   6.041  -5.597  0.00  0.00    -0.386 OA
ATOM     12  H   UNL     1      -0.193   5.225  -6.124  0.00  0.00    +0.210 HD
ENDBRANCH   5  11
BRANCH   3  13
ATOM     13  O   UNL     1       3.351   7.241  -2.080  0.00  0.00    -0.453 OA
BRANCH  13  14
ATOM     14  C   UNL     1       3.829   6.654  -0.891  0.00  0.00    +0.214 A 
ATOM     15  C   UNL     1       3.945   5.153  -0.762  0.00  0.00    +0.238 A 
ATOM     16  O   UNL     1       4.141   4.406  -1.711  0.00  0.00    -0.283 OA
ATOM     17  C   UNL     1       3.942   4.562   0.563  0.00  0.00    +0.109 A 
ATOM     18  C   UNL     1       4.376   5.378   1.585  0.00  0.00    +0.147 A 
ATOM     19  C   UNL     1       4.578   4.839   2.857  0.00  0.00    +0.092 A 
ATOM     20  C   UNL     1       4.340   3.479   3.065  0.00  0.00    +0.124 A 
ATOM     21  C   UNL     1       3.885   2.656   2.041  0.00  0.00    +0.091 A 
ATOM     22  O   UNL     1       4.680   6.694   1.379  0.00  0.00    -0.451 OA
ATOM     23  C   UNL     1       3.671   3.204   0.786  0.00  0.00    +0.135 A 
ATOM     24  C   UNL     1       4.325   7.339   0.177  0.00  0.00    +0.181 A 
BRANCH  24  25
ATOM     25  C   UNL     1       4.699   8.803   0.254  0.00  0.00    +0.025 A 
ATOM     26  C   UNL     1       5.403   9.258   1.405  0.00  0.00    +0.015 A 
ATOM     27  C   UNL     1       5.997  10.524   1.481  0.00  0.00    +0.050 A 
ATOM     28  C   UNL     1       5.870  11.381   0.412  0.00  0.00    +0.158 A 
ATOM     29  C   UNL     1       5.093  11.017  -0.682  0.00  0.00    +0.159 A 
ATOM     30  C   UNL     1       4.516   9.741  -0.776  0.00  0.00    +0.060 A 
BRANCH  29  31
ATOM     31  O   UNL     1       4.933  11.956  -1.666  0.00  0.00    -0.503 OA
ATOM     32  H   UNL     1       4.096  11.757  -2.123  0.00  0.00    +0.292 HD
ENDBRANCH  29  31
BRANCH  28  33
ATOM     33  O   UNL     1       6.522  12.579   0.437  0.00  0.00    -0.503 OA
ATOM     34  H   UNL     1       6.395  12.950  -0.459  0.00  0.00    +0.292 HD
ENDBRANCH  28  33
ENDBRANCH  24  25
BRANCH  23  35
ATOM     35  O   UNL     1       3.183   2.412  -0.215  0.00  0.00    -0.506 OA
ATOM     36  H   UNL     1       3.226   1.478   0.047  0.00  0.00    +0.292 HD
ENDBRANCH  23  35
BRANCH  20  37
ATOM     37  O   UNL     1       4.555   2.893   4.276  0.00  0.00    -0.507 OA
ATOM     38  H   UNL     1       4.875   3.562   4.901  0.00  0.00    +0.292 HD
ENDBRANCH  20  37
ENDBRANCH  13  14
ENDBRANCH   3  13
BRANCH   1  39
ATOM     39  C   UNL     1       4.302   3.639  -4.928  0.00  0.00    +0.197 C 
BRANCH  39  40
ATOM     40  O   UNL     1       3.739   2.418  -5.401  0.00  0.00    -0.346 OA
BRANCH  40  44
ATOM     41  C   UNL     1       7.550   0.909  -6.964  0.00  0.00    +0.041 C 
ATOM     42  C   UNL     1       6.251   1.212  -7.702  0.00  0.00    +0.150 C 
ATOM     43  O   UNL     1       5.397   2.072  -6.959  0.00  0.00    -0.343 OA
ATOM     44  C   UNL     1       4.729   1.490  -5.846  0.00  0.00    +0.282 C 
ATOM     45  C   UNL     1       3.966   0.189  -6.186  0.00  0.00    +0.201 C 
ATOM     46  C   UNL     1       4.812  -0.769  -7.026  0.00  0.00    +0.179 C 
ATOM     47  C   UNL     1       5.477  -0.025  -8.192  0.00  0.00    +0.181 C 
BRANCH  46  48
ATOM     48  O   UNL     1       5.755  -1.491  -6.228  0.00  0.00    -0.386 OA
ATOM     49  H   UNL     1       5.996  -0.967  -5.443  0.00  0.00    +0.210 HD
ENDBRANCH  46  48
BRANCH  45  50
ATOM     50  O   UNL     1       3.532  -0.473  -4.983  0.00  0.00    -0.384 OA
ATOM     51  H   UNL     1       3.875  -1.386  -4.993  0.00  0.00    +0.210 HD
ENDBRANCH  45  50
BRANCH  47  52
ATOM     52  O   UNL     1       4.386   0.320  -9.075  0.00  0.00    -0.340 OA
BRANCH  52  53
ATOM     53  C   UNL     1       4.709   1.020 -10.277  0.00  0.00    +0.282 C 
ATOM     54  O   UNL     1       3.502   1.399 -10.953  0.00  0.00    -0.341 OA
ATOM     55  C   UNL     1       2.712   0.338 -11.510  0.00  0.00    +0.178 C 
ATOM     56  C   UNL     1       3.544  -0.647 -12.362  0.00  0.00    +0.177 C 
ATOM     57  C   UNL     1       4.865  -1.048 -11.690  0.00  0.00    +0.179 C 
ATOM     58  C   UNL     1       5.622   0.204 -11.211  0.00  0.00    +0.201 C 
BRANCH  58  59
ATOM     59  O   UNL     1       6.053   1.003 -12.318  0.00  0.00    -0.384 OA
ATOM     60  H   UNL     1       5.244   1.244 -12.822  0.00  0.00    +0.210 HD
ENDBRANCH  58  59
BRANCH  57  61
ATOM     61  O   UNL     1       4.651  -1.989 -10.635  0.00  0.00    -0.386 OA
ATOM     62  H   UNL     1       4.253  -1.524  -9.879  0.00  0.00    +0.210 HD
ENDBRANCH  57  61
BRANCH  56  63
ATOM     63  O   UNL     1       3.876   0.016 -13.601  0.00  0.00    -0.386 OA
ATOM     64  H   UNL     1       4.335  -0.639 -14.159  0.00  0.00    +0.210 HD
ENDBRANCH  56  63
BRANCH  55  65
ATOM     65  C   UNL     1       1.821  -0.327 -10.447  0.00  0.00    +0.190 C 
BRANCH  65  66
ATOM     66  O   UNL     1       0.976  -1.302 -11.047  0.00  0.00    -0.392 OA
ATOM     67  H   UNL     1       0.766  -1.966 -10.368  0.00  0.00    +0.210 HD
ENDBRANCH  65  66
ENDBRANCH  55  65
ENDBRANCH  52  53
ENDBRANCH  47  52
ENDBRANCH  40  44
ENDBRANCH  39  40
ENDBRANCH   1  39
TORSDOF 22
