REMARK  Name = 
REMARK  21 active torsions:
REMARK  status: ('A' for Active; 'I' for Inactive)
REMARK    1  A    between atoms: C_3  and  O_38
REMARK    2  A    between atoms: C_4  and  O_33
REMARK    3  A    between atoms: C_6  and  C_7
REMARK    4  A    between atoms: C_8  and  O_28
REMARK    5  A    between atoms: C_15  and  O_23
REMARK    6  A    between atoms: C_17  and  O_18
REMARK    7  A    between atoms: O_18  and  P_19
REMARK    8  A    between atoms: P_19  and  O_21
REMARK    9  A    between atoms: P_19  and  O_22
REMARK   10  A    between atoms: O_23  and  P_24
REMARK   11  A    between atoms: P_24  and  O_26
REMARK   12  A    between atoms: P_24  and  O_27
REMARK   13  A    between atoms: O_28  and  P_29
REMARK   14  A    between atoms: P_29  and  O_31
REMARK   15  A    between atoms: P_29  and  O_32
REMARK   16  A    between atoms: O_33  and  P_34
REMARK   17  A    between atoms: P_34  and  O_36
REMARK   18  A    between atoms: P_34  and  O_37
REMARK   19  A    between atoms: O_38  and  P_39
REMARK   20  A    between atoms: P_39  and  O_41
REMARK   21  A    between atoms: P_39  and  O_42
REMARK                            x       y       z     vdW  Elec       q    Type
REMARK                         _______ _______ _______ _____ _____    ______ ____
ROOT
ATOM      1  C   UNL     1      -1.193  -2.525   0.186  0.00  0.00    +0.181 A 
ATOM      2  O   UNL     1      -0.521  -3.730   0.404  0.00  0.00    -0.451 OA
ATOM      3  C   UNL     1      -1.181  -4.908   0.120  0.00  0.00    +0.147 A 
ATOM      4  C   UNL     1      -0.480  -6.119   0.257  0.00  0.00    +0.093 A 
ATOM      5  C   UNL     1      -1.160  -7.317   0.031  0.00  0.00    +0.139 A 
ATOM      6  C   UNL     1      -2.455  -7.279  -0.480  0.00  0.00    +0.093 A 
ATOM      7  C   UNL     1      -3.147  -6.097  -0.645  0.00  0.00    +0.150 A 
ATOM      8  C   UNL     1      -2.526  -4.916  -0.260  0.00  0.00    +0.110 A 
ATOM      9  C   UNL     1      -3.270  -3.663  -0.192  0.00  0.00    +0.239 A 
ATOM     10  O   UNL     1      -4.496  -3.635  -0.117  0.00  0.00    -0.283 OA
ATOM     11  C   UNL     1      -2.485  -2.417  -0.164  0.00  0.00    +0.222 A 
ENDROOT
BRANCH   1  13
ATOM     12  C   UNL     1       0.602  -0.862  -0.362  0.00  0.00    +0.015 A 
ATOM     13  C   UNL     1      -0.383  -1.341   0.507  0.00  0.00    +0.025 A 
ATOM     14  C   UNL     1      -0.555  -0.730   1.759  0.00  0.00    +0.061 A 
ATOM     15  C   UNL     1       0.342   0.242   2.189  0.00  0.00    +0.175 A 
ATOM     16  C   UNL     1       1.479   0.519   1.415  0.00  0.00    +0.174 A 
ATOM     17  C   UNL     1       1.550   0.055   0.102  0.00  0.00    +0.051 A 
BRANCH  15  18
ATOM     18  O   UNL     1       0.161   0.972   3.332  0.00  0.00    -0.400 OA
BRANCH  18  19
ATOM     19  P   UNL     1      -0.920   0.700   4.467  0.00  0.00    +0.528 P 
ATOM     20  O   UNL     1      -0.846  -0.585   5.217  0.00  0.00    -0.216 OA
BRANCH  19  21
ATOM     21  O   UNL     1      -0.746   1.961   5.441  0.00  0.00    -0.293 OA
ATOM     22  H   UNL     1      -0.028   1.809   6.077  0.00  0.00    +0.223 HD
ENDBRANCH  19  21
BRANCH  19  23
ATOM     23  O   UNL     1      -2.382   1.012   3.878  0.00  0.00    -0.293 OA
ATOM     24  H   UNL     1      -3.060   0.892   4.568  0.00  0.00    +0.223 HD
ENDBRANCH  19  23
ENDBRANCH  18  19
ENDBRANCH  15  18
BRANCH  16  25
ATOM     25  O   UNL     1       2.516   1.159   2.041  0.00  0.00    -0.400 OA
BRANCH  25  26
ATOM     26  P   UNL     1       3.966   1.443   1.425  0.00  0.00    +0.528 P 
ATOM     27  O   UNL     1       4.073   2.523   0.405  0.00  0.00    -0.216 OA
BRANCH  26  28
ATOM     28  O   UNL     1       4.885   1.748   2.698  0.00  0.00    -0.293 OA
ATOM     29  H   UNL     1       4.884   2.701   2.906  0.00  0.00    +0.223 HD
ENDBRANCH  26  28
BRANCH  26  30
ATOM     30  O   UNL     1       4.604   0.064   0.925  0.00  0.00    -0.293 OA
ATOM     31  H   UNL     1       5.432   0.234   0.439  0.00  0.00    +0.223 HD
ENDBRANCH  26  30
ENDBRANCH  25  26
ENDBRANCH  16  25
ENDBRANCH   1  13
BRANCH  11  32
ATOM     32  O   UNL     1      -3.117  -1.215  -0.392  0.00  0.00    -0.396 OA
BRANCH  32  33
ATOM     33  P   UNL     1      -4.309  -0.949  -1.438  0.00  0.00    +0.528 P 
ATOM     34  O   UNL     1      -4.062   0.157  -2.412  0.00  0.00    -0.216 OA
BRANCH  33  35
ATOM     35  O   UNL     1      -4.746  -2.316  -2.137  0.00  0.00    -0.293 OA
ATOM     36  H   UNL     1      -5.106  -2.937  -1.455  0.00  0.00    +0.223 HD
ENDBRANCH  33  35
BRANCH  33  37
ATOM     37  O   UNL     1      -5.604  -0.631  -0.558  0.00  0.00    -0.293 OA
ATOM     38  H   UNL     1      -6.173  -0.009  -1.049  0.00  0.00    +0.223 HD
ENDBRANCH  33  37
ENDBRANCH  32  33
ENDBRANCH  11  32
BRANCH   7  39
ATOM     39  O   UNL     1      -4.405  -6.104  -1.180  0.00  0.00    -0.403 OA
BRANCH  39  40
ATOM     40  P   UNL     1      -4.948  -7.285  -2.126  0.00  0.00    +0.528 P 
ATOM     41  O   UNL     1      -4.008  -7.837  -3.144  0.00  0.00    -0.216 OA
BRANCH  40  42
ATOM     42  O   UNL     1      -5.494  -8.417  -1.139  0.00  0.00    -0.293 OA
ATOM     43  H   UNL     1      -4.915  -9.201  -1.109  0.00  0.00    +0.223 HD
ENDBRANCH  40  42
BRANCH  40  44
ATOM     44  O   UNL     1      -6.319  -6.762  -2.758  0.00  0.00    -0.293 OA
ATOM     45  H   UNL     1      -6.704  -7.437  -3.342  0.00  0.00    +0.223 HD
ENDBRANCH  40  44
ENDBRANCH  39  40
ENDBRANCH   7  39
BRANCH   5  46
ATOM     46  O   UNL     1      -0.604  -8.534   0.360  0.00  0.00    -0.404 OA
BRANCH  46  47
ATOM     47  P   UNL     1      -1.581  -9.806   0.592  0.00  0.00    +0.528 P 
ATOM     48  O   UNL     1      -2.782  -9.587   1.453  0.00  0.00    -0.216 OA
BRANCH  47  49
ATOM     49  O   UNL     1      -1.966 -10.318  -0.877  0.00  0.00    -0.293 OA
ATOM     50  H   UNL     1      -1.178 -10.531  -1.411  0.00  0.00    +0.223 HD
ENDBRANCH  47  49
BRANCH  47  51
ATOM     51  O   UNL     1      -0.722 -11.037   1.119  0.00  0.00    -0.293 OA
ATOM     52  H   UNL     1      -1.320 -11.599   1.654  0.00  0.00    +0.223 HD
ENDBRANCH  47  51
ENDBRANCH  46  47
ENDBRANCH   5  46
TORSDOF 21
