REMARK  Name = 
REMARK  11 active torsions:
REMARK  status: ('A' for Active; 'I' for Inactive)
REMARK    1  A    between atoms: C_3  and  O_35
REMARK    2  A    between atoms: C_4  and  O_34
REMARK    3  A    between atoms: C_6  and  C_7
REMARK    4  A    between atoms: C_8  and  O_20
REMARK    5  A    between atoms: C_12  and  O_19
REMARK    6  A    between atoms: C_14  and  O_18
REMARK    7  A    between atoms: O_20  and  C_21
REMARK    8  A    between atoms: C_23  and  O_33
REMARK    9  A    between atoms: C_25  and  O_32
REMARK   10  A    between atoms: C_27  and  C_30
REMARK   11  A    between atoms: C_30  and  O_31
REMARK                            x       y       z     vdW  Elec       q    Type
REMARK                         _______ _______ _______ _____ _____    ______ ____
ROOT
ATOM      1  C   UNL     1      -0.774   1.688  -1.068  0.00  0.00    +0.181 A 
ATOM      2  O   UNL     1      -0.037   2.755  -1.538  0.00  0.00    -0.451 OA
ATOM      3  C   UNL     1       0.997   2.507  -2.397  0.00  0.00    +0.147 A 
ATOM      4  C   UNL     1       1.231   1.253  -2.944  0.00  0.00    +0.109 A 
ATOM      5  C   UNL     1       2.310   1.087  -3.827  0.00  0.00    +0.135 A 
ATOM      6  C   UNL     1       3.161   2.160  -4.128  0.00  0.00    +0.091 A 
ATOM      7  C   UNL     1       2.913   3.403  -3.554  0.00  0.00    +0.124 A 
ATOM      8  C   UNL     1       0.318   0.142  -2.567  0.00  0.00    +0.238 A 
ATOM      9  O   UNL     1       0.439  -0.938  -3.150  0.00  0.00    -0.283 OA
ATOM     10  C   UNL     1       1.837   3.583  -2.696  0.00  0.00    +0.092 A 
ATOM     11  C   UNL     1      -0.687   0.399  -1.478  0.00  0.00    +0.214 A 
ENDROOT
BRANCH   1  13
ATOM     12  C   UNL     1      -1.060   1.840   1.367  0.00  0.00    +0.015 A 
ATOM     13  C   UNL     1      -1.597   2.077   0.088  0.00  0.00    +0.025 A 
ATOM     14  C   UNL     1      -2.846   2.694  -0.034  0.00  0.00    +0.060 A 
ATOM     15  C   UNL     1      -3.565   2.984   1.121  0.00  0.00    +0.159 A 
ATOM     16  C   UNL     1      -3.059   2.679   2.383  0.00  0.00    +0.158 A 
ATOM     17  C   UNL     1      -1.794   2.128   2.516  0.00  0.00    +0.050 A 
BRANCH  15  18
ATOM     18  O   UNL     1      -4.796   3.568   1.016  0.00  0.00    -0.503 OA
ATOM     19  H   UNL     1      -5.101   3.671   1.941  0.00  0.00    +0.292 HD
ENDBRANCH  15  18
BRANCH  16  20
ATOM     20  O   UNL     1      -3.845   2.940   3.472  0.00  0.00    -0.503 OA
ATOM     21  H   UNL     1      -3.401   2.573   4.256  0.00  0.00    +0.292 HD
ENDBRANCH  16  20
ENDBRANCH   1  13
BRANCH   5  22
ATOM     22  O   UNL     1       2.605  -0.103  -4.430  0.00  0.00    -0.506 OA
ATOM     23  H   UNL     1       1.924  -0.772  -4.160  0.00  0.00    +0.292 HD
ENDBRANCH   5  22
BRANCH   7  24
ATOM     24  O   UNL     1       3.716   4.475  -3.798  0.00  0.00    -0.507 OA
ATOM     25  H   UNL     1       4.437   4.204  -4.390  0.00  0.00    +0.292 HD
ENDBRANCH   7  24
BRANCH  11  26
ATOM     26  O   UNL     1      -1.528  -0.558  -0.929  0.00  0.00    -0.453 OA
BRANCH  26  27
ATOM     27  C   UNL     1      -1.260  -1.957  -1.078  0.00  0.00    +0.340 C 
ATOM     28  O   UNL     1      -0.212  -2.393  -0.198  0.00  0.00    -0.331 OA
ATOM     29  C   UNL     1      -0.802  -2.793   1.067  0.00  0.00    +0.179 C 
ATOM     30  C   UNL     1      -2.322  -2.743   0.904  0.00  0.00    +0.180 C 
ATOM     31  C   UNL     1      -2.486  -2.764  -0.608  0.00  0.00    +0.214 C 
BRANCH  30  32
ATOM     32  O   UNL     1      -2.956  -3.840   1.566  0.00  0.00    -0.386 OA
ATOM     33  H   UNL     1      -3.065  -4.575   0.937  0.00  0.00    +0.210 HD
ENDBRANCH  30  32
BRANCH  31  34
ATOM     34  O   UNL     1      -3.746  -2.256  -1.030  0.00  0.00    -0.383 OA
ATOM     35  H   UNL     1      -3.783  -1.314  -0.780  0.00  0.00    +0.210 HD
ENDBRANCH  31  34
BRANCH  29  36
ATOM     36  C   UNL     1      -0.323  -1.839   2.165  0.00  0.00    +0.190 C 
BRANCH  36  37
ATOM     37  O   UNL     1       1.064  -2.010   2.451  0.00  0.00    -0.392 OA
ATOM     38  H   UNL     1       1.177  -2.889   2.851  0.00  0.00    +0.210 HD
ENDBRANCH  36  37
ENDBRANCH  29  36
ENDBRANCH  26  27
ENDBRANCH  11  26
TORSDOF 11
