REMARK  Name = 
REMARK  18 active torsions:
REMARK  status: ('A' for Active; 'I' for Inactive)
REMARK    1  A    between atoms: C_3  and  O_54
REMARK    2  A    between atoms: C_4  and  O_53
REMARK    3  A    between atoms: C_6  and  C_7
REMARK    4  A    between atoms: C_8  and  O_20
REMARK    5  A    between atoms: C_12  and  O_19
REMARK    6  A    between atoms: C_14  and  O_18
REMARK    7  A    between atoms: O_20  and  C_21
REMARK    8  A    between atoms: C_23  and  O_52
REMARK    9  A    between atoms: C_25  and  O_51
REMARK   10  A    between atoms: C_27  and  C_34
REMARK   11  A    between atoms: C_29  and  C_32
REMARK   12  A    between atoms: C_32  and  O_33
REMARK   13  A    between atoms: C_34  and  C_35
REMARK   14  A    between atoms: C_37  and  O_50
REMARK   15  A    between atoms: C_39  and  O_49
REMARK   16  A    between atoms: C_41  and  O_48
REMARK   17  A    between atoms: C_43  and  C_46
REMARK   18  A    between atoms: C_46  and  O_47
REMARK                            x       y       z     vdW  Elec       q    Type
REMARK                         _______ _______ _______ _____ _____    ______ ____
ROOT
ATOM      1  C   UNL     1       4.141  -0.923  -4.639  0.00  0.00    +0.339 C 
ATOM      2  O   UNL     1       4.257  -0.898  -6.067  0.00  0.00    -0.334 OA
ATOM      3  C   UNL     1       3.085  -0.909  -6.919  0.00  0.00    +0.153 C 
ATOM      4  C   UNL     1       1.857  -0.048  -6.426  0.00  0.00    +0.054 C 
ATOM      5  C   UNL     1       2.309   0.704  -5.184  0.00  0.00    +0.155 C 
ATOM      6  C   UNL     1       2.814  -0.303  -4.157  0.00  0.00    +0.211 C 
ENDROOT
BRANCH   5   7
ATOM      7  O   UNL     1       3.308   1.692  -5.522  0.00  0.00    -0.389 OA
ATOM      8  H   UNL     1       4.118   1.215  -5.786  0.00  0.00    +0.210 HD
ENDBRANCH   5   7
BRANCH   6   9
ATOM      9  O   UNL     1       1.831  -1.324  -3.906  0.00  0.00    -0.383 OA
ATOM     10  H   UNL     1       2.279  -2.191  -3.883  0.00  0.00    +0.210 HD
ENDBRANCH   6   9
BRANCH   1  11
ATOM     11  O   UNL     1       5.240  -0.146  -4.097  0.00  0.00    -0.453 OA
BRANCH  11  22
ATOM     12  C   UNL     1       6.904  -0.122  -2.321  0.00  0.00    +0.181 A 
ATOM     13  O   UNL     1       7.379  -0.611  -1.086  0.00  0.00    -0.451 OA
ATOM     14  C   UNL     1       6.798  -1.742  -0.569  0.00  0.00    +0.147 A 
ATOM     15  C   UNL     1       5.552  -2.159  -0.982  0.00  0.00    +0.109 A 
ATOM     16  C   UNL     1       4.956  -3.335  -0.504  0.00  0.00    +0.135 A 
ATOM     17  C   UNL     1       5.617  -4.099   0.428  0.00  0.00    +0.091 A 
ATOM     18  C   UNL     1       6.859  -3.665   0.893  0.00  0.00    +0.124 A 
ATOM     19  C   UNL     1       4.869  -1.335  -1.933  0.00  0.00    +0.238 A 
ATOM     20  O   UNL     1       3.655  -1.483  -2.000  0.00  0.00    -0.283 OA
ATOM     21  C   UNL     1       7.458  -2.503   0.404  0.00  0.00    +0.092 A 
ATOM     22  C   UNL     1       5.697  -0.484  -2.831  0.00  0.00    +0.214 A 
BRANCH  12  24
ATOM     23  C   UNL     1       7.598   1.538  -4.150  0.00  0.00    +0.015 A 
ATOM     24  C   UNL     1       7.919   0.710  -3.054  0.00  0.00    +0.025 A 
ATOM     25  C   UNL     1       9.282   0.610  -2.712  0.00  0.00    +0.060 A 
ATOM     26  C   UNL     1      10.263   1.134  -3.551  0.00  0.00    +0.159 A 
ATOM     27  C   UNL     1       9.919   1.799  -4.720  0.00  0.00    +0.158 A 
ATOM     28  C   UNL     1       8.589   2.057  -4.998  0.00  0.00    +0.050 A 
BRANCH  26  29
ATOM     29  O   UNL     1      11.580   0.928  -3.250  0.00  0.00    -0.503 OA
ATOM     30  H   UNL     1      12.068   1.316  -4.004  0.00  0.00    +0.292 HD
ENDBRANCH  26  29
BRANCH  27  31
ATOM     31  O   UNL     1      10.923   2.151  -5.578  0.00  0.00    -0.503 OA
ATOM     32  H   UNL     1      10.520   2.316  -6.450  0.00  0.00    +0.292 HD
ENDBRANCH  27  31
ENDBRANCH  12  24
BRANCH  18  33
ATOM     33  O   UNL     1       7.514  -4.375   1.847  0.00  0.00    -0.507 OA
ATOM     34  H   UNL     1       6.945  -5.114   2.128  0.00  0.00    +0.292 HD
ENDBRANCH  18  33
BRANCH  16  35
ATOM     35  O   UNL     1       3.727  -3.771  -0.928  0.00  0.00    -0.506 OA
ATOM     36  H   UNL     1       3.292  -3.030  -1.403  0.00  0.00    +0.292 HD
ENDBRANCH  16  35
ENDBRANCH  11  22
ENDBRANCH   1  11
BRANCH   3  37
ATOM     37  C   UNL     1       3.646  -0.296  -8.235  0.00  0.00    +0.187 C 
BRANCH  37  38
ATOM     38  O   UNL     1       4.728  -1.054  -8.786  0.00  0.00    -0.392 OA
ATOM     39  H   UNL     1       4.704  -1.948  -8.406  0.00  0.00    +0.210 HD
ENDBRANCH  37  38
ENDBRANCH   3  37
BRANCH   4  40
ATOM     40  C   UNL     1       0.542  -0.892  -6.230  0.00  0.00    +0.043 C 
BRANCH  40  41
ATOM     41  C   UNL     1      -0.658  -0.248  -5.414  0.00  0.00    +0.150 C 
ATOM     42  O   UNL     1      -1.286   0.723  -6.271  0.00  0.00    -0.366 OA
ATOM     43  C   UNL     1      -2.625   1.183  -5.973  0.00  0.00    +0.175 C 
ATOM     44  C   UNL     1      -3.593   0.056  -5.574  0.00  0.00    +0.176 C 
ATOM     45  C   UNL     1      -2.986  -0.824  -4.474  0.00  0.00    +0.176 C 
ATOM     46  C   UNL     1      -1.627  -1.369  -4.943  0.00  0.00    +0.174 C 
BRANCH  44  47
ATOM     47  O   UNL     1      -3.857  -0.739  -6.746  0.00  0.00    -0.386 OA
ATOM     48  H   UNL     1      -4.352  -1.529  -6.460  0.00  0.00    +0.210 HD
ENDBRANCH  44  47
BRANCH  45  49
ATOM     49  O   UNL     1      -2.944  -0.136  -3.224  0.00  0.00    -0.386 OA
ATOM     50  H   UNL     1      -2.064   0.255  -3.084  0.00  0.00    +0.210 HD
ENDBRANCH  45  49
BRANCH  46  51
ATOM     51  O   UNL     1      -1.857  -2.307  -6.005  0.00  0.00    -0.387 OA
ATOM     52  H   UNL     1      -2.171  -1.773  -6.767  0.00  0.00    +0.210 HD
ENDBRANCH  46  51
BRANCH  43  53
ATOM     53  C   UNL     1      -2.721   2.377  -4.998  0.00  0.00    +0.190 C 
BRANCH  53  54
ATOM     54  O   UNL     1      -1.855   3.450  -5.347  0.00  0.00    -0.392 OA
ATOM     55  H   UNL     1      -1.789   3.481  -6.317  0.00  0.00    +0.210 HD
ENDBRANCH  53  54
ENDBRANCH  43  53
ENDBRANCH  40  41
ENDBRANCH   4  40
TORSDOF 18
