REMARK  Name = 
REMARK  10 active torsions:
REMARK  status: ('A' for Active; 'I' for Inactive)
REMARK    1  A    between atoms: C_1  and  C_2
REMARK    2  A    between atoms: C_3  and  C_4
REMARK    3  A    between atoms: C_3  and  C_5
REMARK    4  A    between atoms: C_6  and  C_7
REMARK    5  A    between atoms: C_8  and  C_9
REMARK    6  A    between atoms: C_8  and  C_10
REMARK    7  A    between atoms: C_11  and  C_12
REMARK    8  A    between atoms: C_13  and  C_20
REMARK    9  A    between atoms: C_17  and  C_18
REMARK   10  A    between atoms: C_17  and  C_19
REMARK                            x       y       z     vdW  Elec       q    Type
REMARK                         _______ _______ _______ _____ _____    ______ ____
ROOT
ATOM      1  C   UNL     1       4.630  -3.791   5.261  0.00  0.00    +0.003 C 
ATOM      2  C   UNL     1       5.373  -3.459   6.328  0.00  0.00    +0.004 C 
ENDROOT
BRANCH   2   3
ATOM      3  C   UNL     1       6.828  -3.649   6.332  0.00  0.00    -0.043 C 
ATOM      4  C   UNL     1       7.679  -2.379   6.446  0.00  0.00    -0.010 C 
ATOM      5  C   UNL     1       7.235  -1.322   5.400  0.00  0.00    +0.016 C 
ATOM      6  C   UNL     1       7.481  -1.757   7.852  0.00  0.00    +0.016 C 
ATOM      7  C   UNL     1       9.205  -2.590   6.229  0.00  0.00    +0.011 C 
ATOM      8  C   UNL     1       9.773  -3.999   6.173  0.00  0.00    +0.005 C 
ATOM      9  C   UNL     1       8.814  -5.173   6.156  0.00  0.00    +0.031 C 
ATOM     10  C   UNL     1       7.343  -4.893   6.225  0.00  0.00    -0.069 C 
ATOM     11  C   UNL     1       6.528  -6.174   6.172  0.00  0.00    +0.039 C 
ENDBRANCH   2   3
BRANCH   1  13
ATOM     12  C   UNL     1       2.656  -3.004   4.084  0.00  0.00    +0.003 C 
ATOM     13  C   UNL     1       3.194  -3.647   5.136  0.00  0.00    -0.050 C 
ATOM     14  C   UNL     1       2.347  -4.385   6.138  0.00  0.00    +0.044 C 
BRANCH  12  16
ATOM     15  C   UNL     1       2.988  -2.081   1.841  0.00  0.00    +0.003 C 
ATOM     16  C   UNL     1       3.436  -2.303   3.083  0.00  0.00    +0.001 C 
BRANCH  15  19
ATOM     17  C   UNL     1       1.858  -1.737  -0.917  0.00  0.00    +0.035 C 
ATOM     18  C   UNL     1       3.232  -1.332  -0.480  0.00  0.00    -0.027 C 
ATOM     19  C   UNL     1       3.748  -1.457   0.759  0.00  0.00    -0.055 C 
ATOM     20  C   UNL     1       5.157  -1.000   1.032  0.00  0.00    +0.043 C 
ENDBRANCH  15  19
ENDBRANCH  12  16
ENDBRANCH   1  13
TORSDOF 4
REMARK  Name = 
REMARK  10 active torsions:
REMARK  status: ('A' for Active; 'I' for Inactive)
REMARK    1  A    between atoms: C_1  and  C_2
REMARK    2  A    between atoms: C_3  and  C_4
REMARK    3  A    between atoms: C_3  and  C_5
REMARK    4  A    between atoms: C_6  and  C_7
REMARK    5  A    between atoms: C_8  and  C_9
REMARK    6  A    between atoms: C_8  and  C_10
REMARK    7  A    between atoms: C_11  and  C_12
REMARK    8  A    between atoms: C_13  and  C_20
REMARK    9  A    between atoms: C_17  and  C_18
REMARK   10  A    between atoms: C_17  and  C_19
REMARK                            x       y       z     vdW  Elec       q    Type
REMARK                         _______ _______ _______ _____ _____    ______ ____
ROOT
ATOM      1  O   HOH     1       1.861   1.720   1.094  0.00  0.00    -0.410 OA
ATOM      2  H   HOH     0       2.250   1.134   1.769  0.00  0.00    +0.205 HD
ATOM      3  H   HOH     0       2.619   1.869   0.503  0.00  0.00    +0.205 HD
ENDROOT
TORSDOF 0
REMARK  Name = 
REMARK  10 active torsions:
REMARK  status: ('A' for Active; 'I' for Inactive)
REMARK    1  A    between atoms: C_1  and  C_2
REMARK    2  A    between atoms: C_3  and  C_4
REMARK    3  A    between atoms: C_3  and  C_5
REMARK    4  A    between atoms: C_6  and  C_7
REMARK    5  A    between atoms: C_8  and  C_9
REMARK    6  A    between atoms: C_8  and  C_10
REMARK    7  A    between atoms: C_11  and  C_12
REMARK    8  A    between atoms: C_13  and  C_20
REMARK    9  A    between atoms: C_17  and  C_18
REMARK   10  A    between atoms: C_17  and  C_19
REMARK                            x       y       z     vdW  Elec       q    Type
REMARK                         _______ _______ _______ _____ _____    ______ ____
ROOT
ATOM      1  O   HOH     1      -1.144  -0.974  -1.896  0.00  0.00    -0.410 OA
ATOM      2  H   HOH     0      -1.150  -0.409  -1.089  0.00  0.00    +0.205 HD
ATOM      3  H   HOH     0      -0.536  -0.477  -2.465  0.00  0.00    +0.205 HD
ENDROOT
TORSDOF 0
REMARK  Name = 
REMARK  10 active torsions:
REMARK  status: ('A' for Active; 'I' for Inactive)
REMARK    1  A    between atoms: C_1  and  C_2
REMARK    2  A    between atoms: C_3  and  C_4
REMARK    3  A    between atoms: C_3  and  C_5
REMARK    4  A    between atoms: C_6  and  C_7
REMARK    5  A    between atoms: C_8  and  C_9
REMARK    6  A    between atoms: C_8  and  C_10
REMARK    7  A    between atoms: C_11  and  C_12
REMARK    8  A    between atoms: C_13  and  C_20
REMARK    9  A    between atoms: C_17  and  C_18
REMARK   10  A    between atoms: C_17  and  C_19
REMARK                            x       y       z     vdW  Elec       q    Type
REMARK                         _______ _______ _______ _____ _____    ______ ____
ROOT
ATOM      1  O   HOH     1      -0.665   0.865   0.299  0.00  0.00    -0.410 OA
ATOM      2  H   HOH     0      -0.927   0.788   1.235  0.00  0.00    +0.205 HD
ATOM      3  H   HOH     0       0.166   1.384   0.403  0.00  0.00    +0.205 HD
ENDROOT
TORSDOF 0
