REMARK  Name = 
REMARK  22 active torsions:
REMARK  status: ('A' for Active; 'I' for Inactive)
REMARK    1  A    between atoms: C_1  and  C_2
REMARK    2  A    between atoms: C_4  and  O_68
REMARK    3  A    between atoms: C_6  and  O_67
REMARK    4  A    between atoms: C_8  and  O_66
REMARK    5  A    between atoms: C_10  and  O_13
REMARK    6  A    between atoms: O_13  and  C_14
REMARK    7  A    between atoms: C_16  and  O_65
REMARK    8  A    between atoms: C_18  and  O_64
REMARK    9  A    between atoms: C_20  and  C_62
REMARK   10  A    between atoms: C_23  and  O_25
REMARK   11  A    between atoms: O_25  and  C_26
REMARK   12  A    between atoms: C_27  and  C_54
REMARK   13  A    between atoms: C_31  and  O_38
REMARK   14  A    between atoms: C_33  and  O_37
REMARK   15  A    between atoms: O_38  and  C_39
REMARK   16  A    between atoms: C_41  and  O_53
REMARK   17  A    between atoms: C_43  and  O_52
REMARK   18  A    between atoms: C_45  and  O_51
REMARK   19  A    between atoms: C_47  and  C_50
REMARK   20  A    between atoms: C_56  and  O_61
REMARK   21  A    between atoms: C_57  and  O_60
REMARK   22  A    between atoms: C_62  and  O_63
REMARK                            x       y       z     vdW  Elec       q    Type
REMARK                         _______ _______ _______ _____ _____    ______ ____
ROOT
ATOM      1  C   UNL     1       0.595   0.533  -2.509  0.00  0.00    +0.214 A 
ATOM      2  C   UNL     1       0.166  -0.904  -2.290  0.00  0.00    +0.238 A 
ATOM      3  O   UNL     1       0.341  -1.759  -3.151  0.00  0.00    -0.283 OA
ATOM      4  C   UNL     1      -0.486  -1.222  -0.997  0.00  0.00    +0.109 A 
ATOM      5  C   UNL     1      -1.018  -0.154  -0.292  0.00  0.00    +0.147 A 
ATOM      6  C   UNL     1      -1.596  -0.351   0.977  0.00  0.00    +0.093 A 
ATOM      7  C   UNL     1      -1.649  -1.626   1.564  0.00  0.00    +0.131 A 
ATOM      8  C   UNL     1      -1.164  -2.712   0.833  0.00  0.00    +0.092 A 
ATOM      9  O   UNL     1      -1.066   1.108  -0.832  0.00  0.00    -0.451 OA
ATOM     10  C   UNL     1      -0.608  -2.507  -0.446  0.00  0.00    +0.135 A 
ATOM     11  C   UNL     1      -0.170   1.443  -1.851  0.00  0.00    +0.181 A 
ENDROOT
BRANCH  11  12
ATOM     12  C   UNL     1      -0.168   2.919  -2.038  0.00  0.00    +0.025 A 
ATOM     13  C   UNL     1       0.616   3.711  -1.186  0.00  0.00    +0.015 A 
ATOM     14  C   UNL     1       0.460   5.107  -1.144  0.00  0.00    +0.050 A 
ATOM     15  C   UNL     1      -0.478   5.717  -1.959  0.00  0.00    +0.158 A 
ATOM     16  C   UNL     1      -1.237   4.963  -2.845  0.00  0.00    +0.159 A 
ATOM     17  C   UNL     1      -1.097   3.562  -2.881  0.00  0.00    +0.060 A 
BRANCH  16  18
ATOM     18  O   UNL     1      -2.128   5.637  -3.634  0.00  0.00    -0.503 OA
ATOM     19  H   UNL     1      -2.230   5.140  -4.463  0.00  0.00    +0.292 HD
ENDBRANCH  16  18
BRANCH  15  20
ATOM     20  O   UNL     1      -0.663   7.066  -1.865  0.00  0.00    -0.503 OA
ATOM     21  H   UNL     1      -1.403   7.267  -2.473  0.00  0.00    +0.292 HD
ENDBRANCH  15  20
ENDBRANCH  11  12
BRANCH  10  22
ATOM     22  O   UNL     1      -0.224  -3.604  -1.170  0.00  0.00    -0.506 OA
ATOM     23  H   UNL     1      -0.023  -4.340  -0.565  0.00  0.00    +0.292 HD
ENDBRANCH  10  22
BRANCH   7  24
ATOM     24  O   UNL     1      -2.283  -1.712   2.782  0.00  0.00    -0.461 OA
BRANCH  24  25
ATOM     25  C   UNL     1      -1.831  -2.720   3.711  0.00  0.00    +0.339 C 
ATOM     26  O   UNL     1      -2.445  -4.005   3.514  0.00  0.00    -0.334 OA
ATOM     27  C   UNL     1      -3.855  -4.028   3.744  0.00  0.00    +0.150 C 
ATOM     28  C   UNL     1      -4.344  -5.456   3.496  0.00  0.00    +0.041 C 
ATOM     29  C   UNL     1      -4.237  -3.597   5.169  0.00  0.00    +0.174 C 
ATOM     30  C   UNL     1      -3.570  -2.266   5.545  0.00  0.00    +0.180 C 
ATOM     31  C   UNL     1      -2.074  -2.242   5.169  0.00  0.00    +0.214 C 
BRANCH  31  32
ATOM     32  O   UNL     1      -1.301  -3.039   6.087  0.00  0.00    -0.383 OA
ATOM     33  H   UNL     1      -1.836  -3.805   6.362  0.00  0.00    +0.210 HD
ENDBRANCH  31  32
BRANCH  30  34
ATOM     34  O   UNL     1      -3.735  -2.066   6.959  0.00  0.00    -0.386 OA
ATOM     35  H   UNL     1      -3.327  -1.218   7.203  0.00  0.00    +0.210 HD
ENDBRANCH  30  34
BRANCH  29  36
ATOM     36  O   UNL     1      -5.664  -3.510   5.298  0.00  0.00    -0.387 OA
ATOM     37  H   UNL     1      -6.020  -2.995   4.555  0.00  0.00    +0.210 HD
ENDBRANCH  29  36
ENDBRANCH  24  25
ENDBRANCH   7  24
BRANCH   1  38
ATOM     38  O   UNL     1       1.661   0.884  -3.357  0.00  0.00    -0.453 OA
BRANCH  38  40
ATOM     39  C   UNL     1       3.951   0.329  -4.323  0.00  0.00    +0.221 C 
ATOM     40  C   UNL     1       2.595  -0.188  -3.708  0.00  0.00    +0.340 C 
ATOM     41  O   UNL     1       2.928  -0.995  -2.554  0.00  0.00    -0.331 OA
ATOM     42  C   UNL     1       3.609  -2.205  -2.940  0.00  0.00    +0.179 C 
ATOM     43  C   UNL     1       5.002  -1.836  -3.443  0.00  0.00    +0.177 C 
ATOM     44  C   UNL     1       4.844  -0.896  -4.628  0.00  0.00    +0.180 C 
BRANCH  44  45
ATOM     45  O   UNL     1       6.153  -0.485  -5.066  0.00  0.00    -0.386 OA
ATOM     46  H   UNL     1       5.984   0.167  -5.777  0.00  0.00    +0.210 HD
ENDBRANCH  44  45
BRANCH  43  47
ATOM     47  O   UNL     1       5.733  -2.990  -3.862  0.00  0.00    -0.386 OA
ATOM     48  H   UNL     1       6.508  -2.640  -4.349  0.00  0.00    +0.210 HD
ENDBRANCH  43  47
BRANCH  42  49
ATOM     49  C   UNL     1       3.702  -3.196  -1.772  0.00  0.00    +0.190 C 
BRANCH  49  50
ATOM     50  O   UNL     1       2.426  -3.568  -1.259  0.00  0.00    -0.392 OA
ATOM     51  H   UNL     1       1.750  -3.394  -1.947  0.00  0.00    +0.210 HD
ENDBRANCH  49  50
ENDBRANCH  42  49
BRANCH  39  52
ATOM     52  O   UNL     1       3.931   0.984  -5.601  0.00  0.00    -0.337 OA
BRANCH  52  56
ATOM     53  C   UNL     1       0.936   3.072  -7.685  0.00  0.00    +0.041 C 
ATOM     54  C   UNL     1       2.388   3.531  -7.606  0.00  0.00    +0.149 C 
ATOM     55  O   UNL     1       3.235   2.466  -7.162  0.00  0.00    -0.343 OA
ATOM     56  C   UNL     1       3.126   2.133  -5.770  0.00  0.00    +0.282 C 
ATOM     57  C   UNL     1       3.563   3.350  -4.924  0.00  0.00    +0.201 C 
ATOM     58  C   UNL     1       2.664   4.549  -5.272  0.00  0.00    +0.179 C 
ATOM     59  C   UNL     1       2.636   4.810  -6.783  0.00  0.00    +0.174 C 
BRANCH  59  60
ATOM     60  O   UNL     1       3.903   5.368  -7.168  0.00  0.00    -0.387 OA
ATOM     61  H   UNL     1       4.525   4.634  -7.331  0.00  0.00    +0.210 HD
ENDBRANCH  59  60
BRANCH  58  62
ATOM     62  O   UNL     1       1.332   4.368  -4.775  0.00  0.00    -0.386 OA
ATOM     63  H   UNL     1       1.078   3.432  -4.775  0.00  0.00    +0.210 HD
ENDBRANCH  58  62
BRANCH  57  64
ATOM     64  O   UNL     1       3.511   3.101  -3.516  0.00  0.00    -0.384 OA
ATOM     65  H   UNL     1       2.620   3.333  -3.195  0.00  0.00    +0.210 HD
ENDBRANCH  57  64
ENDBRANCH  52  56
ENDBRANCH  39  52
ENDBRANCH  38  40
ENDBRANCH   1  38
TORSDOF 20
