REMARK  Name = 
REMARK  14 active torsions:
REMARK  status: ('A' for Active; 'I' for Inactive)
REMARK    1  A    between atoms: C_3  and  O_34
REMARK    2  A    between atoms: C_4  and  O_29
REMARK    3  A    between atoms: C_6  and  C_7
REMARK    4  A    between atoms: C_8  and  O_24
REMARK    5  A    between atoms: C_12  and  O_23
REMARK    6  A    between atoms: C_14  and  O_18
REMARK    7  A    between atoms: O_18  and  S_19
REMARK    8  A    between atoms: S_19  and  O_22
REMARK    9  A    between atoms: O_24  and  S_25
REMARK   10  A    between atoms: S_25  and  O_28
REMARK   11  A    between atoms: O_29  and  S_30
REMARK   12  A    between atoms: S_30  and  O_33
REMARK   13  A    between atoms: O_34  and  S_35
REMARK   14  A    between atoms: S_35  and  O_38
REMARK                            x       y       z     vdW  Elec       q    Type
REMARK                         _______ _______ _______ _____ _____    ______ ____
ROOT
ATOM      1  C   UNL     1      -1.384  -2.524  -0.115  0.00  0.00    +0.184 A 
ATOM      2  O   UNL     1      -0.692  -3.709   0.137  0.00  0.00    -0.451 OA
ATOM      3  C   UNL     1      -1.303  -4.910  -0.111  0.00  0.00    +0.147 A 
ATOM      4  C   UNL     1      -2.641  -4.999  -0.459  0.00  0.00    +0.109 A 
ATOM      5  C   UNL     1      -3.227  -6.256  -0.637  0.00  0.00    +0.135 A 
ATOM      6  C   UNL     1      -2.472  -7.421  -0.496  0.00  0.00    +0.095 A 
ATOM      7  C   UNL     1      -1.111  -7.331  -0.203  0.00  0.00    +0.166 A 
ATOM      8  C   UNL     1      -3.397  -3.757  -0.647  0.00  0.00    +0.241 A 
ATOM      9  O   UNL     1      -4.595  -3.803  -0.922  0.00  0.00    -0.283 OA
ATOM     10  C   UNL     1      -0.531  -6.072   0.010  0.00  0.00    +0.096 A 
ATOM     11  C   UNL     1      -2.670  -2.467  -0.520  0.00  0.00    +0.248 A 
ENDROOT
BRANCH   1  13
ATOM     12  C   UNL     1       0.320  -0.948  -0.997  0.00  0.00    +0.015 A 
ATOM     13  C   UNL     1      -0.483  -1.375   0.063  0.00  0.00    +0.025 A 
ATOM     14  C   UNL     1      -0.288  -0.820   1.337  0.00  0.00    +0.064 A 
ATOM     15  C   UNL     1       0.745   0.103   1.557  0.00  0.00    +0.204 A 
ATOM     16  C   UNL     1       1.641   0.400   0.522  0.00  0.00    +0.203 A 
ATOM     17  C   UNL     1       1.384  -0.073  -0.765  0.00  0.00    +0.053 A 
BRANCH  15  18
ATOM     18  O   UNL     1       0.962   0.687   2.783  0.00  0.00    -0.321 OA
BRANCH  18  19
ATOM     19  S   UNL     1      -0.306   1.211   3.672  0.00  0.00    +0.251 S 
ATOM     20  O   UNL     1      -0.854   0.101   4.415  0.00  0.00    -0.108 OA
ATOM     21  O   UNL     1      -1.142   2.072   2.862  0.00  0.00    -0.108 OA
BRANCH  19  22
ATOM     22  O   UNL     1       0.382   2.206   4.734  0.00  0.00    -0.222 OA
ATOM     23  H   UNL     1       0.184   3.120   4.438  0.00  0.00    +0.248 HD
ENDBRANCH  19  22
ENDBRANCH  18  19
ENDBRANCH  15  18
BRANCH  16  24
ATOM     24  O   UNL     1       2.751   1.153   0.830  0.00  0.00    -0.321 OA
BRANCH  24  25
ATOM     25  S   UNL     1       4.181   0.855   0.088  0.00  0.00    +0.251 S 
ATOM     26  O   UNL     1       4.183   1.494  -1.209  0.00  0.00    -0.108 OA
ATOM     27  O   UNL     1       4.524  -0.543   0.242  0.00  0.00    -0.108 OA
BRANCH  25  28
ATOM     28  O   UNL     1       5.247   1.635   1.003  0.00  0.00    -0.222 OA
ATOM     29  H   UNL     1       5.784   0.957   1.461  0.00  0.00    +0.248 HD
ENDBRANCH  25  28
ENDBRANCH  24  25
ENDBRANCH  16  24
ENDBRANCH   1  13
BRANCH   5  30
ATOM     30  O   UNL     1      -4.548  -6.422  -0.957  0.00  0.00    -0.506 OA
ATOM     31  H   UNL     1      -4.960  -5.534  -1.051  0.00  0.00    +0.292 HD
ENDBRANCH   5  30
BRANCH   7  32
ATOM     32  O   UNL     1      -0.272  -8.411  -0.075  0.00  0.00    -0.325 OA
BRANCH  32  33
ATOM     33  S   UNL     1      -0.601  -9.844  -0.785  0.00  0.00    +0.251 S 
ATOM     34  O   UNL     1      -0.857  -9.643  -2.194  0.00  0.00    -0.108 OA
ATOM     35  O   UNL     1      -1.511 -10.584   0.063  0.00  0.00    -0.108 OA
BRANCH  33  36
ATOM     36  O   UNL     1       0.801 -10.631  -0.662  0.00  0.00    -0.222 OA
ATOM     37  H   UNL     1       0.727 -11.237   0.103  0.00  0.00    +0.248 HD
ENDBRANCH  33  36
ENDBRANCH  32  33
ENDBRANCH   7  32
BRANCH  11  38
ATOM     38  O   UNL     1      -3.373  -1.368  -0.963  0.00  0.00    -0.317 OA
BRANCH  38  39
ATOM     39  S   UNL     1      -3.571   0.004  -0.125  0.00  0.00    +0.252 S 
ATOM     40  O   UNL     1      -2.623   0.979  -0.614  0.00  0.00    -0.108 OA
ATOM     41  O   UNL     1      -3.703  -0.298   1.283  0.00  0.00    -0.108 OA
BRANCH  39  42
ATOM     42  O   UNL     1      -5.033   0.503  -0.589  0.00  0.00    -0.222 OA
ATOM     43  H   UNL     1      -5.573   0.637   0.216  0.00  0.00    +0.248 HD
ENDBRANCH  39  42
ENDBRANCH  38  39
ENDBRANCH  11  38
TORSDOF 14
