REMARK  Name = 
REMARK  17 active torsions:
REMARK  status: ('A' for Active; 'I' for Inactive)
REMARK    1  A    between atoms: C_1  and  C_2
REMARK    2  A    between atoms: C_4  and  O_53
REMARK    3  A    between atoms: C_6  and  O_52
REMARK    4  A    between atoms: C_8  and  O_51
REMARK    5  A    between atoms: C_10  and  O_13
REMARK    6  A    between atoms: O_13  and  C_14
REMARK    7  A    between atoms: C_14  and  C_15
REMARK    8  A    between atoms: C_17  and  O_50
REMARK    9  A    between atoms: C_19  and  O_49
REMARK   10  A    between atoms: C_21  and  O_48
REMARK   11  A    between atoms: C_23  and  O_26
REMARK   12  A    between atoms: O_26  and  C_27
REMARK   13  A    between atoms: C_28  and  C_40
REMARK   14  A    between atoms: C_32  and  O_39
REMARK   15  A    between atoms: C_34  and  O_38
REMARK   16  A    between atoms: C_42  and  O_47
REMARK   17  A    between atoms: C_43  and  O_46
REMARK                            x       y       z     vdW  Elec       q    Type
REMARK                         _______ _______ _______ _____ _____    ______ ____
ROOT
ATOM      1  C   UNL     1       3.226   4.312  -4.396  0.00  0.00    +0.179 C 
ATOM      2  O   UNL     1       3.762   5.538  -3.860  0.00  0.00    -0.331 OA
ATOM      3  C   UNL     1       2.821   6.153  -2.972  0.00  0.00    +0.340 C 
ATOM      4  C   UNL     1       1.649   6.700  -3.821  0.00  0.00    +0.214 C 
ATOM      5  C   UNL     1       1.056   5.475  -4.590  0.00  0.00    +0.180 C 
ATOM      6  C   UNL     1       2.132   4.712  -5.390  0.00  0.00    +0.177 C 
ENDROOT
BRANCH   6   7
ATOM      7  O   UNL     1       2.613   5.565  -6.431  0.00  0.00    -0.386 OA
ATOM      8  H   UNL     1       3.576   5.690  -6.276  0.00  0.00    +0.210 HD
ENDBRANCH   6   7
BRANCH   5   9
ATOM      9  O   UNL     1      -0.056   5.867  -5.402  0.00  0.00    -0.386 OA
ATOM     10  H   UNL     1       0.044   5.419  -6.263  0.00  0.00    +0.210 HD
ENDBRANCH   5   9
BRANCH   4  11
ATOM     11  O   UNL     1       0.648   7.268  -2.959  0.00  0.00    -0.383 OA
ATOM     12  H   UNL     1      -0.200   6.846  -3.194  0.00  0.00    +0.210 HD
ENDBRANCH   4  11
BRANCH   3  13
ATOM     13  O   UNL     1       3.498   7.100  -2.110  0.00  0.00    -0.453 OA
BRANCH  13  14
ATOM     14  C   UNL     1       4.026   6.518  -0.940  0.00  0.00    +0.214 A 
ATOM     15  C   UNL     1       4.137   5.015  -0.811  0.00  0.00    +0.238 A 
ATOM     16  O   UNL     1       4.253   4.256  -1.765  0.00  0.00    -0.283 OA
ATOM     17  C   UNL     1       4.198   4.422   0.507  0.00  0.00    +0.109 A 
ATOM     18  C   UNL     1       4.658   5.242   1.514  0.00  0.00    +0.147 A 
ATOM     19  C   UNL     1       4.910   4.703   2.773  0.00  0.00    +0.092 A 
ATOM     20  C   UNL     1       4.705   3.336   2.986  0.00  0.00    +0.124 A 
ATOM     21  C   UNL     1       4.216   2.505   1.975  0.00  0.00    +0.091 A 
ATOM     22  O   UNL     1       4.934   6.568   1.295  0.00  0.00    -0.451 OA
ATOM     23  C   UNL     1       3.956   3.058   0.733  0.00  0.00    +0.135 A 
ATOM     24  C   UNL     1       4.554   7.208   0.110  0.00  0.00    +0.181 A 
BRANCH  24  25
ATOM     25  C   UNL     1       4.917   8.678   0.181  0.00  0.00    +0.025 A 
ATOM     26  C   UNL     1       5.658   9.133   1.309  0.00  0.00    +0.015 A 
ATOM     27  C   UNL     1       6.251  10.401   1.369  0.00  0.00    +0.050 A 
ATOM     28  C   UNL     1       6.087  11.260   0.307  0.00  0.00    +0.158 A 
ATOM     29  C   UNL     1       5.269  10.897  -0.758  0.00  0.00    +0.159 A 
ATOM     30  C   UNL     1       4.693   9.619  -0.838  0.00  0.00    +0.060 A 
BRANCH  29  31
ATOM     31  O   UNL     1       5.073  11.842  -1.731  0.00  0.00    -0.503 OA
ATOM     32  H   UNL     1       4.197  11.672  -2.120  0.00  0.00    +0.292 HD
ENDBRANCH  29  31
BRANCH  28  33
ATOM     33  O   UNL     1       6.743  12.457   0.312  0.00  0.00    -0.503 OA
ATOM     34  H   UNL     1       6.603  12.820  -0.585  0.00  0.00    +0.292 HD
ENDBRANCH  28  33
ENDBRANCH  24  25
BRANCH  23  35
ATOM     35  O   UNL     1       3.436   2.253  -0.248  0.00  0.00    -0.506 OA
ATOM     36  H   UNL     1       3.550   1.324   0.005  0.00  0.00    +0.292 HD
ENDBRANCH  23  35
BRANCH  20  37
ATOM     37  O   UNL     1       4.965   2.746   4.186  0.00  0.00    -0.507 OA
ATOM     38  H   UNL     1       5.306   3.407   4.811  0.00  0.00    +0.292 HD
ENDBRANCH  20  37
ENDBRANCH  13  14
ENDBRANCH   3  13
BRANCH   1  39
ATOM     39  C   UNL     1       4.364   3.472  -4.971  0.00  0.00    +0.197 C 
BRANCH  39  40
ATOM     40  O   UNL     1       5.021   4.197  -6.000  0.00  0.00    -0.346 OA
BRANCH  40  44
ATOM     41  C   UNL     1       8.196   1.196  -6.484  0.00  0.00    +0.041 C 
ATOM     42  C   UNL     1       8.330   2.644  -6.024  0.00  0.00    +0.149 C 
ATOM     43  O   UNL     1       7.088   3.189  -5.566  0.00  0.00    -0.343 OA
ATOM     44  C   UNL     1       6.118   3.476  -6.573  0.00  0.00    +0.282 C 
ATOM     45  C   UNL     1       6.658   4.387  -7.695  0.00  0.00    +0.201 C 
ATOM     46  C   UNL     1       8.027   3.930  -8.204  0.00  0.00    +0.179 C 
ATOM     47  C   UNL     1       8.966   3.606  -7.036  0.00  0.00    +0.174 C 
BRANCH  47  48
ATOM     48  O   UNL     1       9.271   4.830  -6.342  0.00  0.00    -0.387 OA
ATOM     49  H   UNL     1       8.596   4.962  -5.650  0.00  0.00    +0.210 HD
ENDBRANCH  47  48
BRANCH  46  50
ATOM     50  O   UNL     1       7.897   2.832  -9.119  0.00  0.00    -0.386 OA
ATOM     51  H   UNL     1       7.154   2.265  -8.855  0.00  0.00    +0.210 HD
ENDBRANCH  46  50
BRANCH  45  52
ATOM     52  O   UNL     1       5.716   4.447  -8.780  0.00  0.00    -0.384 OA
ATOM     53  H   UNL     1       6.122   4.024  -9.559  0.00  0.00    +0.210 HD
ENDBRANCH  45  52
ENDBRANCH  40  44
ENDBRANCH  39  40
ENDBRANCH   1  39
TORSDOF 16
