REMARK  Name = 
REMARK  22 active torsions:
REMARK  status: ('A' for Active; 'I' for Inactive)
REMARK    1  A    between atoms: C_3  and  O_60
REMARK    2  A    between atoms: C_4  and  O_59
REMARK    3  A    between atoms: C_6  and  C_7
REMARK    4  A    between atoms: C_8  and  O_20
REMARK    5  A    between atoms: C_12  and  O_19
REMARK    6  A    between atoms: C_14  and  O_18
REMARK    7  A    between atoms: O_20  and  C_21
REMARK    8  A    between atoms: C_23  and  O_47
REMARK    9  A    between atoms: C_25  and  O_46
REMARK   10  A    between atoms: C_27  and  O_45
REMARK   11  A    between atoms: C_29  and  C_32
REMARK   12  A    between atoms: C_32  and  O_33
REMARK   13  A    between atoms: O_33  and  C_34
REMARK   14  A    between atoms: C_34  and  C_36
REMARK   15  A    between atoms: C_38  and  O_44
REMARK   16  A    between atoms: C_39  and  O_43
REMARK   17  A    between atoms: C_40  and  O_42
REMARK   18  A    between atoms: O_47  and  C_48
REMARK   19  A    between atoms: C_48  and  C_50
REMARK   20  A    between atoms: C_52  and  O_58
REMARK   21  A    between atoms: C_53  and  O_57
REMARK   22  A    between atoms: C_54  and  O_56
REMARK                            x       y       z     vdW  Elec       q    Type
REMARK                         _______ _______ _______ _____ _____    ______ ____
ROOT
ATOM      1  C   UNL     1      -2.779  -0.367  -0.644  0.00  0.00    +0.352 C 
ATOM      2  O   UNL     1      -3.293   0.382  -1.773  0.00  0.00    -0.329 OA
ATOM      3  C   UNL     1      -3.236  -0.103  -3.136  0.00  0.00    +0.191 C 
ATOM      4  C   UNL     1      -1.907  -0.808  -3.469  0.00  0.00    +0.179 C 
ATOM      5  C   UNL     1      -1.273  -1.577  -2.291  0.00  0.00    +0.192 C 
ATOM      6  C   UNL     1      -1.308  -0.895  -0.874  0.00  0.00    +0.276 C 
ENDROOT
BRANCH   5   7
ATOM      7  O   UNL     1      -2.016  -2.834  -2.248  0.00  0.00    -0.385 OA
ATOM      8  H   UNL     1      -2.934  -2.644  -1.966  0.00  0.00    +0.210 HD
ENDBRANCH   5   7
BRANCH   4   9
ATOM      9  O   UNL     1      -2.047  -1.689  -4.598  0.00  0.00    -0.386 OA
ATOM     10  H   UNL     1      -2.376  -2.544  -4.250  0.00  0.00    +0.210 HD
ENDBRANCH   4   9
BRANCH   6  11
ATOM     11  O   UNL     1       0.020  -0.314  -0.348  0.00  0.00    -0.449 OA
BRANCH  11  12
ATOM     12  C   UNL     1       0.282   0.721   0.533  0.00  0.00    +0.340 C 
ATOM     13  O   UNL     1      -0.497   1.648   0.703  0.00  0.00    -0.245 OA
BRANCH  12  14
ATOM     14  C   UNL     1       1.653   0.666   1.335  0.00  0.00    +0.066 A 
ATOM     15  C   UNL     1       2.441  -0.499   1.393  0.00  0.00    +0.064 A 
ATOM     16  C   UNL     1       3.642  -0.538   2.140  0.00  0.00    +0.163 A 
ATOM     17  C   UNL     1       4.111   0.562   2.846  0.00  0.00    +0.201 A 
ATOM     18  C   UNL     1       3.368   1.728   2.828  0.00  0.00    +0.163 A 
ATOM     19  C   UNL     1       2.143   1.787   2.103  0.00  0.00    +0.064 A 
BRANCH  18  20
ATOM     20  O   UNL     1       3.899   2.773   3.542  0.00  0.00    -0.503 OA
ATOM     21  H   UNL     1       3.544   3.614   3.209  0.00  0.00    +0.292 HD
ENDBRANCH  18  20
BRANCH  17  22
ATOM     22  O   UNL     1       5.300   0.470   3.526  0.00  0.00    -0.501 OA
ATOM     23  H   UNL     1       5.446   1.350   3.932  0.00  0.00    +0.292 HD
ENDBRANCH  17  22
BRANCH  16  24
ATOM     24  O   UNL     1       4.389  -1.686   2.183  0.00  0.00    -0.503 OA
ATOM     25  H   UNL     1       5.157  -1.468   2.756  0.00  0.00    +0.292 HD
ENDBRANCH  16  24
ENDBRANCH  12  14
ENDBRANCH  11  12
ENDBRANCH   6  11
BRANCH   3  26
ATOM     26  C   UNL     1      -4.581  -0.739  -3.634  0.00  0.00    +0.266 C 
BRANCH  26  27
ATOM     27  O   UNL     1      -4.667  -0.962  -5.080  0.00  0.00    -0.458 OA
BRANCH  27  28
ATOM     28  C   UNL     1      -5.081  -2.192  -5.501  0.00  0.00    +0.340 C 
ATOM     29  O   UNL     1      -5.297  -3.137  -4.753  0.00  0.00    -0.245 OA
BRANCH  28  30
ATOM     30  C   UNL     1      -5.318  -2.310  -6.981  0.00  0.00    +0.066 A 
ATOM     31  C   UNL     1      -5.179  -1.225  -7.857  0.00  0.00    +0.064 A 
ATOM     32  C   UNL     1      -5.403  -1.410  -9.224  0.00  0.00    +0.163 A 
ATOM     33  C   UNL     1      -5.771  -2.654  -9.727  0.00  0.00    +0.201 A 
ATOM     34  C   UNL     1      -5.940  -3.732  -8.872  0.00  0.00    +0.163 A 
ATOM     35  C   UNL     1      -5.716  -3.570  -7.505  0.00  0.00    +0.064 A 
BRANCH  34  36
ATOM     36  O   UNL     1      -6.328  -4.924  -9.424  0.00  0.00    -0.503 OA
ATOM     37  H   UNL     1      -6.519  -5.551  -8.704  0.00  0.00    +0.292 HD
ENDBRANCH  34  36
BRANCH  33  38
ATOM     38  O   UNL     1      -5.968  -2.794 -11.076  0.00  0.00    -0.501 OA
ATOM     39  H   UNL     1      -6.191  -3.742 -11.192  0.00  0.00    +0.292 HD
ENDBRANCH  33  38
BRANCH  32  40
ATOM     40  O   UNL     1      -5.258  -0.358 -10.085  0.00  0.00    -0.503 OA
ATOM     41  H   UNL     1      -5.449  -0.731 -10.971  0.00  0.00    +0.292 HD
ENDBRANCH  32  40
ENDBRANCH  28  30
ENDBRANCH  27  28
ENDBRANCH  26  27
ENDBRANCH   3  26
BRANCH   1  42
ATOM     42  O   UNL     1      -3.551  -1.603  -0.378  0.00  0.00    -0.452 OA
BRANCH  42  53
ATOM     43  C   UNL     1      -4.763  -2.689   1.438  0.00  0.00    +0.181 A 
ATOM     44  O   UNL     1      -5.966  -2.940   2.105  0.00  0.00    -0.451 OA
ATOM     45  C   UNL     1      -7.072  -2.184   1.876  0.00  0.00    +0.147 A 
ATOM     46  C   UNL     1      -7.046  -1.075   1.052  0.00  0.00    +0.109 A 
ATOM     47  C   UNL     1      -8.197  -0.289   0.945  0.00  0.00    +0.135 A 
ATOM     48  C   UNL     1      -9.368  -0.631   1.635  0.00  0.00    +0.091 A 
ATOM     49  C   UNL     1      -9.381  -1.768   2.428  0.00  0.00    +0.124 A 
ATOM     50  C   UNL     1      -5.804  -0.790   0.314  0.00  0.00    +0.238 A 
ATOM     51  O   UNL     1      -5.788   0.170  -0.452  0.00  0.00    -0.283 OA
ATOM     52  C   UNL     1      -8.242  -2.550   2.549  0.00  0.00    +0.092 A 
ATOM     53  C   UNL     1      -4.618  -1.693   0.512  0.00  0.00    +0.214 A 
BRANCH  43  55
ATOM     54  C   UNL     1      -4.161  -4.783   2.752  0.00  0.00    +0.015 A 
ATOM     55  C   UNL     1      -3.738  -3.660   1.980  0.00  0.00    +0.025 A 
ATOM     56  C   UNL     1      -2.363  -3.422   1.953  0.00  0.00    +0.060 A 
ATOM     57  C   UNL     1      -1.473  -4.229   2.672  0.00  0.00    +0.159 A 
ATOM     58  C   UNL     1      -1.931  -5.270   3.477  0.00  0.00    +0.158 A 
ATOM     59  C   UNL     1      -3.277  -5.573   3.511  0.00  0.00    +0.050 A 
BRANCH  58  60
ATOM     60  O   UNL     1      -1.012  -5.947   4.239  0.00  0.00    -0.503 OA
ATOM     61  H   UNL     1      -1.487  -6.499   4.885  0.00  0.00    +0.292 HD
ENDBRANCH  58  60
BRANCH  57  62
ATOM     62  O   UNL     1      -0.137  -3.946   2.636  0.00  0.00    -0.503 OA
ATOM     63  H   UNL     1       0.276  -4.637   3.194  0.00  0.00    +0.292 HD
ENDBRANCH  57  62
ENDBRANCH  43  55
BRANCH  49  64
ATOM     64  O   UNL     1     -10.485  -2.137   3.130  0.00  0.00    -0.507 OA
ATOM     65  H   UNL     1     -11.176  -1.467   3.000  0.00  0.00    +0.292 HD
ENDBRANCH  49  64
BRANCH  47  66
ATOM     66  O   UNL     1      -8.247   0.855   0.188  0.00  0.00    -0.506 OA
ATOM     67  H   UNL     1      -7.365   0.978  -0.231  0.00  0.00    +0.292 HD
ENDBRANCH  47  66
ENDBRANCH  42  53
ENDBRANCH   1  42
TORSDOF 22
