REMARK  Name = 
REMARK  24 active torsions:
REMARK  status: ('A' for Active; 'I' for Inactive)
REMARK    1  A    between atoms: C_1  and  O_2
REMARK    2  A    between atoms: O_2  and  C_3
REMARK    3  A    between atoms: C_4  and  O_67
REMARK    4  A    between atoms: C_7  and  C_9
REMARK    5  A    between atoms: C_10  and  C_11
REMARK    6  A    between atoms: C_11  and  O_13
REMARK    7  A    between atoms: O_13  and  C_14
REMARK    8  A    between atoms: C_14  and  C_15
REMARK    9  A    between atoms: C_17  and  O_66
REMARK   10  A    between atoms: C_19  and  O_65
REMARK   11  A    between atoms: C_21  and  O_64
REMARK   12  A    between atoms: C_23  and  O_26
REMARK   13  A    between atoms: O_26  and  C_27
REMARK   14  A    between atoms: C_29  and  O_63
REMARK   15  A    between atoms: C_31  and  O_62
REMARK   16  A    between atoms: C_33  and  C_60
REMARK   17  A    between atoms: C_36  and  O_38
REMARK   18  A    between atoms: O_38  and  C_39
REMARK   19  A    between atoms: C_40  and  C_52
REMARK   20  A    between atoms: C_44  and  O_51
REMARK   21  A    between atoms: C_46  and  O_50
REMARK   22  A    between atoms: C_54  and  O_59
REMARK   23  A    between atoms: C_55  and  O_58
REMARK   24  A    between atoms: C_60  and  O_61
REMARK                            x       y       z     vdW  Elec       q    Type
REMARK                         _______ _______ _______ _____ _____    ______ ____
ROOT
ATOM      1  C   UNL     1       2.307 -12.874   4.456  0.00  0.00    +0.221 C 
ATOM      2  C   UNL     1       0.881 -13.340   3.893  0.00  0.00    +0.340 C 
ATOM      3  O   UNL     1       0.074 -12.387   3.177  0.00  0.00    -0.331 OA
ATOM      4  C   UNL     1       0.154 -10.978   3.440  0.00  0.00    +0.179 C 
ATOM      5  C   UNL     1       1.582 -10.413   3.677  0.00  0.00    +0.177 C 
ATOM      6  C   UNL     1       2.356 -11.319   4.680  0.00  0.00    +0.180 C 
ENDROOT
BRANCH   6   7
ATOM      7  O   UNL     1       3.709 -10.829   4.799  0.00  0.00    -0.386 OA
ATOM      8  H   UNL     1       4.322 -11.501   4.444  0.00  0.00    +0.210 HD
ENDBRANCH   6   7
BRANCH   5   9
ATOM      9  O   UNL     1       2.341 -10.115   2.482  0.00  0.00    -0.386 OA
ATOM     10  H   UNL     1       2.043 -10.774   1.814  0.00  0.00    +0.210 HD
ENDBRANCH   5   9
BRANCH   4  11
ATOM     11  C   UNL     1      -0.581 -10.254   2.275  0.00  0.00    +0.190 C 
BRANCH  11  12
ATOM     12  O   UNL     1      -0.789  -8.874   2.558  0.00  0.00    -0.392 OA
ATOM     13  H   UNL     1      -0.924  -8.423   1.705  0.00  0.00    +0.210 HD
ENDBRANCH  11  12
ENDBRANCH   4  11
BRANCH   2  14
ATOM     14  O   UNL     1       0.950 -14.595   3.051  0.00  0.00    -0.453 OA
BRANCH  14  15
ATOM     15  C   UNL     1       1.624 -14.505   1.830  0.00  0.00    +0.214 A 
ATOM     16  C   UNL     1       2.413 -13.326   1.582  0.00  0.00    +0.238 A 
ATOM     17  O   UNL     1       1.876 -12.222   1.645  0.00  0.00    -0.283 OA
ATOM     18  C   UNL     1       3.612 -13.287   0.831  0.00  0.00    +0.109 A 
ATOM     19  C   UNL     1       3.255 -13.762  -0.422  0.00  0.00    +0.147 A 
ATOM     20  C   UNL     1       3.690 -13.011  -1.512  0.00  0.00    +0.092 A 
ATOM     21  C   UNL     1       4.408 -11.800  -1.305  0.00  0.00    +0.124 A 
ATOM     22  C   UNL     1       4.777 -11.355  -0.033  0.00  0.00    +0.091 A 
ATOM     23  O   UNL     1       2.242 -14.722  -0.538  0.00  0.00    -0.451 OA
ATOM     24  C   UNL     1       4.419 -12.144   1.038  0.00  0.00    +0.135 A 
ATOM     25  C   UNL     1       1.426 -15.109   0.616  0.00  0.00    +0.181 A 
BRANCH  25  26
ATOM     26  C   UNL     1       0.299 -16.058   0.232  0.00  0.00    +0.025 A 
ATOM     27  C   UNL     1      -0.591 -16.676   1.138  0.00  0.00    +0.015 A 
ATOM     28  C   UNL     1      -1.663 -17.507   0.717  0.00  0.00    +0.050 A 
ATOM     29  C   UNL     1      -1.899 -17.696  -0.631  0.00  0.00    +0.158 A 
ATOM     30  C   UNL     1      -1.070 -17.074  -1.547  0.00  0.00    +0.159 A 
ATOM     31  C   UNL     1       0.022 -16.299  -1.134  0.00  0.00    +0.060 A 
BRANCH  30  32
ATOM     32  O   UNL     1      -1.401 -17.216  -2.877  0.00  0.00    -0.503 OA
ATOM     33  H   UNL     1      -1.043 -16.444  -3.341  0.00  0.00    +0.292 HD
ENDBRANCH  30  32
BRANCH  29  34
ATOM     34  O   UNL     1      -2.950 -18.455  -1.056  0.00  0.00    -0.503 OA
ATOM     35  H   UNL     1      -2.928 -18.388  -2.033  0.00  0.00    +0.292 HD
ENDBRANCH  29  34
ENDBRANCH  25  26
BRANCH  24  36
ATOM     36  O   UNL     1       4.584 -11.622   2.299  0.00  0.00    -0.506 OA
ATOM     37  H   UNL     1       4.072 -10.774   2.343  0.00  0.00    +0.292 HD
ENDBRANCH  24  36
BRANCH  21  38
ATOM     38  O   UNL     1       4.714 -10.949  -2.318  0.00  0.00    -0.507 OA
ATOM     39  H   UNL     1       4.346 -11.274  -3.148  0.00  0.00    +0.292 HD
ENDBRANCH  21  38
ENDBRANCH  14  15
ENDBRANCH   2  14
BRANCH   1  40
ATOM     40  O   UNL     1       2.814 -13.570   5.675  0.00  0.00    -0.337 OA
BRANCH  40  43
ATOM     41  C   UNL     1       1.024 -16.670   5.962  0.00  0.00    +0.190 C 
ATOM     42  O   UNL     1       1.393 -15.301   6.077  0.00  0.00    -0.339 OA
ATOM     43  C   UNL     1       2.721 -15.013   5.642  0.00  0.00    +0.282 C 
ATOM     44  C   UNL     1       3.723 -15.826   6.562  0.00  0.00    +0.201 C 
ATOM     45  C   UNL     1       3.351 -17.329   6.505  0.00  0.00    +0.179 C 
ATOM     46  C   UNL     1       1.890 -17.558   6.860  0.00  0.00    +0.178 C 
BRANCH  46  47
ATOM     47  O   UNL     1       1.618 -18.957   6.706  0.00  0.00    -0.386 OA
ATOM     48  H   UNL     1       0.717 -19.109   7.050  0.00  0.00    +0.210 HD
ENDBRANCH  46  47
BRANCH  45  49
ATOM     49  O   UNL     1       4.158 -18.127   7.402  0.00  0.00    -0.386 OA
ATOM     50  H   UNL     1       3.737 -19.021   7.383  0.00  0.00    +0.210 HD
ENDBRANCH  45  49
BRANCH  44  51
ATOM     51  O   UNL     1       5.093 -15.726   6.141  0.00  0.00    -0.384 OA
ATOM     52  H   UNL     1       5.568 -16.417   6.655  0.00  0.00    +0.210 HD
ENDBRANCH  44  51
BRANCH  41  53
ATOM     53  C   UNL     1      -0.452 -16.771   6.374  0.00  0.00    +0.266 C 
BRANCH  53  54
ATOM     54  O   UNL     1      -0.938 -18.117   6.253  0.00  0.00    -0.459 OA
BRANCH  54  55
ATOM     55  C   UNL     1      -1.159 -18.461   4.959  0.00  0.00    +0.332 C 
ATOM     56  O   UNL     1      -1.095 -17.696   4.013  0.00  0.00    -0.246 OA
BRANCH  55  58
ATOM     57  C   UNL     1      -1.199 -20.432   3.609  0.00  0.00    +0.015 C 
ATOM     58  C   UNL     1      -1.350 -19.913   4.839  0.00  0.00    +0.092 C 
BRANCH  57  61
ATOM     59  C   UNL     1      -0.852 -24.193   3.640  0.00  0.00    +0.162 A 
ATOM     60  C   UNL     1      -0.837 -22.863   4.082  0.00  0.00    +0.057 A 
ATOM     61  C   UNL     1      -1.308 -21.848   3.237  0.00  0.00    -0.021 A 
ATOM     62  C   UNL     1      -1.781 -22.156   1.960  0.00  0.00    +0.012 A 
ATOM     63  C   UNL     1      -1.839 -23.489   1.527  0.00  0.00    +0.050 A 
ATOM     64  C   UNL     1      -1.372 -24.488   2.372  0.00  0.00    +0.158 A 
BRANCH  64  65
ATOM     65  O   UNL     1      -1.415 -25.778   1.917  0.00  0.00    -0.503 OA
ATOM     66  H   UNL     1      -1.062 -26.318   2.637  0.00  0.00    +0.292 HD
ENDBRANCH  64  65
BRANCH  59  68
ATOM     67  C   UNL     1       0.573 -24.945   5.358  0.00  0.00    +0.277 C 
ATOM     68  O   UNL     1      -0.402 -25.268   4.365  0.00  0.00    -0.491 OA
ENDBRANCH  59  68
ENDBRANCH  57  61
ENDBRANCH  55  58
ENDBRANCH  54  55
ENDBRANCH  53  54
ENDBRANCH  41  53
ENDBRANCH  40  43
ENDBRANCH   1  40
TORSDOF 23
