REMARK  Name = 
REMARK  16 active torsions:
REMARK  status: ('A' for Active; 'I' for Inactive)
REMARK    1  A    between atoms: C_1  and  C_2
REMARK    2  A    between atoms: C_4  and  O_52
REMARK    3  A    between atoms: C_6  and  O_51
REMARK    4  A    between atoms: C_8  and  O_50
REMARK    5  A    between atoms: C_10  and  O_13
REMARK    6  A    between atoms: O_13  and  C_14
REMARK    7  A    between atoms: C_16  and  O_49
REMARK    8  A    between atoms: C_18  and  O_48
REMARK    9  A    between atoms: C_20  and  C_47
REMARK   10  A    between atoms: C_23  and  O_25
REMARK   11  A    between atoms: O_25  and  C_26
REMARK   12  A    between atoms: C_27  and  C_39
REMARK   13  A    between atoms: C_31  and  O_38
REMARK   14  A    between atoms: C_33  and  O_37
REMARK   15  A    between atoms: C_41  and  O_46
REMARK   16  A    between atoms: C_42  and  O_45
REMARK                            x       y       z     vdW  Elec       q    Type
REMARK                         _______ _______ _______ _____ _____    ______ ____
ROOT
ATOM      1  O   UNL     1       1.184   1.061  -3.442  0.00  0.00    -0.453 OA
ENDROOT
BRANCH   1   2
ATOM      2  C   UNL     1       1.937  -0.092  -3.360  0.00  0.00    +0.214 A 
ATOM      3  C   UNL     1       3.358  -0.143  -3.851  0.00  0.00    +0.238 A 
ATOM      4  O   UNL     1       3.835   0.671  -4.629  0.00  0.00    -0.283 OA
ATOM      5  C   UNL     1       4.198  -1.226  -3.358  0.00  0.00    +0.109 A 
ATOM      6  C   UNL     1       3.555  -2.305  -2.757  0.00  0.00    +0.147 A 
ATOM      7  C   UNL     1       4.293  -3.382  -2.266  0.00  0.00    +0.092 A 
ATOM      8  C   UNL     1       5.681  -3.365  -2.400  0.00  0.00    +0.124 A 
ATOM      9  C   UNL     1       6.334  -2.306  -3.001  0.00  0.00    +0.091 A 
ATOM     10  O   UNL     1       2.198  -2.381  -2.649  0.00  0.00    -0.451 OA
ATOM     11  C   UNL     1       5.589  -1.227  -3.475  0.00  0.00    +0.135 A 
ATOM     12  C   UNL     1       1.428  -1.234  -2.835  0.00  0.00    +0.181 A 
BRANCH  12  13
ATOM     13  C   UNL     1       0.001  -1.490  -2.420  0.00  0.00    +0.025 A 
ATOM     14  C   UNL     1      -0.252  -2.495  -1.453  0.00  0.00    +0.015 A 
ATOM     15  C   UNL     1      -1.546  -2.952  -1.165  0.00  0.00    +0.050 A 
ATOM     16  C   UNL     1      -2.618  -2.385  -1.823  0.00  0.00    +0.158 A 
ATOM     17  C   UNL     1      -2.414  -1.351  -2.728  0.00  0.00    +0.159 A 
ATOM     18  C   UNL     1      -1.120  -0.906  -3.041  0.00  0.00    +0.060 A 
BRANCH  16  19
ATOM     19  O   UNL     1      -3.874  -2.866  -1.588  0.00  0.00    -0.503 OA
ATOM     20  H   UNL     1      -4.450  -2.372  -2.204  0.00  0.00    +0.292 HD
ENDBRANCH  16  19
BRANCH  17  21
ATOM     21  O   UNL     1      -3.530  -0.806  -3.309  0.00  0.00    -0.503 OA
ATOM     22  H   UNL     1      -3.282   0.052  -3.691  0.00  0.00    +0.292 HD
ENDBRANCH  17  21
ENDBRANCH  12  13
BRANCH   8  23
ATOM     23  O   UNL     1       6.449  -4.393  -1.926  0.00  0.00    -0.507 OA
ATOM     24  H   UNL     1       5.874  -5.057  -1.513  0.00  0.00    +0.292 HD
ENDBRANCH   8  23
BRANCH  11  25
ATOM     25  O   UNL     1       6.245  -0.162  -4.031  0.00  0.00    -0.506 OA
ATOM     26  H   UNL     1       7.190  -0.362  -4.135  0.00  0.00    +0.292 HD
ENDBRANCH  11  25
ENDBRANCH   1   2
BRANCH   1  28
ATOM     27  C   UNL     1       2.750   3.043  -3.163  0.00  0.00    +0.221 C 
ATOM     28  C   UNL     1       1.684   2.276  -4.026  0.00  0.00    +0.340 C 
ATOM     29  O   UNL     1       1.979   2.158  -5.424  0.00  0.00    -0.334 OA
ATOM     30  C   UNL     1       2.328   3.386  -6.081  0.00  0.00    +0.150 C 
ATOM     31  C   UNL     1       1.083   4.245  -6.333  0.00  0.00    +0.041 C 
ATOM     32  C   UNL     1       3.491   4.104  -5.368  0.00  0.00    +0.174 C 
ATOM     33  C   UNL     1       3.218   4.346  -3.874  0.00  0.00    +0.180 C 
BRANCH  32  34
ATOM     34  O   UNL     1       4.692   3.348  -5.518  0.00  0.00    -0.387 OA
ATOM     35  H   UNL     1       4.482   2.399  -5.368  0.00  0.00    +0.210 HD
ENDBRANCH  32  34
BRANCH  33  36
ATOM     36  O   UNL     1       2.299   5.442  -3.770  0.00  0.00    -0.386 OA
ATOM     37  H   UNL     1       1.395   5.074  -3.843  0.00  0.00    +0.210 HD
ENDBRANCH  33  36
BRANCH  27  38
ATOM     38  O   UNL     1       2.440   3.146  -1.748  0.00  0.00    -0.337 OA
BRANCH  38  42
ATOM     39  C   UNL     1       1.851   6.813   0.460  0.00  0.00    +0.041 C 
ATOM     40  C   UNL     1       1.223   5.461   0.808  0.00  0.00    +0.149 C 
ATOM     41  O   UNL     1       1.875   4.338   0.179  0.00  0.00    -0.343 OA
ATOM     42  C   UNL     1       1.716   4.276  -1.250  0.00  0.00    +0.282 C 
ATOM     43  C   UNL     1       0.216   4.192  -1.621  0.00  0.00    +0.201 C 
ATOM     44  C   UNL     1      -0.618   5.259  -0.923  0.00  0.00    +0.179 C 
ATOM     45  C   UNL     1      -0.289   5.388   0.553  0.00  0.00    +0.174 C 
BRANCH  43  46
ATOM     46  O   UNL     1       0.012   4.408  -3.028  0.00  0.00    -0.384 OA
ATOM     47  H   UNL     1      -0.702   5.072  -3.115  0.00  0.00    +0.210 HD
ENDBRANCH  43  46
BRANCH  44  48
ATOM     48  O   UNL     1      -0.481   6.499  -1.639  0.00  0.00    -0.386 OA
ATOM     49  H   UNL     1       0.447   6.623  -1.914  0.00  0.00    +0.210 HD
ENDBRANCH  44  48
BRANCH  45  50
ATOM     50  O   UNL     1      -0.813   4.232   1.225  0.00  0.00    -0.387 OA
ATOM     51  H   UNL     1      -0.125   3.538   1.204  0.00  0.00    +0.210 HD
ENDBRANCH  45  50
ENDBRANCH  38  42
ENDBRANCH  27  38
ENDBRANCH   1  28
TORSDOF 14
