REMARK  Name = 
REMARK  9 active torsions:
REMARK  status: ('A' for Active; 'I' for Inactive)
REMARK    1  A    between atoms: C_1  and  C_2
REMARK    2  A    between atoms: C_3  and  O_25
REMARK    3  A    between atoms: C_4  and  C_24
REMARK    4  A    between atoms: C_7  and  O_8
REMARK    5  A    between atoms: C_11  and  O_22
REMARK    6  A    between atoms: C_12  and  C_14
REMARK    7  A    between atoms: C_16  and  O_21
REMARK    8  A    between atoms: C_17  and  O_20
REMARK    9  A    between atoms: O_22  and  C_23
REMARK                            x       y       z     vdW  Elec       q    Type
REMARK                         _______ _______ _______ _____ _____    ______ ____
ROOT
ATOM      1  C   UNL     1       1.018  -0.201  -0.072  0.00  0.00    +0.051 C 
ATOM      2  C   UNL     1       2.523  -0.213  -0.041  0.00  0.00    +0.034 A 
ATOM      3  C   UNL     1       3.179   1.025  -0.009  0.00  0.00    +0.138 A 
ATOM      4  C   UNL     1       4.579   1.104   0.052  0.00  0.00    +0.110 A 
ATOM      5  C   UNL     1       5.249   2.403   0.092  0.00  0.00    +0.238 A 
ATOM      6  C   UNL     1       6.725   2.438  -0.103  0.00  0.00    +0.211 A 
ATOM      7  C   UNL     1       7.396   1.261  -0.001  0.00  0.00    +0.181 A 
ATOM      8  O   UNL     1       6.735   0.033   0.159  0.00  0.00    -0.450 OA
ATOM      9  O   UNL     1       4.567   3.407   0.264  0.00  0.00    -0.283 OA
ATOM     10  C   UNL     1       5.360  -0.037   0.074  0.00  0.00    +0.149 A 
ATOM     11  C   UNL     1       4.738  -1.299   0.024  0.00  0.00    +0.034 A 
ATOM     12  C   UNL     1       5.577  -2.550   0.014  0.00  0.00    +0.051 C 
ATOM     13  C   UNL     1       3.324  -1.368  -0.035  0.00  0.00    +0.130 A 
ENDROOT
BRANCH   7  14
ATOM     14  C   UNL     1       8.899   1.096  -0.079  0.00  0.00    +0.025 A 
ATOM     15  C   UNL     1       9.489  -0.166   0.168  0.00  0.00    +0.015 A 
ATOM     16  C   UNL     1      10.867  -0.393   0.003  0.00  0.00    +0.050 A 
ATOM     17  C   UNL     1      11.678   0.638  -0.432  0.00  0.00    +0.158 A 
ATOM     18  C   UNL     1      11.140   1.895  -0.650  0.00  0.00    +0.159 A 
ATOM     19  C   UNL     1       9.780   2.134  -0.442  0.00  0.00    +0.060 A 
BRANCH  17  20
ATOM     20  O   UNL     1      13.000   0.411  -0.675  0.00  0.00    -0.503 OA
ATOM     21  H   UNL     1      13.342   1.268  -1.000  0.00  0.00    +0.292 HD
ENDBRANCH  17  20
BRANCH  18  22
ATOM     22  O   UNL     1      11.975   2.875  -1.114  0.00  0.00    -0.503 OA
ATOM     23  H   UNL     1      11.424   3.608  -1.440  0.00  0.00    +0.292 HD
ENDBRANCH  18  22
ENDBRANCH   7  14
BRANCH   3  24
ATOM     24  O   UNL     1       2.392   2.150  -0.050  0.00  0.00    -0.506 OA
ATOM     25  H   UNL     1       2.971   2.938   0.067  0.00  0.00    +0.292 HD
ENDBRANCH   3  24
BRANCH   6  26
ATOM     26  O   UNL     1       7.345   3.660  -0.319  0.00  0.00    -0.488 OA
ATOM     27  C   UNL     1       6.622   4.591  -1.127  0.00  0.00    +0.277 C 
ENDBRANCH   6  26
BRANCH  13  28
ATOM     28  O   UNL     1       2.773  -2.623  -0.075  0.00  0.00    -0.506 OA
ATOM     29  H   UNL     1       1.812  -2.579  -0.179  0.00  0.00    +0.292 HD
ENDBRANCH  13  28
TORSDOF 6
