REMARK  Name = 
REMARK  12 active torsions:
REMARK  status: ('A' for Active; 'I' for Inactive)
REMARK    1  A    between atoms: C_3  and  O_38
REMARK    2  A    between atoms: C_4  and  O_37
REMARK    3  A    between atoms: C_6  and  C_7
REMARK    4  A    between atoms: C_8  and  O_20
REMARK    5  A    between atoms: C_12  and  O_19
REMARK    6  A    between atoms: C_14  and  O_18
REMARK    7  A    between atoms: O_20  and  C_21
REMARK    8  A    between atoms: C_23  and  O_36
REMARK    9  A    between atoms: C_25  and  O_35
REMARK   10  A    between atoms: C_27  and  O_34
REMARK   11  A    between atoms: C_29  and  C_32
REMARK   12  A    between atoms: C_32  and  O_33
REMARK                            x       y       z     vdW  Elec       q    Type
REMARK                         _______ _______ _______ _____ _____    ______ ____
ROOT
ATOM      1  C   UNL     1      -2.863  -0.641   2.257  0.00  0.00    +0.181 A 
ATOM      2  O   UNL     1      -2.966  -0.770   3.634  0.00  0.00    -0.451 OA
ATOM      3  C   UNL     1      -2.809   0.344   4.418  0.00  0.00    +0.147 A 
ATOM      4  C   UNL     1      -2.873   1.627   3.893  0.00  0.00    +0.109 A 
ATOM      5  C   UNL     1      -2.896   2.733   4.748  0.00  0.00    +0.135 A 
ATOM      6  C   UNL     1      -2.762   2.561   6.123  0.00  0.00    +0.091 A 
ATOM      7  C   UNL     1      -2.605   1.274   6.631  0.00  0.00    +0.124 A 
ATOM      8  C   UNL     1      -2.897   1.770   2.435  0.00  0.00    +0.238 A 
ATOM      9  O   UNL     1      -3.141   2.870   1.944  0.00  0.00    -0.283 OA
ATOM     10  C   UNL     1      -2.643   0.162   5.791  0.00  0.00    +0.092 A 
ATOM     11  C   UNL     1      -2.650   0.536   1.618  0.00  0.00    +0.214 A 
ENDROOT
BRANCH   1  13
ATOM     12  C   UNL     1      -3.584  -2.057   0.283  0.00  0.00    +0.015 A 
ATOM     13  C   UNL     1      -2.979  -1.953   1.554  0.00  0.00    +0.025 A 
ATOM     14  C   UNL     1      -2.573  -3.142   2.185  0.00  0.00    +0.060 A 
ATOM     15  C   UNL     1      -2.654  -4.353   1.508  0.00  0.00    +0.159 A 
ATOM     16  C   UNL     1      -3.127  -4.410   0.203  0.00  0.00    +0.158 A 
ATOM     17  C   UNL     1      -3.639  -3.274  -0.403  0.00  0.00    +0.050 A 
BRANCH  15  18
ATOM     18  O   UNL     1      -2.238  -5.496   2.129  0.00  0.00    -0.503 OA
ATOM     19  H   UNL     1      -2.417  -6.209   1.483  0.00  0.00    +0.292 HD
ENDBRANCH  15  18
BRANCH  16  20
ATOM     20  O   UNL     1      -3.053  -5.603  -0.456  0.00  0.00    -0.503 OA
ATOM     21  H   UNL     1      -2.942  -5.400  -1.402  0.00  0.00    +0.292 HD
ENDBRANCH  16  20
ENDBRANCH   1  13
BRANCH   5  22
ATOM     22  O   UNL     1      -3.063   4.016   4.302  0.00  0.00    -0.506 OA
ATOM     23  H   UNL     1      -3.190   3.986   3.327  0.00  0.00    +0.292 HD
ENDBRANCH   5  22
BRANCH   7  24
ATOM     24  O   UNL     1      -2.420   1.058   7.963  0.00  0.00    -0.507 OA
ATOM     25  H   UNL     1      -2.393   1.916   8.420  0.00  0.00    +0.292 HD
ENDBRANCH   7  24
BRANCH  11  26
ATOM     26  O   UNL     1      -2.303   0.591   0.275  0.00  0.00    -0.453 OA
BRANCH  26  27
ATOM     27  C   UNL     1      -1.729   1.817  -0.219  0.00  0.00    +0.340 C 
ATOM     28  O   UNL     1      -0.640   2.293   0.586  0.00  0.00    -0.331 OA
ATOM     29  C   UNL     1      -0.180   3.587   0.162  0.00  0.00    +0.179 C 
ATOM     30  C   UNL     1       0.301   3.576  -1.305  0.00  0.00    +0.177 C 
ATOM     31  C   UNL     1      -0.742   2.915  -2.215  0.00  0.00    +0.180 C 
ATOM     32  C   UNL     1      -1.166   1.561  -1.635  0.00  0.00    +0.214 C 
BRANCH  30  33
ATOM     33  O   UNL     1       0.604   4.918  -1.717  0.00  0.00    -0.386 OA
ATOM     34  H   UNL     1      -0.107   5.228  -2.308  0.00  0.00    +0.210 HD
ENDBRANCH  30  33
BRANCH  31  35
ATOM     35  O   UNL     1      -0.206   2.743  -3.532  0.00  0.00    -0.386 OA
ATOM     36  H   UNL     1      -0.840   2.163  -4.000  0.00  0.00    +0.210 HD
ENDBRANCH  31  35
BRANCH  32  37
ATOM     37  O   UNL     1      -2.109   0.956  -2.527  0.00  0.00    -0.383 OA
ATOM     38  H   UNL     1      -2.217   0.038  -2.211  0.00  0.00    +0.210 HD
ENDBRANCH  32  37
BRANCH  29  39
ATOM     39  C   UNL     1       0.964   4.042   1.086  0.00  0.00    +0.190 C 
BRANCH  39  40
ATOM     40  O   UNL     1       1.408   5.365   0.801  0.00  0.00    -0.392 OA
ATOM     41  H   UNL     1       1.483   5.444  -0.176  0.00  0.00    +0.210 HD
ENDBRANCH  39  40
ENDBRANCH  29  39
ENDBRANCH  26  27
ENDBRANCH  11  26
TORSDOF 12
