REMARK  Name = 
REMARK  21 active torsions:
REMARK  status: ('A' for Active; 'I' for Inactive)
REMARK    1  A    between atoms: C_1  and  C_2
REMARK    2  A    between atoms: C_4  and  O_66
REMARK    3  A    between atoms: C_6  and  O_65
REMARK    4  A    between atoms: C_8  and  O_64
REMARK    5  A    between atoms: C_10  and  O_13
REMARK    6  A    between atoms: O_13  and  C_14
REMARK    7  A    between atoms: C_16  and  O_63
REMARK    8  A    between atoms: C_18  and  O_62
REMARK    9  A    between atoms: C_22  and  O_24
REMARK   10  A    between atoms: O_24  and  C_25
REMARK   11  A    between atoms: C_26  and  C_54
REMARK   12  A    between atoms: C_30  and  O_37
REMARK   13  A    between atoms: C_32  and  O_36
REMARK   14  A    between atoms: O_37  and  C_38
REMARK   15  A    between atoms: C_40  and  O_53
REMARK   16  A    between atoms: C_42  and  O_52
REMARK   17  A    between atoms: C_44  and  O_51
REMARK   18  A    between atoms: C_46  and  C_49
REMARK   19  A    between atoms: C_49  and  O_50
REMARK   20  A    between atoms: C_56  and  O_61
REMARK   21  A    between atoms: C_57  and  O_60
REMARK                            x       y       z     vdW  Elec       q    Type
REMARK                         _______ _______ _______ _____ _____    ______ ____
ROOT
ATOM      1  C   UNL     1       0.461   0.775  -2.800  0.00  0.00    +0.214 A 
ATOM      2  C   UNL     1       0.317  -0.674  -2.385  0.00  0.00    +0.238 A 
ATOM      3  O   UNL     1       0.793  -1.547  -3.107  0.00  0.00    -0.283 OA
ATOM      4  C   UNL     1      -0.348  -0.971  -1.087  0.00  0.00    +0.109 A 
ATOM      5  C   UNL     1      -0.890   0.095  -0.407  0.00  0.00    +0.147 A 
ATOM      6  C   UNL     1      -1.443  -0.038   0.879  0.00  0.00    +0.093 A 
ATOM      7  C   UNL     1      -1.486  -1.276   1.501  0.00  0.00    +0.131 A 
ATOM      8  C   UNL     1      -0.986  -2.383   0.804  0.00  0.00    +0.092 A 
ATOM      9  O   UNL     1      -0.943   1.361  -0.920  0.00  0.00    -0.451 OA
ATOM     10  C   UNL     1      -0.430  -2.234  -0.483  0.00  0.00    +0.135 A 
ATOM     11  C   UNL     1      -0.222   1.685  -2.054  0.00  0.00    +0.181 A 
ENDROOT
BRANCH  11  12
ATOM     12  C   UNL     1      -0.348   3.149  -2.201  0.00  0.00    +0.025 A 
ATOM     13  C   UNL     1       0.455   3.985  -1.411  0.00  0.00    +0.015 A 
ATOM     14  C   UNL     1       0.219   5.366  -1.363  0.00  0.00    +0.050 A 
ATOM     15  C   UNL     1      -0.805   5.910  -2.121  0.00  0.00    +0.158 A 
ATOM     16  C   UNL     1      -1.592   5.097  -2.926  0.00  0.00    +0.159 A 
ATOM     17  C   UNL     1      -1.405   3.714  -2.938  0.00  0.00    +0.060 A 
BRANCH  16  18
ATOM     18  O   UNL     1      -2.516   5.713  -3.729  0.00  0.00    -0.503 OA
ATOM     19  H   UNL     1      -2.699   5.126  -4.485  0.00  0.00    +0.292 HD
ENDBRANCH  16  18
BRANCH  15  20
ATOM     20  O   UNL     1      -1.031   7.254  -2.074  0.00  0.00    -0.503 OA
ATOM     21  H   UNL     1      -1.830   7.396  -2.620  0.00  0.00    +0.292 HD
ENDBRANCH  15  20
ENDBRANCH  11  12
BRANCH  10  22
ATOM     22  O   UNL     1       0.041  -3.343  -1.135  0.00  0.00    -0.506 OA
ATOM     23  H   UNL     1      -0.201  -4.153  -0.658  0.00  0.00    +0.292 HD
ENDBRANCH  10  22
BRANCH   7  24
ATOM     24  O   UNL     1      -1.944  -1.480   2.777  0.00  0.00    -0.461 OA
BRANCH  24  25
ATOM     25  C   UNL     1      -2.941  -0.568   3.283  0.00  0.00    +0.339 C 
ATOM     26  O   UNL     1      -2.446   0.698   3.726  0.00  0.00    -0.331 OA
ATOM     27  C   UNL     1      -1.712   0.749   4.957  0.00  0.00    +0.179 C 
ATOM     28  C   UNL     1      -2.048  -0.280   6.064  0.00  0.00    +0.177 C 
ATOM     29  C   UNL     1      -2.823  -1.527   5.612  0.00  0.00    +0.180 C 
ATOM     30  C   UNL     1      -3.739  -1.226   4.423  0.00  0.00    +0.214 C 
BRANCH  29  31
ATOM     31  O   UNL     1      -1.903  -2.585   5.348  0.00  0.00    -0.386 OA
ATOM     32  H   UNL     1      -2.344  -3.239   4.776  0.00  0.00    +0.210 HD
ENDBRANCH  29  31
BRANCH  30  33
ATOM     33  O   UNL     1      -4.832  -0.393   4.841  0.00  0.00    -0.383 OA
ATOM     34  H   UNL     1      -4.467   0.343   5.376  0.00  0.00    +0.210 HD
ENDBRANCH  30  33
BRANCH  28  35
ATOM     35  O   UNL     1      -2.886   0.404   7.023  0.00  0.00    -0.386 OA
ATOM     36  H   UNL     1      -2.886  -0.133   7.839  0.00  0.00    +0.210 HD
ENDBRANCH  28  35
BRANCH  27  37
ATOM     37  C   UNL     1      -0.217   0.869   4.635  0.00  0.00    +0.190 C 
BRANCH  37  38
ATOM     38  O   UNL     1      -0.009   1.926   3.686  0.00  0.00    -0.392 OA
ATOM     39  H   UNL     1      -0.889   2.162   3.332  0.00  0.00    +0.210 HD
ENDBRANCH  37  38
ENDBRANCH  27  37
ENDBRANCH  24  25
ENDBRANCH   7  24
BRANCH   1  40
ATOM     40  O   UNL     1       1.280   0.923  -3.914  0.00  0.00    -0.453 OA
BRANCH  40  42
ATOM     41  C   UNL     1       2.450   2.006  -5.816  0.00  0.00    +0.221 C 
ATOM     42  C   UNL     1       1.540   2.173  -4.550  0.00  0.00    +0.340 C 
ATOM     43  O   UNL     1       0.295   2.736  -4.984  0.00  0.00    -0.337 OA
ATOM     44  C   UNL     1       0.444   4.082  -5.444  0.00  0.00    +0.198 C 
ATOM     45  C   UNL     1       1.222   4.062  -6.742  0.00  0.00    +0.171 C 
ATOM     46  C   UNL     1       2.579   3.409  -6.471  0.00  0.00    +0.180 C 
BRANCH  46  47
ATOM     47  O   UNL     1       3.352   3.341  -7.674  0.00  0.00    -0.386 OA
ATOM     48  H   UNL     1       4.115   2.770  -7.461  0.00  0.00    +0.210 HD
ENDBRANCH  46  47
BRANCH  45  49
ATOM     49  O   UNL     1       0.454   3.329  -7.707  0.00  0.00    -0.387 OA
ATOM     50  H   UNL     1       0.127   2.519  -7.273  0.00  0.00    +0.210 HD
ENDBRANCH  45  49
BRANCH  41  51
ATOM     51  O   UNL     1       3.818   1.611  -5.630  0.00  0.00    -0.337 OA
BRANCH  51  55
ATOM     52  C   UNL     1       5.974  -0.690  -2.844  0.00  0.00    +0.041 C 
ATOM     53  C   UNL     1       6.129  -0.834  -4.354  0.00  0.00    +0.149 C 
ATOM     54  O   UNL     1       5.554   0.293  -5.025  0.00  0.00    -0.343 OA
ATOM     55  C   UNL     1       4.117   0.343  -5.060  0.00  0.00    +0.282 C 
ATOM     56  C   UNL     1       3.600  -0.891  -5.840  0.00  0.00    +0.201 C 
ATOM     57  C   UNL     1       4.111  -2.183  -5.162  0.00  0.00    +0.179 C 
ATOM     58  C   UNL     1       5.624  -2.166  -4.943  0.00  0.00    +0.174 C 
BRANCH  58  59
ATOM     59  O   UNL     1       6.277  -2.385  -6.216  0.00  0.00    -0.387 OA
ATOM     60  H   UNL     1       6.344  -1.523  -6.671  0.00  0.00    +0.210 HD
ENDBRANCH  58  59
BRANCH  57  61
ATOM     61  O   UNL     1       3.463  -2.451  -3.916  0.00  0.00    -0.386 OA
ATOM     62  H   UNL     1       3.238  -1.643  -3.428  0.00  0.00    +0.210 HD
ENDBRANCH  57  61
BRANCH  56  63
ATOM     63  O   UNL     1       2.179  -0.932  -5.953  0.00  0.00    -0.384 OA
ATOM     64  H   UNL     1       1.816  -1.379  -5.153  0.00  0.00    +0.210 HD
ENDBRANCH  56  63
ENDBRANCH  51  55
ENDBRANCH  41  51
ENDBRANCH  40  42
ENDBRANCH   1  40
TORSDOF 20
