REMARK  Name = 
REMARK  26 active torsions:
REMARK  status: ('A' for Active; 'I' for Inactive)
REMARK    1  A    between atoms: C_1  and  C_2
REMARK    2  A    between atoms: C_4  and  O_66
REMARK    3  A    between atoms: C_6  and  O_65
REMARK    4  A    between atoms: C_8  and  O_64
REMARK    5  A    between atoms: C_10  and  O_13
REMARK    6  A    between atoms: O_13  and  C_14
REMARK    7  A    between atoms: C_16  and  O_63
REMARK    8  A    between atoms: C_18  and  O_62
REMARK    9  A    between atoms: C_22  and  O_24
REMARK   10  A    between atoms: O_24  and  C_25
REMARK   11  A    between atoms: C_26  and  C_54
REMARK   12  A    between atoms: C_30  and  O_37
REMARK   13  A    between atoms: C_32  and  O_36
REMARK   14  A    between atoms: O_37  and  C_38
REMARK   15  A    between atoms: C_40  and  O_53
REMARK   16  A    between atoms: C_42  and  O_52
REMARK   17  A    between atoms: C_44  and  O_51
REMARK   18  A    between atoms: C_46  and  C_49
REMARK   19  A    between atoms: C_49  and  O_50
REMARK   20  A    between atoms: C_56  and  O_61
REMARK   21  A    between atoms: C_57  and  O_60
REMARK   22  A    between atoms: O_66  and  C_67
REMARK   23  A    between atoms: C_67  and  C_69
REMARK   24  A    between atoms: C_70  and  C_71
REMARK   25  A    between atoms: C_73  and  O_78
REMARK   26  A    between atoms: C_74  and  O_77
REMARK                            x       y       z     vdW  Elec       q    Type
REMARK                         _______ _______ _______ _____ _____    ______ ____
ROOT
ATOM      1  C   UNL     1       0.139   0.548  -4.002  0.00  0.00    +0.214 A 
ATOM      2  C   UNL     1      -0.957   1.597  -3.902  0.00  0.00    +0.238 A 
ATOM      3  O   UNL     1      -0.876   2.498  -3.073  0.00  0.00    -0.283 OA
ATOM      4  C   UNL     1      -2.120   1.449  -4.789  0.00  0.00    +0.109 A 
ATOM      5  C   UNL     1      -2.353   0.171  -5.255  0.00  0.00    +0.147 A 
ATOM      6  C   UNL     1      -3.448  -0.103  -6.082  0.00  0.00    +0.093 A 
ATOM      7  C   UNL     1      -4.339   0.908  -6.455  0.00  0.00    +0.131 A 
ATOM      8  C   UNL     1      -4.132   2.197  -5.965  0.00  0.00    +0.092 A 
ATOM      9  O   UNL     1      -1.586  -0.887  -4.871  0.00  0.00    -0.451 OA
ATOM     10  C   UNL     1      -3.026   2.464  -5.131  0.00  0.00    +0.135 A 
ATOM     11  C   UNL     1      -0.317  -0.702  -4.306  0.00  0.00    +0.181 A 
ENDROOT
BRANCH  11  12
ATOM     12  C   UNL     1       0.315  -2.062  -4.085  0.00  0.00    +0.025 A 
ATOM     13  C   UNL     1      -0.541  -3.198  -4.184  0.00  0.00    +0.015 A 
ATOM     14  C   UNL     1      -0.120  -4.510  -3.925  0.00  0.00    +0.050 A 
ATOM     15  C   UNL     1       1.187  -4.724  -3.568  0.00  0.00    +0.158 A 
ATOM     16  C   UNL     1       2.071  -3.654  -3.489  0.00  0.00    +0.159 A 
ATOM     17  C   UNL     1       1.648  -2.330  -3.738  0.00  0.00    +0.060 A 
BRANCH  16  18
ATOM     18  O   UNL     1       3.364  -3.963  -3.160  0.00  0.00    -0.503 OA
ATOM     19  H   UNL     1       3.927  -3.199  -3.365  0.00  0.00    +0.292 HD
ENDBRANCH  16  18
BRANCH  15  20
ATOM     20  O   UNL     1       1.593  -6.001  -3.298  0.00  0.00    -0.503 OA
ATOM     21  H   UNL     1       2.528  -5.916  -3.025  0.00  0.00    +0.292 HD
ENDBRANCH  15  20
ENDBRANCH  11  12
BRANCH  10  22
ATOM     22  O   UNL     1      -2.843   3.733  -4.657  0.00  0.00    -0.506 OA
ATOM     23  H   UNL     1      -3.634   4.273  -4.820  0.00  0.00    +0.292 HD
ENDBRANCH  10  22
BRANCH   7  24
ATOM     24  O   UNL     1      -5.405   0.483  -7.198  0.00  0.00    -0.461 OA
BRANCH  24  25
ATOM     25  C   UNL     1      -6.048   1.387  -8.114  0.00  0.00    +0.339 C 
ATOM     26  O   UNL     1      -6.901   2.310  -7.457  0.00  0.00    -0.331 OA
ATOM     27  C   UNL     1      -8.237   1.917  -7.125  0.00  0.00    +0.179 C 
ATOM     28  C   UNL     1      -8.778   0.523  -7.561  0.00  0.00    +0.177 C 
ATOM     29  C   UNL     1      -7.872  -0.305  -8.486  0.00  0.00    +0.180 C 
ATOM     30  C   UNL     1      -6.820   0.569  -9.171  0.00  0.00    +0.214 C 
BRANCH  30  31
ATOM     31  O   UNL     1      -7.425   1.416 -10.159  0.00  0.00    -0.383 OA
ATOM     32  H   UNL     1      -8.349   1.603  -9.899  0.00  0.00    +0.210 HD
ENDBRANCH  30  31
BRANCH  29  33
ATOM     33  O   UNL     1      -7.323  -1.410  -7.762  0.00  0.00    -0.386 OA
ATOM     34  H   UNL     1      -6.351  -1.378  -7.808  0.00  0.00    +0.210 HD
ENDBRANCH  29  33
BRANCH  28  35
ATOM     35  O   UNL     1     -10.000   0.772  -8.298  0.00  0.00    -0.386 OA
ATOM     36  H   UNL     1     -10.438  -0.091  -8.428  0.00  0.00    +0.210 HD
ENDBRANCH  28  35
BRANCH  27  37
ATOM     37  C   UNL     1      -8.374   2.158  -5.615  0.00  0.00    +0.190 C 
BRANCH  37  38
ATOM     38  O   UNL     1      -7.569   1.244  -4.878  0.00  0.00    -0.392 OA
ATOM     39  H   UNL     1      -6.673   1.296  -5.257  0.00  0.00    +0.210 HD
ENDBRANCH  37  38
ENDBRANCH  27  37
ENDBRANCH  24  25
ENDBRANCH   7  24
BRANCH   1  40
ATOM     40  O   UNL     1       1.438   0.879  -3.586  0.00  0.00    -0.453 OA
BRANCH  40  42
ATOM     41  C   UNL     1       2.995   2.883  -3.232  0.00  0.00    +0.221 C 
ATOM     42  C   UNL     1       1.857   2.198  -4.061  0.00  0.00    +0.340 C 
ATOM     43  O   UNL     1       2.270   2.098  -5.439  0.00  0.00    -0.337 OA
ATOM     44  C   UNL     1       2.386   3.396  -6.051  0.00  0.00    +0.198 C 
ATOM     45  C   UNL     1       3.485   4.213  -5.368  0.00  0.00    +0.171 C 
ATOM     46  C   UNL     1       3.204   4.284  -3.862  0.00  0.00    +0.180 C 
BRANCH  46  47
ATOM     47  O   UNL     1       4.240   4.994  -3.171  0.00  0.00    -0.386 OA
ATOM     48  H   UNL     1       4.048   4.863  -2.221  0.00  0.00    +0.210 HD
ENDBRANCH  46  47
BRANCH  45  49
ATOM     49  O   UNL     1       4.750   3.597  -5.638  0.00  0.00    -0.387 OA
ATOM     50  H   UNL     1       4.653   2.638  -5.505  0.00  0.00    +0.210 HD
ENDBRANCH  45  49
BRANCH  41  51
ATOM     51  O   UNL     1       2.737   3.178  -1.847  0.00  0.00    -0.337 OA
BRANCH  51  55
ATOM     52  C   UNL     1       0.069   1.356   0.892  0.00  0.00    +0.042 C 
ATOM     53  C   UNL     1       1.515   1.721   1.227  0.00  0.00    +0.162 C 
ATOM     54  O   UNL     1       2.038   2.653   0.270  0.00  0.00    -0.342 OA
ATOM     55  C   UNL     1       2.389   2.092  -1.001  0.00  0.00    +0.282 C 
ATOM     56  C   UNL     1       3.523   1.066  -0.797  0.00  0.00    +0.202 C 
ATOM     57  C   UNL     1       3.011  -0.052   0.123  0.00  0.00    +0.191 C 
ATOM     58  C   UNL     1       2.446   0.505   1.433  0.00  0.00    +0.236 C 
BRANCH  57  59
ATOM     59  O   UNL     1       2.088  -0.883  -0.600  0.00  0.00    -0.385 OA
ATOM     60  H   UNL     1       1.254  -0.413  -0.769  0.00  0.00    +0.210 HD
ENDBRANCH  57  59
BRANCH  56  61
ATOM     61  O   UNL     1       3.971   0.457  -2.014  0.00  0.00    -0.384 OA
ATOM     62  H   UNL     1       3.345  -0.273  -2.186  0.00  0.00    +0.210 HD
ENDBRANCH  56  61
BRANCH  58  63
ATOM     63  O   UNL     1       3.615   0.929   2.180  0.00  0.00    -0.453 OA
BRANCH  63  64
ATOM     64  C   UNL     1       3.503   0.977   3.527  0.00  0.00    +0.332 C 
ATOM     65  O   UNL     1       2.488   0.758   4.168  0.00  0.00    -0.246 OA
BRANCH  64  66
ATOM     66  C   UNL     1       4.801   1.299   4.158  0.00  0.00    +0.092 C 
ATOM     67  C   UNL     1       5.923   1.530   3.459  0.00  0.00    +0.015 C 
BRANCH  67  68
ATOM     68  C   UNL     1       7.206   1.784   4.111  0.00  0.00    -0.021 A 
ATOM     69  C   UNL     1       8.065   0.709   4.388  0.00  0.00    +0.012 A 
ATOM     70  C   UNL     1       9.308   0.935   4.983  0.00  0.00    +0.050 A 
ATOM     71  C   UNL     1       9.679   2.233   5.297  0.00  0.00    +0.158 A 
ATOM     72  C   UNL     1       8.829   3.305   5.031  0.00  0.00    +0.159 A 
ATOM     73  C   UNL     1       7.589   3.091   4.438  0.00  0.00    +0.057 A 
BRANCH  72  74
ATOM     74  O   UNL     1       9.263   4.557   5.370  0.00  0.00    -0.503 OA
ATOM     75  H   UNL     1       8.566   5.194   5.135  0.00  0.00    +0.292 HD
ENDBRANCH  72  74
BRANCH  71  76
ATOM     76  O   UNL     1      10.898   2.456   5.870  0.00  0.00    -0.503 OA
ATOM     77  H   UNL     1      10.941   3.426   5.984  0.00  0.00    +0.292 HD
ENDBRANCH  71  76
ENDBRANCH  67  68
ENDBRANCH  64  66
ENDBRANCH  63  64
ENDBRANCH  58  63
ENDBRANCH  51  55
ENDBRANCH  41  51
ENDBRANCH  40  42
ENDBRANCH   1  40
TORSDOF 25
