REMARK  Name = 
REMARK  18 active torsions:
REMARK  status: ('A' for Active; 'I' for Inactive)
REMARK    1  A    between atoms: C_1  and  O_2
REMARK    2  A    between atoms: O_2  and  C_3
REMARK    3  A    between atoms: C_4  and  O_51
REMARK    4  A    between atoms: C_7  and  C_9
REMARK    5  A    between atoms: C_10  and  C_11
REMARK    6  A    between atoms: C_11  and  O_13
REMARK    7  A    between atoms: O_13  and  C_14
REMARK    8  A    between atoms: C_14  and  C_15
REMARK    9  A    between atoms: C_17  and  O_50
REMARK   10  A    between atoms: C_19  and  O_49
REMARK   11  A    between atoms: C_21  and  O_48
REMARK   12  A    between atoms: C_23  and  O_26
REMARK   13  A    between atoms: O_26  and  C_27
REMARK   14  A    between atoms: C_28  and  C_40
REMARK   15  A    between atoms: C_32  and  O_39
REMARK   16  A    between atoms: C_34  and  O_38
REMARK   17  A    between atoms: C_42  and  O_47
REMARK   18  A    between atoms: C_43  and  O_46
REMARK                            x       y       z     vdW  Elec       q    Type
REMARK                         _______ _______ _______ _____ _____    ______ ____
ROOT
ATOM      1  C   UNL     1       3.866  -8.388  -3.584  0.00  0.00    +0.191 C 
ATOM      2  O   UNL     1       4.317  -9.652  -4.099  0.00  0.00    -0.330 OA
ATOM      3  C   UNL     1       3.916  -9.851  -5.460  0.00  0.00    +0.340 C 
ATOM      4  C   UNL     1       2.376  -9.891  -5.574  0.00  0.00    +0.214 C 
ATOM      5  C   UNL     1       1.801  -8.593  -5.006  0.00  0.00    +0.180 C 
ATOM      6  C   UNL     1       2.326  -8.344  -3.587  0.00  0.00    +0.178 C 
ENDROOT
BRANCH   6   7
ATOM      7  O   UNL     1       1.806  -7.084  -3.150  0.00  0.00    -0.386 OA
ATOM      8  H   UNL     1       2.098  -6.960  -2.227  0.00  0.00    +0.210 HD
ENDBRANCH   6   7
BRANCH   5   9
ATOM      9  O   UNL     1       0.369  -8.644  -4.971  0.00  0.00    -0.386 OA
ATOM     10  H   UNL     1       0.093  -7.823  -4.519  0.00  0.00    +0.210 HD
ENDBRANCH   5   9
BRANCH   4  11
ATOM     11  O   UNL     1       1.951 -10.092  -6.933  0.00  0.00    -0.383 OA
ATOM     12  H   UNL     1       2.232  -9.323  -7.460  0.00  0.00    +0.210 HD
ENDBRANCH   4  11
BRANCH   3  13
ATOM     13  O   UNL     1       4.379 -11.118  -5.920  0.00  0.00    -0.453 OA
BRANCH  13  14
ATOM     14  C   UNL     1       5.603 -11.220  -6.550  0.00  0.00    +0.214 A 
ATOM     15  C   UNL     1       6.076 -10.158  -7.487  0.00  0.00    +0.238 A 
ATOM     16  O   UNL     1       5.318  -9.280  -7.885  0.00  0.00    -0.283 OA
ATOM     17  C   UNL     1       7.460 -10.269  -7.980  0.00  0.00    +0.109 A 
ATOM     18  C   UNL     1       8.127 -11.473  -7.763  0.00  0.00    +0.147 A 
ATOM     19  C   UNL     1       9.415 -11.665  -8.277  0.00  0.00    +0.092 A 
ATOM     20  C   UNL     1      10.021 -10.642  -9.003  0.00  0.00    +0.124 A 
ATOM     21  C   UNL     1       9.374  -9.431  -9.213  0.00  0.00    +0.091 A 
ATOM     22  O   UNL     1       7.571 -12.526  -7.075  0.00  0.00    -0.451 OA
ATOM     23  C   UNL     1       8.093  -9.242  -8.696  0.00  0.00    +0.135 A 
ATOM     24  C   UNL     1       6.330 -12.356  -6.467  0.00  0.00    +0.181 A 
BRANCH  24  25
ATOM     25  C   UNL     1       5.861 -13.566  -5.718  0.00  0.00    +0.025 A 
ATOM     26  C   UNL     1       6.776 -14.408  -5.059  0.00  0.00    +0.015 A 
ATOM     27  C   UNL     1       6.343 -15.531  -4.336  0.00  0.00    +0.050 A 
ATOM     28  C   UNL     1       4.989 -15.814  -4.255  0.00  0.00    +0.158 A 
ATOM     29  C   UNL     1       4.067 -15.012  -4.916  0.00  0.00    +0.159 A 
ATOM     30  C   UNL     1       4.495 -13.920  -5.666  0.00  0.00    +0.060 A 
BRANCH  29  31
ATOM     31  O   UNL     1       2.741 -15.328  -4.793  0.00  0.00    -0.503 OA
ATOM     32  H   UNL     1       2.223 -14.633  -5.239  0.00  0.00    +0.292 HD
ENDBRANCH  29  31
BRANCH  28  33
ATOM     33  O   UNL     1       4.560 -16.881  -3.521  0.00  0.00    -0.503 OA
ATOM     34  H   UNL     1       3.584 -16.857  -3.602  0.00  0.00    +0.292 HD
ENDBRANCH  28  33
ENDBRANCH  24  25
BRANCH  23  35
ATOM     35  O   UNL     1       7.482  -8.035  -8.886  0.00  0.00    -0.506 OA
ATOM     36  H   UNL     1       8.008  -7.482  -9.485  0.00  0.00    +0.292 HD
ENDBRANCH  23  35
BRANCH  20  37
ATOM     37  O   UNL     1      11.267 -10.779  -9.536  0.00  0.00    -0.507 OA
ATOM     38  H   UNL     1      11.603 -11.672  -9.349  0.00  0.00    +0.292 HD
ENDBRANCH  20  37
ENDBRANCH  13  14
ENDBRANCH   3  13
BRANCH   1  39
ATOM     39  C   UNL     1       4.450  -8.224  -2.172  0.00  0.00    +0.266 C 
BRANCH  39  40
ATOM     40  O   UNL     1       4.050  -6.989  -1.556  0.00  0.00    -0.459 OA
BRANCH  40  41
ATOM     41  C   UNL     1       4.793  -5.904  -1.906  0.00  0.00    +0.332 C 
ATOM     42  O   UNL     1       5.732  -5.894  -2.682  0.00  0.00    -0.246 OA
BRANCH  41  44
ATOM     43  C   UNL     1       4.760  -3.510  -1.410  0.00  0.00    +0.015 C 
ATOM     44  C   UNL     1       4.240  -4.732  -1.209  0.00  0.00    +0.092 C 
BRANCH  43  47
ATOM     45  C   UNL     1       3.120  -1.115   1.033  0.00  0.00    +0.162 A 
ATOM     46  C   UNL     1       3.619  -2.293   0.472  0.00  0.00    +0.057 A 
ATOM     47  C   UNL     1       4.242  -2.282  -0.786  0.00  0.00    -0.021 A 
ATOM     48  C   UNL     1       4.398  -1.059  -1.455  0.00  0.00    +0.012 A 
ATOM     49  C   UNL     1       3.887   0.121  -0.908  0.00  0.00    +0.050 A 
ATOM     50  C   UNL     1       3.236   0.079   0.318  0.00  0.00    +0.158 A 
BRANCH  50  51
ATOM     51  O   UNL     1       2.722   1.242   0.819  0.00  0.00    -0.503 OA
ATOM     52  H   UNL     1       2.283   0.989   1.654  0.00  0.00    +0.292 HD
ENDBRANCH  50  51
BRANCH  45  54
ATOM     53  C   UNL     1       2.839  -2.044   3.184  0.00  0.00    +0.277 C 
ATOM     54  O   UNL     1       2.481  -1.031   2.245  0.00  0.00    -0.491 OA
ENDBRANCH  45  54
ENDBRANCH  43  47
ENDBRANCH  41  44
ENDBRANCH  40  41
ENDBRANCH  39  40
ENDBRANCH   1  39
TORSDOF 17
