REMARK  Name = 
REMARK  18 active torsions:
REMARK  status: ('A' for Active; 'I' for Inactive)
REMARK    1  A    between atoms: C_3  and  O_37
REMARK    2  A    between atoms: C_4  and  O_36
REMARK    3  A    between atoms: C_6  and  C_7
REMARK    4  A    between atoms: C_8  and  O_20
REMARK    5  A    between atoms: C_12  and  O_19
REMARK    6  A    between atoms: C_14  and  O_18
REMARK    7  A    between atoms: O_20  and  C_21
REMARK    8  A    between atoms: C_22  and  O_35
REMARK    9  A    between atoms: C_24  and  O_34
REMARK   10  A    between atoms: C_26  and  O_33
REMARK   11  A    between atoms: C_28  and  C_31
REMARK   12  A    between atoms: C_31  and  O_32
REMARK   13  A    between atoms: O_37  and  C_38
REMARK   14  A    between atoms: C_39  and  O_52
REMARK   15  A    between atoms: C_41  and  O_51
REMARK   16  A    between atoms: C_43  and  O_50
REMARK   17  A    between atoms: C_45  and  C_48
REMARK   18  A    between atoms: C_48  and  O_49
REMARK                            x       y       z     vdW  Elec       q    Type
REMARK                         _______ _______ _______ _____ _____    ______ ____
ROOT
ATOM      1  C   UNL     1      -1.320  -2.636   0.937  0.00  0.00    +0.181 A 
ATOM      2  O   UNL     1      -0.673  -3.860   1.123  0.00  0.00    -0.451 OA
ATOM      3  C   UNL     1      -1.192  -4.991   0.555  0.00  0.00    +0.147 A 
ATOM      4  C   UNL     1      -2.500  -5.052   0.099  0.00  0.00    +0.109 A 
ATOM      5  C   UNL     1      -3.015  -6.274  -0.352  0.00  0.00    +0.135 A 
ATOM      6  C   UNL     1      -2.210  -7.413  -0.402  0.00  0.00    +0.091 A 
ATOM      7  C   UNL     1      -0.883  -7.318   0.008  0.00  0.00    +0.124 A 
ATOM      8  C   UNL     1      -3.269  -3.808   0.065  0.00  0.00    +0.238 A 
ATOM      9  O   UNL     1      -4.473  -3.842  -0.197  0.00  0.00    -0.283 OA
ATOM     10  C   UNL     1      -0.369  -6.116   0.488  0.00  0.00    +0.092 A 
ATOM     11  C   UNL     1      -2.527  -2.532   0.325  0.00  0.00    +0.214 A 
ENDROOT
BRANCH   1  13
ATOM     12  C   UNL     1       0.883  -1.672   1.617  0.00  0.00    +0.015 A 
ATOM     13  C   UNL     1      -0.504  -1.507   1.486  0.00  0.00    +0.025 A 
ATOM     14  C   UNL     1      -1.046  -0.283   1.922  0.00  0.00    +0.060 A 
ATOM     15  C   UNL     1      -0.235   0.697   2.501  0.00  0.00    +0.159 A 
ATOM     16  C   UNL     1       1.109   0.455   2.769  0.00  0.00    +0.165 A 
ATOM     17  C   UNL     1       1.677  -0.708   2.249  0.00  0.00    +0.050 A 
BRANCH  15  18
ATOM     18  O   UNL     1      -0.800   1.901   2.818  0.00  0.00    -0.503 OA
ATOM     19  H   UNL     1      -0.056   2.475   3.087  0.00  0.00    +0.292 HD
ENDBRANCH  15  18
BRANCH  16  20
ATOM     20  O   UNL     1       1.745   1.365   3.591  0.00  0.00    -0.457 OA
BRANCH  20  21
ATOM     21  C   UNL     1       2.916   0.845   4.251  0.00  0.00    +0.339 C 
ATOM     22  O   UNL     1       2.699  -0.403   4.914  0.00  0.00    -0.331 OA
ATOM     23  C   UNL     1       2.313  -0.389   6.290  0.00  0.00    +0.179 C 
ATOM     24  C   UNL     1       3.303   0.432   7.121  0.00  0.00    +0.177 C 
ATOM     25  C   UNL     1       3.459   1.868   6.606  0.00  0.00    +0.180 C 
ATOM     26  C   UNL     1       3.693   1.902   5.086  0.00  0.00    +0.214 C 
BRANCH  26  27
ATOM     27  O   UNL     1       5.110   1.641   4.893  0.00  0.00    -0.383 OA
ATOM     28  H   UNL     1       5.267   0.737   5.241  0.00  0.00    +0.210 HD
ENDBRANCH  26  27
BRANCH  25  29
ATOM     29  O   UNL     1       2.407   2.725   7.032  0.00  0.00    -0.386 OA
ATOM     30  H   UNL     1       1.563   2.362   6.685  0.00  0.00    +0.210 HD
ENDBRANCH  25  29
BRANCH  24  31
ATOM     31  O   UNL     1       4.586  -0.227   7.014  0.00  0.00    -0.386 OA
ATOM     32  H   UNL     1       5.181   0.191   7.668  0.00  0.00    +0.210 HD
ENDBRANCH  24  31
BRANCH  23  33
ATOM     33  C   UNL     1       0.822  -0.080   6.532  0.00  0.00    +0.190 C 
BRANCH  33  34
ATOM     34  O   UNL     1       0.479   1.283   6.315  0.00  0.00    -0.392 OA
ATOM     35  H   UNL     1      -0.492   1.337   6.412  0.00  0.00    +0.210 HD
ENDBRANCH  33  34
ENDBRANCH  23  33
ENDBRANCH  20  21
ENDBRANCH  16  20
ENDBRANCH   1  13
BRANCH   7  36
ATOM     36  O   UNL     1      -0.046  -8.394  -0.036  0.00  0.00    -0.507 OA
ATOM     37  H   UNL     1      -0.545  -9.171  -0.339  0.00  0.00    +0.292 HD
ENDBRANCH   7  36
BRANCH   5  38
ATOM     38  O   UNL     1      -4.315  -6.434  -0.764  0.00  0.00    -0.506 OA
ATOM     39  H   UNL     1      -4.778  -5.571  -0.656  0.00  0.00    +0.292 HD
ENDBRANCH   5  38
BRANCH  11  40
ATOM     40  O   UNL     1      -3.150  -1.357  -0.089  0.00  0.00    -0.453 OA
BRANCH  40  41
ATOM     41  C   UNL     1      -2.331  -0.550  -0.953  0.00  0.00    +0.340 C 
ATOM     42  O   UNL     1      -2.632   0.831  -0.780  0.00  0.00    -0.331 OA
ATOM     43  C   UNL     1      -3.207   1.622  -1.823  0.00  0.00    +0.179 C 
ATOM     44  C   UNL     1      -3.380   0.996  -3.223  0.00  0.00    +0.177 C 
ATOM     45  C   UNL     1      -3.451  -0.532  -3.198  0.00  0.00    +0.180 C 
ATOM     46  C   UNL     1      -2.265  -1.060  -2.398  0.00  0.00    +0.214 C 
BRANCH  46  47
ATOM     47  O   UNL     1      -1.034  -0.619  -3.031  0.00  0.00    -0.383 OA
ATOM     48  H   UNL     1      -0.477  -0.161  -2.372  0.00  0.00    +0.210 HD
ENDBRANCH  46  47
BRANCH  45  49
ATOM     49  O   UNL     1      -4.684  -1.036  -2.697  0.00  0.00    -0.386 OA
ATOM     50  H   UNL     1      -5.111  -0.366  -2.122  0.00  0.00    +0.210 HD
ENDBRANCH  45  49
BRANCH  44  51
ATOM     51  O   UNL     1      -2.278   1.431  -4.050  0.00  0.00    -0.386 OA
ATOM     52  H   UNL     1      -1.596   0.728  -4.042  0.00  0.00    +0.210 HD
ENDBRANCH  44  51
BRANCH  43  53
ATOM     53  C   UNL     1      -4.538   2.168  -1.295  0.00  0.00    +0.190 C 
BRANCH  53  54
ATOM     54  O   UNL     1      -5.455   1.095  -1.095  0.00  0.00    -0.392 OA
ATOM     55  H   UNL     1      -5.216   0.699  -0.232  0.00  0.00    +0.210 HD
ENDBRANCH  53  54
ENDBRANCH  43  53
ENDBRANCH  40  41
ENDBRANCH  11  40
TORSDOF 18
