REMARK  Name = 
REMARK  22 active torsions:
REMARK  status: ('A' for Active; 'I' for Inactive)
REMARK    1  A    between atoms: C_1  and  C_2
REMARK    2  A    between atoms: C_4  and  O_65
REMARK    3  A    between atoms: C_6  and  O_64
REMARK    4  A    between atoms: C_8  and  O_35
REMARK    5  A    between atoms: C_10  and  O_13
REMARK    6  A    between atoms: O_13  and  C_14
REMARK    7  A    between atoms: C_15  and  C_27
REMARK    8  A    between atoms: C_19  and  O_26
REMARK    9  A    between atoms: C_21  and  O_25
REMARK   10  A    between atoms: C_29  and  O_34
REMARK   11  A    between atoms: C_30  and  O_33
REMARK   12  A    between atoms: O_35  and  C_36
REMARK   13  A    between atoms: C_38  and  O_63
REMARK   14  A    between atoms: C_40  and  O_62
REMARK   15  A    between atoms: C_42  and  O_61
REMARK   16  A    between atoms: C_44  and  C_47
REMARK   17  A    between atoms: C_47  and  O_48
REMARK   18  A    between atoms: O_48  and  C_49
REMARK   19  A    between atoms: C_49  and  C_51
REMARK   20  A    between atoms: C_52  and  C_53
REMARK   21  A    between atoms: C_55  and  O_60
REMARK   22  A    between atoms: C_56  and  O_59
REMARK                            x       y       z     vdW  Elec       q    Type
REMARK                         _______ _______ _______ _____ _____    ______ ____
ROOT
ATOM      1  C   UNL     1       1.064   0.385   0.387  0.00  0.00    +0.041 C 
ATOM      2  C   UNL     1       2.583   0.379   0.177  0.00  0.00    +0.150 C 
ATOM      3  O   UNL     1       3.012   1.102  -0.987  0.00  0.00    -0.334 OA
ATOM      4  C   UNL     1       2.625   0.524  -2.243  0.00  0.00    +0.340 C 
ATOM      5  C   UNL     1       3.210  -0.898  -2.438  0.00  0.00    +0.221 C 
ATOM      6  C   UNL     1       2.912  -1.713  -1.172  0.00  0.00    +0.180 C 
ATOM      7  C   UNL     1       3.207  -1.015   0.143  0.00  0.00    +0.174 C 
ENDROOT
BRANCH   6   8
ATOM      8  O   UNL     1       1.543  -2.145  -1.151  0.00  0.00    -0.386 OA
ATOM      9  H   UNL     1       0.954  -1.474  -1.516  0.00  0.00    +0.210 HD
ENDBRANCH   6   8
BRANCH   7  10
ATOM     10  O   UNL     1       4.628  -0.927   0.304  0.00  0.00    -0.387 OA
ATOM     11  H   UNL     1       4.933  -0.159  -0.216  0.00  0.00    +0.210 HD
ENDBRANCH   7  10
BRANCH   5  12
ATOM     12  O   UNL     1       2.565  -1.499  -3.596  0.00  0.00    -0.337 OA
BRANCH  12  13
ATOM     13  C   UNL     1       3.132  -2.713  -4.094  0.00  0.00    +0.282 C 
ATOM     14  O   UNL     1       2.778  -2.889  -5.486  0.00  0.00    -0.339 OA
ATOM     15  C   UNL     1       1.405  -3.238  -5.761  0.00  0.00    +0.190 C 
ATOM     16  C   UNL     1       0.943  -4.490  -4.984  0.00  0.00    +0.178 C 
ATOM     17  C   UNL     1       1.286  -4.408  -3.504  0.00  0.00    +0.179 C 
ATOM     18  C   UNL     1       2.759  -4.000  -3.318  0.00  0.00    +0.201 C 
BRANCH  17  19
ATOM     19  O   UNL     1       0.304  -3.641  -2.840  0.00  0.00    -0.386 OA
ATOM     20  H   UNL     1       0.440  -2.689  -3.001  0.00  0.00    +0.210 HD
ENDBRANCH  17  19
BRANCH  16  21
ATOM     21  O   UNL     1       1.631  -5.638  -5.525  0.00  0.00    -0.386 OA
ATOM     22  H   UNL     1       1.449  -6.390  -4.926  0.00  0.00    +0.210 HD
ENDBRANCH  16  21
BRANCH  18  23
ATOM     23  O   UNL     1       3.622  -5.073  -3.748  0.00  0.00    -0.384 OA
ATOM     24  H   UNL     1       3.457  -5.187  -4.708  0.00  0.00    +0.210 HD
ENDBRANCH  18  23
BRANCH  15  25
ATOM     25  C   UNL     1       0.515  -1.986  -5.670  0.00  0.00    +0.266 C 
BRANCH  25  26
ATOM     26  O   UNL     1      -0.866  -2.218  -5.979  0.00  0.00    -0.459 OA
BRANCH  26  27
ATOM     27  C   UNL     1      -1.731  -1.895  -4.982  0.00  0.00    +0.332 C 
ATOM     28  O   UNL     1      -1.441  -1.679  -3.817  0.00  0.00    -0.246 OA
BRANCH  27  29
ATOM     29  C   UNL     1      -3.075  -1.718  -5.566  0.00  0.00    +0.092 C 
ATOM     30  C   UNL     1      -4.106  -1.369  -4.780  0.00  0.00    +0.015 C 
BRANCH  30  31
ATOM     31  C   UNL     1      -5.462  -1.094  -5.282  0.00  0.00    -0.021 A 
ATOM     32  C   UNL     1      -5.681  -0.485  -6.531  0.00  0.00    +0.012 A 
ATOM     33  C   UNL     1      -6.978  -0.256  -6.997  0.00  0.00    +0.050 A 
ATOM     34  C   UNL     1      -8.055  -0.621  -6.207  0.00  0.00    +0.158 A 
ATOM     35  C   UNL     1      -7.855  -1.180  -4.948  0.00  0.00    +0.159 A 
ATOM     36  C   UNL     1      -6.565  -1.408  -4.473  0.00  0.00    +0.057 A 
BRANCH  35  37
ATOM     37  O   UNL     1      -8.965  -1.500  -4.215  0.00  0.00    -0.503 OA
ATOM     38  H   UNL     1      -8.673  -1.881  -3.369  0.00  0.00    +0.292 HD
ENDBRANCH  35  37
BRANCH  34  39
ATOM     39  O   UNL     1      -9.321  -0.431  -6.678  0.00  0.00    -0.503 OA
ATOM     40  H   UNL     1      -9.901  -0.789  -5.977  0.00  0.00    +0.292 HD
ENDBRANCH  34  39
ENDBRANCH  30  31
ENDBRANCH  27  29
ENDBRANCH  26  27
ENDBRANCH  25  26
ENDBRANCH  15  25
ENDBRANCH  12  13
ENDBRANCH   5  12
BRANCH   4  41
ATOM     41  O   UNL     1       3.105   1.370  -3.300  0.00  0.00    -0.453 OA
BRANCH  41  42
ATOM     42  C   UNL     1       2.153   2.014  -4.083  0.00  0.00    +0.214 A 
ATOM     43  C   UNL     1       0.826   2.420  -3.507  0.00  0.00    +0.238 A 
ATOM     44  O   UNL     1       0.599   2.340  -2.306  0.00  0.00    -0.283 OA
ATOM     45  C   UNL     1      -0.189   2.942  -4.434  0.00  0.00    +0.109 A 
ATOM     46  C   UNL     1       0.201   3.196  -5.742  0.00  0.00    +0.147 A 
ATOM     47  C   UNL     1      -0.711   3.736  -6.656  0.00  0.00    +0.092 A 
ATOM     48  C   UNL     1      -2.011   4.014  -6.240  0.00  0.00    +0.124 A 
ATOM     49  C   UNL     1      -2.418   3.757  -4.938  0.00  0.00    +0.091 A 
ATOM     50  O   UNL     1       1.476   2.961  -6.204  0.00  0.00    -0.451 OA
ATOM     51  C   UNL     1      -1.511   3.212  -4.039  0.00  0.00    +0.135 A 
ATOM     52  C   UNL     1       2.414   2.363  -5.364  0.00  0.00    +0.181 A 
BRANCH  52  53
ATOM     53  C   UNL     1       3.740   2.143  -6.039  0.00  0.00    +0.025 A 
ATOM     54  C   UNL     1       3.805   1.942  -7.434  0.00  0.00    +0.015 A 
ATOM     55  C   UNL     1       5.030   1.784  -8.099  0.00  0.00    +0.050 A 
ATOM     56  C   UNL     1       6.208   1.814  -7.374  0.00  0.00    +0.158 A 
ATOM     57  C   UNL     1       6.178   2.011  -6.002  0.00  0.00    +0.159 A 
ATOM     58  C   UNL     1       4.964   2.191  -5.337  0.00  0.00    +0.060 A 
BRANCH  57  59
ATOM     59  O   UNL     1       7.377   2.029  -5.343  0.00  0.00    -0.503 OA
ATOM     60  H   UNL     1       7.200   2.142  -4.394  0.00  0.00    +0.292 HD
ENDBRANCH  57  59
BRANCH  56  61
ATOM     61  O   UNL     1       7.401   1.666  -8.019  0.00  0.00    -0.503 OA
ATOM     62  H   UNL     1       8.076   1.735  -7.313  0.00  0.00    +0.292 HD
ENDBRANCH  56  61
ENDBRANCH  52  53
BRANCH  51  63
ATOM     63  O   UNL     1      -1.937   2.934  -2.770  0.00  0.00    -0.506 OA
ATOM     64  H   UNL     1      -2.867   3.185  -2.661  0.00  0.00    +0.292 HD
ENDBRANCH  51  63
BRANCH  48  65
ATOM     65  O   UNL     1      -2.947   4.543  -7.077  0.00  0.00    -0.507 OA
ATOM     66  H   UNL     1      -2.537   4.738  -7.936  0.00  0.00    +0.292 HD
ENDBRANCH  48  65
ENDBRANCH  41  42
ENDBRANCH   4  41
TORSDOF 21
