REMARK  Name = 
REMARK  18 active torsions:
REMARK  status: ('A' for Active; 'I' for Inactive)
REMARK    1  A    between atoms: C_1  and  O_2
REMARK    2  A    between atoms: O_2  and  C_3
REMARK    3  A    between atoms: C_3  and  O_4
REMARK    4  A    between atoms: O_4  and  C_5
REMARK    5  A    between atoms: C_6  and  O_31
REMARK    6  A    between atoms: C_8  and  C_11
REMARK    7  A    between atoms: C_12  and  O_27
REMARK    8  A    between atoms: C_16  and  O_26
REMARK    9  A    between atoms: C_18  and  O_22
REMARK   10  A    between atoms: O_22  and  C_23
REMARK   11  A    between atoms: C_23  and  O_24
REMARK   12  A    between atoms: O_24  and  C_25
REMARK   13  A    between atoms: O_27  and  C_28
REMARK   14  A    between atoms: C_28  and  O_29
REMARK   15  A    between atoms: O_29  and  C_30
REMARK   16  A    between atoms: O_31  and  C_32
REMARK   17  A    between atoms: C_32  and  O_33
REMARK   18  A    between atoms: O_33  and  C_34
REMARK                            x       y       z     vdW  Elec       q    Type
REMARK                         _______ _______ _______ _____ _____    ______ ____
ROOT
ATOM      1  C   UNL     1       6.538  -6.177  -2.538  0.00  0.00    +0.181 A 
ATOM      2  O   UNL     1       7.255  -6.182  -3.725  0.00  0.00    -0.451 OA
ATOM      3  C   UNL     1       7.582  -7.386  -4.292  0.00  0.00    +0.147 A 
ATOM      4  C   UNL     1       7.169  -8.596  -3.763  0.00  0.00    +0.109 A 
ATOM      5  C   UNL     1       7.450  -9.795  -4.424  0.00  0.00    +0.135 A 
ATOM      6  C   UNL     1       8.177  -9.783  -5.608  0.00  0.00    +0.092 A 
ATOM      7  C   UNL     1       8.620  -8.569  -6.134  0.00  0.00    +0.131 A 
ATOM      8  C   UNL     1       6.429  -8.590  -2.502  0.00  0.00    +0.238 A 
ATOM      9  O   UNL     1       6.004  -9.659  -2.068  0.00  0.00    -0.283 OA
ATOM     10  C   UNL     1       8.332  -7.370  -5.468  0.00  0.00    +0.093 A 
ATOM     11  C   UNL     1       6.190  -7.276  -1.831  0.00  0.00    +0.213 A 
ENDROOT
BRANCH   1  15
ATOM     12  C   UNL     1       4.746  -2.388  -1.656  0.00  0.00    +0.165 A 
ATOM     13  C   UNL     1       4.156  -3.289  -2.543  0.00  0.00    +0.050 A 
ATOM     14  C   UNL     1       4.780  -4.501  -2.823  0.00  0.00    +0.015 A 
ATOM     15  C   UNL     1       6.000  -4.839  -2.223  0.00  0.00    +0.025 A 
ATOM     16  C   UNL     1       6.647  -3.893  -1.417  0.00  0.00    +0.061 A 
ATOM     17  C   UNL     1       6.038  -2.649  -1.157  0.00  0.00    +0.166 A 
BRANCH  12  18
ATOM     18  O   UNL     1       4.114  -1.232  -1.252  0.00  0.00    -0.463 OA
BRANCH  18  19
ATOM     19  C   UNL     1       2.689  -1.341  -1.164  0.00  0.00    +0.394 C 
BRANCH  19  21
ATOM     20  C   UNL     1       2.254   0.914  -0.604  0.00  0.00    +0.198 C 
ATOM     21  O   UNL     1       2.119  -0.442  -0.211  0.00  0.00    -0.347 OA
ENDBRANCH  19  21
ENDBRANCH  18  19
ENDBRANCH  12  18
BRANCH  17  22
ATOM     22  O   UNL     1       6.603  -1.635  -0.424  0.00  0.00    -0.463 OA
BRANCH  22  23
ATOM     23  C   UNL     1       7.975  -1.758  -0.069  0.00  0.00    +0.394 C 
BRANCH  23  24
ATOM     24  O   UNL     1       8.490  -0.549   0.499  0.00  0.00    -0.347 OA
ATOM     25  C   UNL     1       7.788  -0.179   1.678  0.00  0.00    +0.198 C 
ENDBRANCH  23  24
ENDBRANCH  22  23
ENDBRANCH  17  22
ENDBRANCH   1  15
BRANCH   5  26
ATOM     26  O   UNL     1       7.038 -11.021  -3.976  0.00  0.00    -0.506 OA
ATOM     27  H   UNL     1       6.506 -10.887  -3.159  0.00  0.00    +0.292 HD
ENDBRANCH   5  26
BRANCH   7  28
ATOM     28  O   UNL     1       9.370  -8.435  -7.268  0.00  0.00    -0.466 OA
BRANCH  28  29
ATOM     29  C   UNL     1       9.231  -9.474  -8.237  0.00  0.00    +0.394 C 
BRANCH  29  30
ATOM     30  O   UNL     1      10.080  -9.238  -9.361  0.00  0.00    -0.347 OA
ATOM     31  C   UNL     1      11.450  -9.372  -9.006  0.00  0.00    +0.198 C 
ENDBRANCH  29  30
ENDBRANCH  28  29
ENDBRANCH   7  28
BRANCH  11  32
ATOM     32  O   UNL     1       5.546  -7.202  -0.599  0.00  0.00    -0.459 OA
BRANCH  32  33
ATOM     33  C   UNL     1       5.754  -8.350   0.240  0.00  0.00    +0.394 C 
BRANCH  33  34
ATOM     34  O   UNL     1       5.588  -8.050   1.626  0.00  0.00    -0.347 OA
ATOM     35  C   UNL     1       4.228  -7.811   1.950  0.00  0.00    +0.198 C 
ENDBRANCH  33  34
ENDBRANCH  32  33
ENDBRANCH  11  32
TORSDOF 14
