REMARK  Name = 
REMARK  18 active torsions:
REMARK  status: ('A' for Active; 'I' for Inactive)
REMARK    1  A    between atoms: C_1  and  O_2
REMARK    2  A    between atoms: O_2  and  C_3
REMARK    3  A    between atoms: C_4  and  O_51
REMARK    4  A    between atoms: C_7  and  C_9
REMARK    5  A    between atoms: C_10  and  C_11
REMARK    6  A    between atoms: C_11  and  O_13
REMARK    7  A    between atoms: O_13  and  C_14
REMARK    8  A    between atoms: C_14  and  C_15
REMARK    9  A    between atoms: C_17  and  O_50
REMARK   10  A    between atoms: C_19  and  O_49
REMARK   11  A    between atoms: C_21  and  O_48
REMARK   12  A    between atoms: C_23  and  O_26
REMARK   13  A    between atoms: O_26  and  C_27
REMARK   14  A    between atoms: C_28  and  C_40
REMARK   15  A    between atoms: C_32  and  O_39
REMARK   16  A    between atoms: C_34  and  O_38
REMARK   17  A    between atoms: C_42  and  O_47
REMARK   18  A    between atoms: C_43  and  O_46
REMARK                            x       y       z     vdW  Elec       q    Type
REMARK                         _______ _______ _______ _____ _____    ______ ____
ROOT
ATOM      1  C   UNL     1       3.352  -8.604  -3.025  0.00  0.00    +0.191 C 
ATOM      2  O   UNL     1       3.669  -9.925  -3.501  0.00  0.00    -0.330 OA
ATOM      3  C   UNL     1       3.253 -10.109  -4.863  0.00  0.00    +0.340 C 
ATOM      4  C   UNL     1       1.716 -10.010  -4.986  0.00  0.00    +0.214 C 
ATOM      5  C   UNL     1       1.256  -8.660  -4.416  0.00  0.00    +0.180 C 
ATOM      6  C   UNL     1       1.821  -8.442  -2.995  0.00  0.00    +0.178 C 
ENDROOT
BRANCH   6   7
ATOM      7  O   UNL     1       1.237  -9.384  -2.084  0.00  0.00    -0.386 OA
ATOM      8  H   UNL     1       1.649 -10.256  -2.239  0.00  0.00    +0.210 HD
ENDBRANCH   6   7
BRANCH   5   9
ATOM      9  O   UNL     1      -0.174  -8.592  -4.431  0.00  0.00    -0.386 OA
ATOM     10  H   UNL     1      -0.457  -7.916  -3.792  0.00  0.00    +0.210 HD
ENDBRANCH   5   9
BRANCH   4  11
ATOM     11  O   UNL     1       1.280 -10.180  -6.345  0.00  0.00    -0.383 OA
ATOM     12  H   UNL     1       1.596  -9.424  -6.870  0.00  0.00    +0.210 HD
ENDBRANCH   4  11
BRANCH   3  13
ATOM     13  O   UNL     1       3.603 -11.421  -5.300  0.00  0.00    -0.453 OA
BRANCH  13  14
ATOM     14  C   UNL     1       4.810 -11.640  -5.932  0.00  0.00    +0.214 A 
ATOM     15  C   UNL     1       5.371 -10.641  -6.892  0.00  0.00    +0.238 A 
ATOM     16  O   UNL     1       4.688  -9.708  -7.305  0.00  0.00    -0.283 OA
ATOM     17  C   UNL     1       6.736 -10.881  -7.388  0.00  0.00    +0.109 A 
ATOM     18  C   UNL     1       7.298 -12.135  -7.151  0.00  0.00    +0.147 A 
ATOM     19  C   UNL     1       8.560 -12.449  -7.669  0.00  0.00    +0.092 A 
ATOM     20  C   UNL     1       9.247 -11.498  -8.420  0.00  0.00    +0.124 A 
ATOM     21  C   UNL     1       8.708 -10.238  -8.647  0.00  0.00    +0.091 A 
ATOM     22  O   UNL     1       6.658 -13.120  -6.437  0.00  0.00    -0.451 OA
ATOM     23  C   UNL     1       7.453  -9.927  -8.126  0.00  0.00    +0.135 A 
ATOM     24  C   UNL     1       5.440 -12.832  -5.829  0.00  0.00    +0.181 A 
BRANCH  24  25
ATOM     25  C   UNL     1       4.874 -13.979  -5.049  0.00  0.00    +0.025 A 
ATOM     26  C   UNL     1       5.720 -14.884  -4.378  0.00  0.00    +0.015 A 
ATOM     27  C   UNL     1       5.198 -15.948  -3.626  0.00  0.00    +0.050 A 
ATOM     28  C   UNL     1       3.826 -16.108  -3.528  0.00  0.00    +0.158 A 
ATOM     29  C   UNL     1       2.970 -15.247  -4.201  0.00  0.00    +0.159 A 
ATOM     30  C   UNL     1       3.484 -14.213  -4.980  0.00  0.00    +0.060 A 
BRANCH  29  31
ATOM     31  O   UNL     1       1.624 -15.443  -4.061  0.00  0.00    -0.503 OA
ATOM     32  H   UNL     1       1.162 -14.721  -4.524  0.00  0.00    +0.292 HD
ENDBRANCH  29  31
BRANCH  28  33
ATOM     33  O   UNL     1       3.313 -17.116  -2.764  0.00  0.00    -0.503 OA
ATOM     34  H   UNL     1       2.342 -17.009  -2.837  0.00  0.00    +0.292 HD
ENDBRANCH  28  33
ENDBRANCH  24  25
BRANCH  23  35
ATOM     35  O   UNL     1       6.949  -8.674  -8.334  0.00  0.00    -0.506 OA
ATOM     36  H   UNL     1       7.521  -8.179  -8.942  0.00  0.00    +0.292 HD
ENDBRANCH  23  35
BRANCH  20  37
ATOM     37  O   UNL     1      10.472 -11.757  -8.961  0.00  0.00    -0.507 OA
ATOM     38  H   UNL     1      10.730 -12.670  -8.754  0.00  0.00    +0.292 HD
ENDBRANCH  20  37
ENDBRANCH  13  14
ENDBRANCH   3  13
BRANCH   1  39
ATOM     39  C   UNL     1       3.988  -8.424  -1.639  0.00  0.00    +0.266 C 
BRANCH  39  40
ATOM     40  O   UNL     1       3.702  -7.136  -1.071  0.00  0.00    -0.459 OA
BRANCH  40  41
ATOM     41  C   UNL     1       4.475  -6.119  -1.523  0.00  0.00    +0.332 C 
ATOM     42  O   UNL     1       5.348  -6.193  -2.365  0.00  0.00    -0.246 OA
BRANCH  41  44
ATOM     43  C   UNL     1       4.643  -3.711  -1.126  0.00  0.00    +0.015 C 
ATOM     44  C   UNL     1       4.043  -4.880  -0.843  0.00  0.00    +0.092 C 
BRANCH  43  47
ATOM     45  C   UNL     1       3.301  -1.080   1.256  0.00  0.00    +0.162 A 
ATOM     46  C   UNL     1       3.684  -2.320   0.738  0.00  0.00    +0.057 A 
ATOM     47  C   UNL     1       4.249  -2.419  -0.543  0.00  0.00    -0.021 A 
ATOM     48  C   UNL     1       4.466  -1.245  -1.281  0.00  0.00    +0.012 A 
ATOM     49  C   UNL     1       4.070  -0.004  -0.777  0.00  0.00    +0.050 A 
ATOM     50  C   UNL     1       3.476   0.064   0.475  0.00  0.00    +0.158 A 
BRANCH  50  51
ATOM     51  O   UNL     1       3.076   1.288   0.937  0.00  0.00    -0.503 OA
ATOM     52  H   UNL     1       2.659   1.111   1.802  0.00  0.00    +0.292 HD
ENDBRANCH  50  51
BRANCH  45  54
ATOM     53  C   UNL     1       3.054  -1.871   3.465  0.00  0.00    +0.277 C 
ATOM     54  O   UNL     1       2.726  -0.886   2.487  0.00  0.00    -0.491 OA
ENDBRANCH  45  54
ENDBRANCH  43  47
ENDBRANCH  41  44
ENDBRANCH  40  41
ENDBRANCH  39  40
ENDBRANCH   1  39
TORSDOF 17
