REMARK  Name = 
REMARK  22 active torsions:
REMARK  status: ('A' for Active; 'I' for Inactive)
REMARK    1  A    between atoms: C_1  and  C_2
REMARK    2  A    between atoms: C_4  and  O_68
REMARK    3  A    between atoms: C_6  and  O_67
REMARK    4  A    between atoms: C_8  and  O_66
REMARK    5  A    between atoms: C_10  and  O_13
REMARK    6  A    between atoms: O_13  and  C_14
REMARK    7  A    between atoms: C_14  and  C_15
REMARK    8  A    between atoms: C_17  and  O_65
REMARK    9  A    between atoms: C_19  and  O_64
REMARK   10  A    between atoms: C_21  and  O_48
REMARK   11  A    between atoms: C_23  and  O_26
REMARK   12  A    between atoms: O_26  and  C_27
REMARK   13  A    between atoms: C_28  and  C_40
REMARK   14  A    between atoms: C_32  and  O_39
REMARK   15  A    between atoms: C_34  and  O_38
REMARK   16  A    between atoms: C_42  and  O_47
REMARK   17  A    between atoms: C_43  and  O_46
REMARK   18  A    between atoms: O_48  and  C_49
REMARK   19  A    between atoms: C_51  and  O_63
REMARK   20  A    between atoms: C_53  and  O_62
REMARK   21  A    between atoms: C_55  and  O_61
REMARK   22  A    between atoms: C_57  and  C_60
REMARK                            x       y       z     vdW  Elec       q    Type
REMARK                         _______ _______ _______ _____ _____    ______ ____
ROOT
ATOM      1  C   UNL     1       3.234   4.212  -4.475  0.00  0.00    +0.179 C 
ATOM      2  O   UNL     1       3.825   5.423  -4.005  0.00  0.00    -0.331 OA
ATOM      3  C   UNL     1       2.955   6.155  -3.158  0.00  0.00    +0.340 C 
ATOM      4  C   UNL     1       1.754   6.671  -3.982  0.00  0.00    +0.221 C 
ATOM      5  C   UNL     1       1.095   5.449  -4.683  0.00  0.00    +0.180 C 
ATOM      6  C   UNL     1       2.124   4.595  -5.447  0.00  0.00    +0.177 C 
ENDROOT
BRANCH   6   7
ATOM      7  O   UNL     1       1.469   3.447  -5.993  0.00  0.00    -0.386 OA
ATOM      8  H   UNL     1       2.084   3.072  -6.652  0.00  0.00    +0.210 HD
ENDBRANCH   6   7
BRANCH   5   9
ATOM      9  O   UNL     1       0.085   5.878  -5.612  0.00  0.00    -0.386 OA
ATOM     10  H   UNL     1      -0.200   5.054  -6.059  0.00  0.00    +0.210 HD
ENDBRANCH   5   9
BRANCH   4  11
ATOM     11  O   UNL     1       0.743   7.287  -3.149  0.00  0.00    -0.337 OA
BRANCH  11  12
ATOM     12  C   UNL     1       1.154   8.476  -2.483  0.00  0.00    +0.282 C 
ATOM     13  O   UNL     1       0.097   9.012  -1.672  0.00  0.00    -0.343 OA
ATOM     14  C   UNL     1      -1.066   9.399  -2.410  0.00  0.00    +0.149 C 
ATOM     15  C   UNL     1      -2.047   9.996  -1.403  0.00  0.00    +0.041 C 
ATOM     16  C   UNL     1      -0.747  10.411  -3.529  0.00  0.00    +0.174 C 
ATOM     17  C   UNL     1       0.440   9.913  -4.370  0.00  0.00    +0.179 C 
ATOM     18  C   UNL     1       1.629   9.568  -3.457  0.00  0.00    +0.201 C 
BRANCH  18  19
ATOM     19  O   UNL     1       2.134  10.708  -2.741  0.00  0.00    -0.384 OA
ATOM     20  H   UNL     1       1.593  10.793  -1.930  0.00  0.00    +0.210 HD
ENDBRANCH  18  19
BRANCH  17  21
ATOM     21  O   UNL     1       0.819  10.882  -5.351  0.00  0.00    -0.386 OA
ATOM     22  H   UNL     1       1.502  10.475  -5.914  0.00  0.00    +0.210 HD
ENDBRANCH  17  21
BRANCH  16  23
ATOM     23  O   UNL     1      -1.912  10.620  -4.336  0.00  0.00    -0.387 OA
ATOM     24  H   UNL     1      -1.983   9.880  -4.964  0.00  0.00    +0.210 HD
ENDBRANCH  16  23
ENDBRANCH  11  12
ENDBRANCH   4  11
BRANCH   3  25
ATOM     25  O   UNL     1       3.765   7.149  -2.498  0.00  0.00    -0.453 OA
BRANCH  25  26
ATOM     26  C   UNL     1       4.654   6.638  -1.525  0.00  0.00    +0.214 A 
ATOM     27  C   UNL     1       4.558   5.190  -1.078  0.00  0.00    +0.238 A 
ATOM     28  O   UNL     1       3.836   4.357  -1.613  0.00  0.00    -0.283 OA
ATOM     29  C   UNL     1       5.368   4.723   0.026  0.00  0.00    +0.109 A 
ATOM     30  C   UNL     1       6.303   5.600   0.540  0.00  0.00    +0.147 A 
ATOM     31  C   UNL     1       7.120   5.188   1.592  0.00  0.00    +0.092 A 
ATOM     32  C   UNL     1       6.970   3.898   2.104  0.00  0.00    +0.124 A 
ATOM     33  C   UNL     1       6.041   3.001   1.585  0.00  0.00    +0.091 A 
ATOM     34  O   UNL     1       6.483   6.862   0.048  0.00  0.00    -0.451 OA
ATOM     35  C   UNL     1       5.233   3.423   0.541  0.00  0.00    +0.135 A 
ATOM     36  C   UNL     1       5.658   7.371  -0.968  0.00  0.00    +0.181 A 
BRANCH  36  37
ATOM     37  C   UNL     1       6.120   8.758  -1.372  0.00  0.00    +0.025 A 
ATOM     38  C   UNL     1       7.359   9.246  -0.875  0.00  0.00    +0.015 A 
ATOM     39  C   UNL     1       7.957  10.422  -1.352  0.00  0.00    +0.050 A 
ATOM     40  C   UNL     1       7.309  11.158  -2.322  0.00  0.00    +0.158 A 
ATOM     41  C   UNL     1       6.036  10.782  -2.735  0.00  0.00    +0.159 A 
ATOM     42  C   UNL     1       5.450   9.598  -2.277  0.00  0.00    +0.060 A 
BRANCH  41  43
ATOM     43  O   UNL     1       5.388  11.608  -3.615  0.00  0.00    -0.503 OA
ATOM     44  H   UNL     1       4.427  11.504  -3.458  0.00  0.00    +0.292 HD
ENDBRANCH  41  43
BRANCH  40  45
ATOM     45  O   UNL     1       7.934  12.240  -2.869  0.00  0.00    -0.503 OA
ATOM     46  H   UNL     1       7.361  12.507  -3.615  0.00  0.00    +0.292 HD
ENDBRANCH  40  45
ENDBRANCH  36  37
BRANCH  35  47
ATOM     47  O   UNL     1       4.311   2.540   0.055  0.00  0.00    -0.506 OA
ATOM     48  H   UNL     1       4.445   1.655   0.429  0.00  0.00    +0.292 HD
ENDBRANCH  35  47
BRANCH  32  49
ATOM     49  O   UNL     1       7.740   3.435   3.131  0.00  0.00    -0.507 OA
ATOM     50  H   UNL     1       8.329   4.145   3.430  0.00  0.00    +0.292 HD
ENDBRANCH  32  49
ENDBRANCH  25  26
ENDBRANCH   3  25
BRANCH   1  51
ATOM     51  C   UNL     1       4.357   3.387  -5.088  0.00  0.00    +0.197 C 
BRANCH  51  52
ATOM     52  O   UNL     1       4.876   4.108  -6.200  0.00  0.00    -0.346 OA
BRANCH  52  56
ATOM     53  C   UNL     1       8.096   1.265  -6.724  0.00  0.00    +0.041 C 
ATOM     54  C   UNL     1       8.251   2.733  -6.343  0.00  0.00    +0.149 C 
ATOM     55  O   UNL     1       7.032   3.286  -5.835  0.00  0.00    -0.343 OA
ATOM     56  C   UNL     1       6.000   3.473  -6.801  0.00  0.00    +0.282 C 
ATOM     57  C   UNL     1       6.439   4.385  -7.965  0.00  0.00    +0.201 C 
ATOM     58  C   UNL     1       7.788   3.944  -8.546  0.00  0.00    +0.179 C 
ATOM     59  C   UNL     1       8.809   3.656  -7.437  0.00  0.00    +0.174 C 
BRANCH  59  60
ATOM     60  O   UNL     1       9.167   4.904  -6.816  0.00  0.00    -0.387 OA
ATOM     61  H   UNL     1       8.531   5.071  -6.087  0.00  0.00    +0.210 HD
ENDBRANCH  59  60
BRANCH  58  62
ATOM     62  O   UNL     1       7.618   2.827  -9.432  0.00  0.00    -0.386 OA
ATOM     63  H   UNL     1       6.927   2.234  -9.095  0.00  0.00    +0.210 HD
ENDBRANCH  58  62
BRANCH  57  64
ATOM     64  O   UNL     1       5.432   4.390  -8.994  0.00  0.00    -0.384 OA
ATOM     65  H   UNL     1       5.828   4.010  -9.800  0.00  0.00    +0.210 HD
ENDBRANCH  57  64
ENDBRANCH  52  56
ENDBRANCH  51  52
ENDBRANCH   1  51
TORSDOF 20
