REMARK  Name = 
REMARK  16 active torsions:
REMARK  status: ('A' for Active; 'I' for Inactive)
REMARK    1  A    between atoms: C_3  and  O_49
REMARK    2  A    between atoms: C_6  and  C_7
REMARK    3  A    between atoms: C_8  and  C_9
REMARK    4  A    between atoms: C_9  and  O_11
REMARK    5  A    between atoms: O_11  and  C_12
REMARK    6  A    between atoms: C_12  and  C_13
REMARK    7  A    between atoms: C_15  and  O_48
REMARK    8  A    between atoms: C_17  and  O_47
REMARK    9  A    between atoms: C_19  and  O_46
REMARK   10  A    between atoms: C_21  and  O_24
REMARK   11  A    between atoms: O_24  and  C_25
REMARK   12  A    between atoms: C_26  and  C_38
REMARK   13  A    between atoms: C_30  and  O_37
REMARK   14  A    between atoms: C_32  and  O_36
REMARK   15  A    between atoms: C_40  and  O_45
REMARK   16  A    between atoms: C_41  and  O_44
REMARK                            x       y       z     vdW  Elec       q    Type
REMARK                         _______ _______ _______ _____ _____    ______ ____
ROOT
ATOM      1  C   UNL     1      -7.621   4.109  -0.592  0.00  0.00    +0.191 C 
ATOM      2  O   UNL     1      -8.390   3.061  -1.206  0.00  0.00    -0.330 OA
ATOM      3  C   UNL     1      -8.064   2.923  -2.608  0.00  0.00    +0.340 C 
ATOM      4  C   UNL     1      -8.319   4.232  -3.405  0.00  0.00    +0.214 C 
ATOM      5  C   UNL     1      -7.674   5.418  -2.681  0.00  0.00    +0.180 C 
ATOM      6  C   UNL     1      -8.082   5.430  -1.211  0.00  0.00    +0.178 C 
ENDROOT
BRANCH   6   7
ATOM      7  O   UNL     1      -9.506   5.569  -1.104  0.00  0.00    -0.386 OA
ATOM      8  H   UNL     1      -9.907   4.677  -1.126  0.00  0.00    +0.210 HD
ENDBRANCH   6   7
BRANCH   5   9
ATOM      9  O   UNL     1      -8.006   6.637  -3.353  0.00  0.00    -0.386 OA
ATOM     10  H   UNL     1      -8.392   7.243  -2.691  0.00  0.00    +0.210 HD
ENDBRANCH   5   9
BRANCH   4  11
ATOM     11  O   UNL     1      -7.795   4.106  -4.745  0.00  0.00    -0.383 OA
ATOM     12  H   UNL     1      -7.192   4.858  -4.891  0.00  0.00    +0.210 HD
ENDBRANCH   4  11
BRANCH   3  13
ATOM     13  O   UNL     1      -8.911   1.943  -3.205  0.00  0.00    -0.453 OA
BRANCH  13  14
ATOM     14  C   UNL     1      -8.528   0.630  -3.400  0.00  0.00    +0.214 A 
ATOM     15  C   UNL     1      -7.252   0.057  -2.874  0.00  0.00    +0.238 A 
ATOM     16  O   UNL     1      -6.308   0.764  -2.546  0.00  0.00    -0.283 OA
ATOM     17  C   UNL     1      -7.141  -1.409  -2.833  0.00  0.00    +0.109 A 
ATOM     18  C   UNL     1      -8.114  -2.149  -3.503  0.00  0.00    +0.147 A 
ATOM     19  C   UNL     1      -8.081  -3.547  -3.466  0.00  0.00    +0.092 A 
ATOM     20  C   UNL     1      -7.050  -4.188  -2.780  0.00  0.00    +0.124 A 
ATOM     21  C   UNL     1      -6.056  -3.462  -2.138  0.00  0.00    +0.091 A 
ATOM     22  O   UNL     1      -9.113  -1.565  -4.245  0.00  0.00    -0.451 OA
ATOM     23  C   UNL     1      -6.102  -2.071  -2.163  0.00  0.00    +0.135 A 
ATOM     24  C   UNL     1      -9.318  -0.195  -4.125  0.00  0.00    +0.181 A 
BRANCH  24  25
ATOM     25  C   UNL     1     -10.508   0.303  -4.883  0.00  0.00    +0.025 A 
ATOM     26  C   UNL     1     -11.682  -0.465  -4.989  0.00  0.00    +0.015 A 
ATOM     27  C   UNL     1     -12.801   0.014  -5.690  0.00  0.00    +0.050 A 
ATOM     28  C   UNL     1     -12.750   1.264  -6.289  0.00  0.00    +0.158 A 
ATOM     29  C   UNL     1     -11.593   2.026  -6.224  0.00  0.00    +0.159 A 
ATOM     30  C   UNL     1     -10.471   1.544  -5.557  0.00  0.00    +0.060 A 
BRANCH  29  31
ATOM     31  O   UNL     1     -11.602   3.256  -6.825  0.00  0.00    -0.503 OA
ATOM     32  H   UNL     1     -10.752   3.691  -6.628  0.00  0.00    +0.292 HD
ENDBRANCH  29  31
BRANCH  28  33
ATOM     33  O   UNL     1     -13.849   1.746  -6.942  0.00  0.00    -0.503 OA
ATOM     34  H   UNL     1     -13.582   2.637  -7.244  0.00  0.00    +0.292 HD
ENDBRANCH  28  33
ENDBRANCH  24  25
BRANCH  20  35
ATOM     35  O   UNL     1      -6.969  -5.550  -2.706  0.00  0.00    -0.507 OA
ATOM     36  H   UNL     1      -7.734  -5.937  -3.164  0.00  0.00    +0.292 HD
ENDBRANCH  20  35
BRANCH  23  37
ATOM     37  O   UNL     1      -5.125  -1.373  -1.511  0.00  0.00    -0.506 OA
ATOM     38  H   UNL     1      -4.410  -1.967  -1.236  0.00  0.00    +0.292 HD
ENDBRANCH  23  37
ENDBRANCH  13  14
ENDBRANCH   3  13
BRANCH   1  39
ATOM     39  C   UNL     1      -7.774   4.150   0.941  0.00  0.00    +0.266 C 
BRANCH  39  40
ATOM     40  O   UNL     1      -7.094   5.298   1.515  0.00  0.00    -0.459 OA
BRANCH  40  41
ATOM     41  C   UNL     1      -5.738   5.298   1.426  0.00  0.00    +0.332 C 
ATOM     42  O   UNL     1      -5.055   4.381   1.002  0.00  0.00    -0.246 OA
BRANCH  41  44
ATOM     43  C   UNL     1      -3.916   6.904   1.583  0.00  0.00    +0.015 C 
ATOM     44  C   UNL     1      -5.218   6.640   1.783  0.00  0.00    +0.092 C 
BRANCH  43  46
ATOM     45  C   UNL     1      -3.831   9.431   1.580  0.00  0.00    +0.011 A 
ATOM     46  C   UNL     1      -3.226   8.187   1.806  0.00  0.00    -0.025 A 
ATOM     47  C   UNL     1      -1.864   8.160   2.153  0.00  0.00    +0.011 A 
ATOM     48  C   UNL     1      -1.127   9.343   2.269  0.00  0.00    +0.046 A 
ATOM     49  C   UNL     1      -1.742  10.563   2.027  0.00  0.00    +0.117 A 
ATOM     50  C   UNL     1      -3.091  10.617   1.689  0.00  0.00    +0.046 A 
BRANCH  49  51
ATOM     51  O   UNL     1      -0.979  11.688   2.113  0.00  0.00    -0.507 OA
ATOM     52  H   UNL     1      -1.507  12.449   1.822  0.00  0.00    +0.292 HD
ENDBRANCH  49  51
ENDBRANCH  43  46
ENDBRANCH  41  44
ENDBRANCH  40  41
ENDBRANCH  39  40
ENDBRANCH   1  39
TORSDOF 16
