REMARK  Name = 
REMARK  14 active torsions:
REMARK  status: ('A' for Active; 'I' for Inactive)
REMARK    1  A    between atoms: C_4  and  C_7
REMARK    2  A    between atoms: C_7  and  O_9
REMARK    3  A    between atoms: O_9  and  C_10
REMARK    4  A    between atoms: C_10  and  C_11
REMARK    5  A    between atoms: C_13  and  O_46
REMARK    6  A    between atoms: C_15  and  O_45
REMARK    7  A    between atoms: C_17  and  O_44
REMARK    8  A    between atoms: C_19  and  O_22
REMARK    9  A    between atoms: O_22  and  C_23
REMARK   10  A    between atoms: C_24  and  C_36
REMARK   11  A    between atoms: C_28  and  O_35
REMARK   12  A    between atoms: C_30  and  O_34
REMARK   13  A    between atoms: C_38  and  O_43
REMARK   14  A    between atoms: C_39  and  O_42
REMARK                            x       y       z     vdW  Elec       q    Type
REMARK                         _______ _______ _______ _____ _____    ______ ____
ROOT
ATOM      1  C   UNL     1       6.215   0.471  -3.345  0.00  0.00    +0.214 A 
ATOM      2  C   UNL     1       4.931   1.030  -2.821  0.00  0.00    +0.238 A 
ATOM      3  O   UNL     1       4.030   0.317  -2.398  0.00  0.00    -0.283 OA
ATOM      4  C   UNL     1       4.756   2.489  -2.890  0.00  0.00    +0.109 A 
ATOM      5  C   UNL     1       5.680   3.221  -3.632  0.00  0.00    +0.147 A 
ATOM      6  C   UNL     1       5.572   4.614  -3.700  0.00  0.00    +0.092 A 
ATOM      7  C   UNL     1       4.522   5.252  -3.041  0.00  0.00    +0.124 A 
ATOM      8  C   UNL     1       3.578   4.529  -2.322  0.00  0.00    +0.091 A 
ATOM      9  O   UNL     1       6.700   2.630  -4.341  0.00  0.00    -0.451 OA
ATOM     10  C   UNL     1       3.695   3.146  -2.246  0.00  0.00    +0.135 A 
ATOM     11  C   UNL     1       6.960   1.277  -4.138  0.00  0.00    +0.181 A 
ENDROOT
BRANCH  11  12
ATOM     12  C   UNL     1       8.155   0.777  -4.891  0.00  0.00    +0.025 A 
ATOM     13  C   UNL     1       9.308   1.568  -5.055  0.00  0.00    +0.015 A 
ATOM     14  C   UNL     1      10.434   1.077  -5.736  0.00  0.00    +0.050 A 
ATOM     15  C   UNL     1      10.415  -0.209  -6.253  0.00  0.00    +0.158 A 
ATOM     16  C   UNL     1       9.278  -0.995  -6.134  0.00  0.00    +0.159 A 
ATOM     17  C   UNL     1       8.148  -0.502  -5.489  0.00  0.00    +0.060 A 
BRANCH  15  18
ATOM     18  O   UNL     1      11.525  -0.704  -6.875  0.00  0.00    -0.503 OA
ATOM     19  H   UNL     1      11.282  -1.621  -7.117  0.00  0.00    +0.292 HD
ENDBRANCH  15  18
BRANCH  16  20
ATOM     20  O   UNL     1       9.314  -2.259  -6.659  0.00  0.00    -0.503 OA
ATOM     21  H   UNL     1       8.477  -2.702  -6.429  0.00  0.00    +0.292 HD
ENDBRANCH  16  20
ENDBRANCH  11  12
BRANCH   7  22
ATOM     22  O   UNL     1       4.370   6.606  -3.070  0.00  0.00    -0.507 OA
ATOM     23  H   UNL     1       5.093   6.999  -3.586  0.00  0.00    +0.292 HD
ENDBRANCH   7  22
BRANCH  10  24
ATOM     24  O   UNL     1       2.769   2.450  -1.521  0.00  0.00    -0.506 OA
ATOM     25  H   UNL     1       2.042   3.031  -1.246  0.00  0.00    +0.292 HD
ENDBRANCH  10  24
BRANCH   1  26
ATOM     26  O   UNL     1       6.653  -0.809  -3.057  0.00  0.00    -0.453 OA
BRANCH  26  29
ATOM     27  C   UNL     1       5.364  -2.974  -0.428  0.00  0.00    +0.191 C 
ATOM     28  O   UNL     1       6.128  -1.928  -1.057  0.00  0.00    -0.330 OA
ATOM     29  C   UNL     1       5.806  -1.793  -2.462  0.00  0.00    +0.340 C 
ATOM     30  C   UNL     1       6.046  -3.100  -3.261  0.00  0.00    +0.214 C 
ATOM     31  C   UNL     1       5.376  -4.269  -2.534  0.00  0.00    +0.180 C 
ATOM     32  C   UNL     1       5.808  -4.296  -1.068  0.00  0.00    +0.178 C 
BRANCH  30  33
ATOM     33  O   UNL     1       5.512  -2.974  -4.597  0.00  0.00    -0.383 OA
ATOM     34  H   UNL     1       4.994  -3.782  -4.772  0.00  0.00    +0.210 HD
ENDBRANCH  30  33
BRANCH  31  35
ATOM     35  O   UNL     1       5.677  -5.489  -3.220  0.00  0.00    -0.386 OA
ATOM     36  H   UNL     1       5.746  -6.196  -2.553  0.00  0.00    +0.210 HD
ENDBRANCH  31  35
BRANCH  32  37
ATOM     37  O   UNL     1       7.235  -4.431  -0.975  0.00  0.00    -0.386 OA
ATOM     38  H   UNL     1       7.621  -3.529  -1.013  0.00  0.00    +0.210 HD
ENDBRANCH  32  37
BRANCH  27  39
ATOM     39  C   UNL     1       5.574  -3.037   1.097  0.00  0.00    +0.266 C 
BRANCH  39  40
ATOM     40  O   UNL     1       4.838  -4.160   1.651  0.00  0.00    -0.458 OA
BRANCH  40  41
ATOM     41  C   UNL     1       3.516  -3.942   1.874  0.00  0.00    +0.339 C 
ATOM     42  O   UNL     1       2.961  -2.860   1.766  0.00  0.00    -0.245 OA
BRANCH  41  46
ATOM     43  C   UNL     1       1.201  -7.501   2.534  0.00  0.00    +0.000 A 
ATOM     44  C   UNL     1       2.576  -7.617   2.335  0.00  0.00    +0.001 A 
ATOM     45  C   UNL     1       3.363  -6.472   2.150  0.00  0.00    +0.015 A 
ATOM     46  C   UNL     1       2.769  -5.203   2.158  0.00  0.00    +0.059 A 
ATOM     47  C   UNL     1       1.380  -5.098   2.375  0.00  0.00    +0.015 A 
ATOM     48  C   UNL     1       0.598  -6.245   2.565  0.00  0.00    +0.001 A 
ENDBRANCH  41  46
ENDBRANCH  40  41
ENDBRANCH  39  40
ENDBRANCH  27  39
ENDBRANCH  26  29
ENDBRANCH   1  26
TORSDOF 14
