REMARK  Name = 
REMARK  12 active torsions:
REMARK  status: ('A' for Active; 'I' for Inactive)
REMARK    1  A    between atoms: C_3  and  O_38
REMARK    2  A    between atoms: C_4  and  O_21
REMARK    3  A    between atoms: C_6  and  C_7
REMARK    4  A    between atoms: C_8  and  O_20
REMARK    5  A    between atoms: C_12  and  O_19
REMARK    6  A    between atoms: C_14  and  O_18
REMARK    7  A    between atoms: O_21  and  C_22
REMARK    8  A    between atoms: C_24  and  O_37
REMARK    9  A    between atoms: C_26  and  O_36
REMARK   10  A    between atoms: C_28  and  O_35
REMARK   11  A    between atoms: C_30  and  C_33
REMARK   12  A    between atoms: C_33  and  O_34
REMARK                            x       y       z     vdW  Elec       q    Type
REMARK                         _______ _______ _______ _____ _____    ______ ____
ROOT
ATOM      1  C   UNL     1       4.212   3.860   1.063  0.00  0.00    +0.015 A 
ATOM      2  C   UNL     1       2.948   3.526   1.579  0.00  0.00    +0.025 A 
ATOM      3  C   UNL     1       2.510   2.213   1.350  0.00  0.00    +0.061 A 
ATOM      4  C   UNL     1       3.247   1.292   0.564  0.00  0.00    +0.166 A 
ATOM      5  C   UNL     1       4.453   1.683   0.005  0.00  0.00    +0.159 A 
ATOM      6  C   UNL     1       4.945   2.963   0.268  0.00  0.00    +0.050 A 
ENDROOT
BRANCH   2   7
ATOM      7  C   UNL     1       2.089   4.528   2.299  0.00  0.00    +0.181 A 
ATOM      8  O   UNL     1       1.314   3.999   3.334  0.00  0.00    -0.451 OA
ATOM      9  C   UNL     1       0.442   4.828   4.011  0.00  0.00    +0.147 A 
ATOM     10  C   UNL     1       0.367   6.198   3.780  0.00  0.00    +0.109 A 
ATOM     11  C   UNL     1      -0.519   7.002   4.515  0.00  0.00    +0.135 A 
ATOM     12  C   UNL     1      -1.351   6.440   5.475  0.00  0.00    +0.091 A 
ATOM     13  C   UNL     1      -1.285   5.069   5.694  0.00  0.00    +0.124 A 
ATOM     14  C   UNL     1       1.214   6.769   2.734  0.00  0.00    +0.238 A 
ATOM     15  O   UNL     1       1.187   7.985   2.550  0.00  0.00    -0.283 OA
ATOM     16  C   UNL     1      -0.397   4.262   4.974  0.00  0.00    +0.092 A 
ATOM     17  C   UNL     1       2.038   5.833   1.934  0.00  0.00    +0.208 A 
BRANCH  11  18
ATOM     18  O   UNL     1      -0.634   8.354   4.331  0.00  0.00    -0.506 OA
ATOM     19  H   UNL     1       0.006   8.622   3.629  0.00  0.00    +0.292 HD
ENDBRANCH  11  18
BRANCH  13  20
ATOM     20  O   UNL     1      -2.090   4.474   6.620  0.00  0.00    -0.507 OA
ATOM     21  H   UNL     1      -2.652   5.154   7.037  0.00  0.00    +0.292 HD
ENDBRANCH  13  20
BRANCH  17  22
ATOM     22  O   UNL     1       2.684   6.382   0.840  0.00  0.00    -0.501 OA
ATOM     23  H   UNL     1       2.768   5.695   0.157  0.00  0.00    +0.292 HD
ENDBRANCH  17  22
ENDBRANCH   2   7
BRANCH   5  24
ATOM     24  O   UNL     1       5.130   0.857  -0.845  0.00  0.00    -0.503 OA
ATOM     25  H   UNL     1       5.816   1.375  -1.300  0.00  0.00    +0.292 HD
ENDBRANCH   5  24
BRANCH   4  26
ATOM     26  O   UNL     1       2.563   0.157   0.304  0.00  0.00    -0.457 OA
BRANCH  26  27
ATOM     27  C   UNL     1       3.080  -1.152   0.090  0.00  0.00    +0.339 C 
ATOM     28  O   UNL     1       3.360  -1.533  -1.264  0.00  0.00    -0.331 OA
ATOM     29  C   UNL     1       3.192  -2.964  -1.458  0.00  0.00    +0.179 C 
ATOM     30  C   UNL     1       4.034  -3.803  -0.451  0.00  0.00    +0.177 C 
ATOM     31  C   UNL     1       3.986  -3.258   0.995  0.00  0.00    +0.180 C 
ATOM     32  C   UNL     1       4.175  -1.727   1.014  0.00  0.00    +0.214 C 
BRANCH  30  33
ATOM     33  O   UNL     1       3.625  -5.177  -0.452  0.00  0.00    -0.386 OA
ATOM     34  H   UNL     1       3.039  -5.279   0.330  0.00  0.00    +0.210 HD
ENDBRANCH  30  33
BRANCH  31  35
ATOM     35  O   UNL     1       2.730  -3.678   1.566  0.00  0.00    -0.386 OA
ATOM     36  H   UNL     1       2.411  -2.991   2.179  0.00  0.00    +0.210 HD
ENDBRANCH  31  35
BRANCH  32  37
ATOM     37  O   UNL     1       5.510  -1.463   0.561  0.00  0.00    -0.383 OA
ATOM     38  H   UNL     1       5.431  -1.063  -0.332  0.00  0.00    +0.210 HD
ENDBRANCH  32  37
BRANCH  29  39
ATOM     39  C   UNL     1       1.698  -3.367  -1.502  0.00  0.00    +0.190 C 
BRANCH  39  40
ATOM     40  O   UNL     1       0.975  -2.592  -2.458  0.00  0.00    -0.392 OA
ATOM     41  H   UNL     1       1.362  -2.771  -3.332  0.00  0.00    +0.210 HD
ENDBRANCH  39  40
ENDBRANCH  29  39
ENDBRANCH  26  27
ENDBRANCH   4  26
TORSDOF 12
