REMARK  Name = 
REMARK  12 active torsions:
REMARK  status: ('A' for Active; 'I' for Inactive)
REMARK    1  A    between atoms: C_3  and  O_39
REMARK    2  A    between atoms: C_4  and  O_38
REMARK    3  A    between atoms: C_6  and  C_7
REMARK    4  A    between atoms: C_8  and  O_37
REMARK    5  A    between atoms: C_12  and  O_36
REMARK    6  A    between atoms: C_14  and  O_18
REMARK    7  A    between atoms: O_18  and  C_19
REMARK    8  A    between atoms: C_21  and  O_35
REMARK    9  A    between atoms: C_23  and  O_34
REMARK   10  A    between atoms: C_25  and  O_33
REMARK   11  A    between atoms: C_27  and  C_30
REMARK   12  A    between atoms: C_30  and  O_32
REMARK                            x       y       z     vdW  Elec       q    Type
REMARK                         _______ _______ _______ _____ _____    ______ ____
ROOT
ATOM      1  C   UNL     1      -1.395  -2.562  -0.164  0.00  0.00    +0.181 A 
ATOM      2  O   UNL     1      -0.650  -3.744   0.017  0.00  0.00    -0.451 OA
ATOM      3  C   UNL     1      -1.279  -4.967  -0.155  0.00  0.00    +0.147 A 
ATOM      4  C   UNL     1      -2.649  -5.053  -0.371  0.00  0.00    +0.109 A 
ATOM      5  C   UNL     1      -3.274  -6.295  -0.463  0.00  0.00    +0.135 A 
ATOM      6  C   UNL     1      -2.531  -7.457  -0.369  0.00  0.00    +0.092 A 
ATOM      7  C   UNL     1      -1.133  -7.406  -0.319  0.00  0.00    +0.131 A 
ATOM      8  C   UNL     1      -3.427  -3.836  -0.560  0.00  0.00    +0.238 A 
ATOM      9  O   UNL     1      -4.633  -3.904  -0.800  0.00  0.00    -0.283 OA
ATOM     10  C   UNL     1      -0.509  -6.153  -0.140  0.00  0.00    +0.093 A 
ATOM     11  C   UNL     1      -2.702  -2.554  -0.509  0.00  0.00    +0.208 A 
ENDROOT
BRANCH   1  13
ATOM     12  C   UNL     1      -1.248  -0.095   0.448  0.00  0.00    +0.015 A 
ATOM     13  C   UNL     1      -0.624  -1.288   0.001  0.00  0.00    +0.025 A 
ATOM     14  C   UNL     1       0.739  -1.220  -0.317  0.00  0.00    +0.060 A 
ATOM     15  C   UNL     1       1.402   0.006  -0.285  0.00  0.00    +0.159 A 
ATOM     16  C   UNL     1       0.740   1.182   0.057  0.00  0.00    +0.158 A 
ATOM     17  C   UNL     1      -0.588   1.140   0.439  0.00  0.00    +0.050 A 
BRANCH  15  18
ATOM     18  O   UNL     1       2.726   0.056  -0.621  0.00  0.00    -0.503 OA
ATOM     19  H   UNL     1       2.970   0.999  -0.526  0.00  0.00    +0.292 HD
ENDBRANCH  15  18
BRANCH  16  20
ATOM     20  O   UNL     1       1.440   2.355  -0.004  0.00  0.00    -0.503 OA
ATOM     21  H   UNL     1       0.824   3.090   0.166  0.00  0.00    +0.292 HD
ENDBRANCH  16  20
ENDBRANCH   1  13
BRANCH   5  22
ATOM     22  O   UNL     1      -4.612  -6.456  -0.699  0.00  0.00    -0.506 OA
ATOM     23  H   UNL     1      -5.006  -5.566  -0.852  0.00  0.00    +0.292 HD
ENDBRANCH   5  22
BRANCH  11  24
ATOM     24  O   UNL     1      -3.442  -1.437  -0.852  0.00  0.00    -0.501 OA
ATOM     25  H   UNL     1      -2.856  -0.812  -1.309  0.00  0.00    +0.292 HD
ENDBRANCH  11  24
BRANCH   7  26
ATOM     26  O   UNL     1      -0.339  -8.534  -0.487  0.00  0.00    -0.461 OA
BRANCH  26  27
ATOM     27  C   UNL     1      -0.998  -9.623  -1.185  0.00  0.00    +0.340 C 
ATOM     28  O   UNL     1      -1.598 -10.518  -0.244  0.00  0.00    -0.322 OA
ATOM     29  C   UNL     1      -0.979 -11.782  -0.005  0.00  0.00    +0.261 C 
ATOM     30  C   UNL     1      -0.531 -12.479  -1.288  0.00  0.00    +0.185 C 
ATOM     31  C   UNL     1       0.446 -11.599  -2.074  0.00  0.00    +0.180 C 
ATOM     32  C   UNL     1      -0.167 -10.226  -2.351  0.00  0.00    +0.214 C 
BRANCH  29  33
ATOM     33  C   UNL     1       0.125 -11.728   1.052  0.00  0.00    +0.337 C 
ATOM     34  O   UNL     1       0.968 -12.598   1.238  0.00  0.00    -0.248 OA
BRANCH  33  35
ATOM     35  O   UNL     1       0.066 -10.602   1.801  0.00  0.00    -0.479 OA
ATOM     36  H   UNL     1      -0.689 -10.035   1.524  0.00  0.00    +0.295 HD
ENDBRANCH  33  35
ENDBRANCH  29  33
BRANCH  30  37
ATOM     37  O   UNL     1      -1.703 -12.714  -2.100  0.00  0.00    -0.386 OA
ATOM     38  H   UNL     1      -1.433 -13.293  -2.839  0.00  0.00    +0.210 HD
ENDBRANCH  30  37
BRANCH  31  39
ATOM     39  O   UNL     1       1.729 -11.530  -1.472  0.00  0.00    -0.386 OA
ATOM     40  H   UNL     1       1.776 -10.830  -0.794  0.00  0.00    +0.210 HD
ENDBRANCH  31  39
BRANCH  32  41
ATOM     41  O   UNL     1      -1.062 -10.400  -3.484  0.00  0.00    -0.383 OA
ATOM     42  H   UNL     1      -1.793 -10.981  -3.181  0.00  0.00    +0.210 HD
ENDBRANCH  32  41
ENDBRANCH  26  27
ENDBRANCH   7  26
TORSDOF 12
