REMARK  Name = 
REMARK  12 active torsions:
REMARK  status: ('A' for Active; 'I' for Inactive)
REMARK    1  A    between atoms: C_3  and  O_39
REMARK    2  A    between atoms: C_4  and  O_21
REMARK    3  A    between atoms: C_6  and  C_7
REMARK    4  A    between atoms: C_8  and  O_20
REMARK    5  A    between atoms: C_12  and  O_19
REMARK    6  A    between atoms: C_14  and  O_18
REMARK    7  A    between atoms: O_21  and  C_22
REMARK    8  A    between atoms: C_24  and  O_38
REMARK    9  A    between atoms: C_26  and  O_37
REMARK   10  A    between atoms: C_28  and  O_36
REMARK   11  A    between atoms: C_30  and  C_33
REMARK   12  A    between atoms: C_33  and  O_35
REMARK                            x       y       z     vdW  Elec       q    Type
REMARK                         _______ _______ _______ _____ _____    ______ ____
ROOT
ATOM      1  C   UNL     1       4.218   3.885   1.065  0.00  0.00    +0.015 A 
ATOM      2  C   UNL     1       2.957   3.559   1.590  0.00  0.00    +0.025 A 
ATOM      3  C   UNL     1       2.505   2.249   1.369  0.00  0.00    +0.061 A 
ATOM      4  C   UNL     1       3.218   1.326   0.569  0.00  0.00    +0.166 A 
ATOM      5  C   UNL     1       4.409   1.720  -0.023  0.00  0.00    +0.159 A 
ATOM      6  C   UNL     1       4.927   2.988   0.252  0.00  0.00    +0.050 A 
ENDROOT
BRANCH   2   7
ATOM      7  C   UNL     1       2.105   4.561   2.308  0.00  0.00    +0.181 A 
ATOM      8  O   UNL     1       1.327   4.021   3.337  0.00  0.00    -0.451 OA
ATOM      9  C   UNL     1       0.445   4.844   4.014  0.00  0.00    +0.147 A 
ATOM     10  C   UNL     1       0.381   6.216   3.795  0.00  0.00    +0.109 A 
ATOM     11  C   UNL     1      -0.516   7.009   4.528  0.00  0.00    +0.135 A 
ATOM     12  C   UNL     1      -1.362   6.442   5.466  0.00  0.00    +0.091 A 
ATOM     13  C   UNL     1      -1.305   5.063   5.669  0.00  0.00    +0.124 A 
ATOM     14  C   UNL     1       1.245   6.799   2.779  0.00  0.00    +0.238 A 
ATOM     15  O   UNL     1       1.241   8.016   2.597  0.00  0.00    -0.283 OA
ATOM     16  C   UNL     1      -0.409   4.263   4.954  0.00  0.00    +0.092 A 
ATOM     17  C   UNL     1       2.059   5.868   1.957  0.00  0.00    +0.208 A 
BRANCH  11  18
ATOM     18  O   UNL     1      -0.620   8.370   4.359  0.00  0.00    -0.506 OA
ATOM     19  H   UNL     1       0.033   8.644   3.677  0.00  0.00    +0.292 HD
ENDBRANCH  11  18
BRANCH  13  20
ATOM     20  O   UNL     1      -2.130   4.460   6.574  0.00  0.00    -0.507 OA
ATOM     21  H   UNL     1      -2.689   5.140   6.989  0.00  0.00    +0.292 HD
ENDBRANCH  13  20
BRANCH  17  22
ATOM     22  O   UNL     1       2.706   6.425   0.866  0.00  0.00    -0.501 OA
ATOM     23  H   UNL     1       2.803   5.741   0.185  0.00  0.00    +0.292 HD
ENDBRANCH  17  22
ENDBRANCH   2   7
BRANCH   5  24
ATOM     24  O   UNL     1       5.029   0.919  -0.935  0.00  0.00    -0.503 OA
ATOM     25  H   UNL     1       5.837   1.359  -1.246  0.00  0.00    +0.292 HD
ENDBRANCH   5  24
BRANCH   4  26
ATOM     26  O   UNL     1       2.527   0.186   0.340  0.00  0.00    -0.457 OA
BRANCH  26  27
ATOM     27  C   UNL     1       3.058  -1.118   0.133  0.00  0.00    +0.340 C 
ATOM     28  O   UNL     1       3.239  -1.480  -1.248  0.00  0.00    -0.322 OA
ATOM     29  C   UNL     1       3.129  -2.906  -1.451  0.00  0.00    +0.261 C 
ATOM     30  C   UNL     1       4.005  -3.755  -0.498  0.00  0.00    +0.185 C 
ATOM     31  C   UNL     1       4.026  -3.234   0.962  0.00  0.00    +0.180 C 
ATOM     32  C   UNL     1       4.187  -1.695   1.013  0.00  0.00    +0.214 C 
BRANCH  29  33
ATOM     33  C   UNL     1       1.660  -3.327  -1.409  0.00  0.00    +0.337 C 
ATOM     34  O   UNL     1       1.251  -4.410  -1.023  0.00  0.00    -0.248 OA
BRANCH  33  35
ATOM     35  O   UNL     1       0.832  -2.328  -1.800  0.00  0.00    -0.479 OA
ATOM     36  H   UNL     1       1.345  -1.512  -2.011  0.00  0.00    +0.295 HD
ENDBRANCH  33  35
ENDBRANCH  29  33
BRANCH  30  37
ATOM     37  O   UNL     1       5.346  -3.730  -1.022  0.00  0.00    -0.386 OA
ATOM     38  H   UNL     1       5.898  -4.292  -0.445  0.00  0.00    +0.210 HD
ENDBRANCH  30  37
BRANCH  31  39
ATOM     39  O   UNL     1       2.882  -3.651   1.713  0.00  0.00    -0.386 OA
ATOM     40  H   UNL     1       2.071  -3.677   1.173  0.00  0.00    +0.210 HD
ENDBRANCH  31  39
BRANCH  32  41
ATOM     41  O   UNL     1       5.507  -1.371   0.556  0.00  0.00    -0.383 OA
ATOM     42  H   UNL     1       5.540  -1.566  -0.404  0.00  0.00    +0.210 HD
ENDBRANCH  32  41
ENDBRANCH  26  27
ENDBRANCH   4  26
TORSDOF 12
