REMARK  Name = 
REMARK  12 active torsions:
REMARK  status: ('A' for Active; 'I' for Inactive)
REMARK    1  A    between atoms: C_3  and  O_37
REMARK    2  A    between atoms: C_4  and  O_36
REMARK    3  A    between atoms: C_6  and  C_7
REMARK    4  A    between atoms: C_8  and  O_20
REMARK    5  A    between atoms: C_12  and  O_19
REMARK    6  A    between atoms: C_14  and  O_18
REMARK    7  A    between atoms: O_20  and  C_21
REMARK    8  A    between atoms: C_22  and  O_35
REMARK    9  A    between atoms: C_24  and  O_34
REMARK   10  A    between atoms: C_26  and  O_33
REMARK   11  A    between atoms: C_28  and  C_31
REMARK   12  A    between atoms: C_31  and  O_32
REMARK                            x       y       z     vdW  Elec       q    Type
REMARK                         _______ _______ _______ _____ _____    ______ ____
ROOT
ATOM      1  C   UNL     1      -1.365  -2.631   0.851  0.00  0.00    +0.181 A 
ATOM      2  O   UNL     1      -0.732  -3.863   1.002  0.00  0.00    -0.451 OA
ATOM      3  C   UNL     1      -1.287  -4.987   0.450  0.00  0.00    +0.147 A 
ATOM      4  C   UNL     1      -2.595  -5.017  -0.026  0.00  0.00    +0.109 A 
ATOM      5  C   UNL     1      -3.138  -6.223  -0.471  0.00  0.00    +0.135 A 
ATOM      6  C   UNL     1      -2.365  -7.382  -0.499  0.00  0.00    +0.091 A 
ATOM      7  C   UNL     1      -1.039  -7.324  -0.083  0.00  0.00    +0.124 A 
ATOM      8  C   UNL     1      -3.320  -3.741  -0.084  0.00  0.00    +0.238 A 
ATOM      9  O   UNL     1      -4.502  -3.735  -0.412  0.00  0.00    -0.283 OA
ATOM     10  C   UNL     1      -0.495  -6.137   0.401  0.00  0.00    +0.092 A 
ATOM     11  C   UNL     1      -2.560  -2.487   0.215  0.00  0.00    +0.214 A 
ENDROOT
BRANCH   1  13
ATOM     12  C   UNL     1       0.836  -1.707   1.655  0.00  0.00    +0.015 A 
ATOM     13  C   UNL     1      -0.552  -1.532   1.463  0.00  0.00    +0.025 A 
ATOM     14  C   UNL     1      -1.120  -0.325   1.907  0.00  0.00    +0.060 A 
ATOM     15  C   UNL     1      -0.321   0.674   2.450  0.00  0.00    +0.159 A 
ATOM     16  C   UNL     1       1.032   0.464   2.669  0.00  0.00    +0.158 A 
ATOM     17  C   UNL     1       1.623  -0.726   2.275  0.00  0.00    +0.050 A 
BRANCH  15  18
ATOM     18  O   UNL     1      -0.888   1.874   2.770  0.00  0.00    -0.503 OA
ATOM     19  H   UNL     1      -0.143   2.434   3.066  0.00  0.00    +0.292 HD
ENDBRANCH  15  18
BRANCH  16  20
ATOM     20  O   UNL     1       1.738   1.449   3.296  0.00  0.00    -0.503 OA
ATOM     21  H   UNL     1       2.539   1.047   3.676  0.00  0.00    +0.292 HD
ENDBRANCH  16  20
ENDBRANCH   1  13
BRANCH   5  22
ATOM     22  O   UNL     1      -4.431  -6.341  -0.901  0.00  0.00    -0.506 OA
ATOM     23  H   UNL     1      -4.873  -5.468  -0.799  0.00  0.00    +0.292 HD
ENDBRANCH   5  22
BRANCH   7  24
ATOM     24  O   UNL     1      -0.232  -8.423  -0.124  0.00  0.00    -0.507 OA
ATOM     25  H   UNL     1      -0.740  -9.177  -0.473  0.00  0.00    +0.292 HD
ENDBRANCH   7  24
BRANCH  11  26
ATOM     26  O   UNL     1      -3.185  -1.296  -0.147  0.00  0.00    -0.453 OA
BRANCH  26  27
ATOM     27  C   UNL     1      -2.380  -0.419  -0.961  0.00  0.00    +0.340 C 
ATOM     28  O   UNL     1      -2.760   0.938  -0.742  0.00  0.00    -0.331 OA
ATOM     29  C   UNL     1      -3.479   1.702  -1.712  0.00  0.00    +0.179 C 
ATOM     30  C   UNL     1      -3.613   1.121  -3.137  0.00  0.00    +0.177 C 
ATOM     31  C   UNL     1      -3.579  -0.403  -3.154  0.00  0.00    +0.180 C 
ATOM     32  C   UNL     1      -2.335  -0.877  -2.425  0.00  0.00    +0.214 C 
BRANCH  30  33
ATOM     33  O   UNL     1      -4.796   1.584  -3.808  0.00  0.00    -0.386 OA
ATOM     34  H   UNL     1      -5.408   0.818  -3.839  0.00  0.00    +0.210 HD
ENDBRANCH  30  33
BRANCH  31  35
ATOM     35  O   UNL     1      -4.808  -0.918  -2.631  0.00  0.00    -0.386 OA
ATOM     36  H   UNL     1      -4.806  -0.869  -1.655  0.00  0.00    +0.210 HD
ENDBRANCH  31  35
BRANCH  32  37
ATOM     37  O   UNL     1      -1.177  -0.342  -3.094  0.00  0.00    -0.383 OA
ATOM     38  H   UNL     1      -0.443  -0.255  -2.459  0.00  0.00    +0.210 HD
ENDBRANCH  32  37
BRANCH  29  39
ATOM     39  C   UNL     1      -4.807   2.188  -1.103  0.00  0.00    +0.190 C 
BRANCH  39  40
ATOM     40  O   UNL     1      -5.409   3.222  -1.876  0.00  0.00    -0.392 OA
ATOM     41  H   UNL     1      -5.396   2.917  -2.810  0.00  0.00    +0.210 HD
ENDBRANCH  39  40
ENDBRANCH  29  39
ENDBRANCH  26  27
ENDBRANCH  11  26
TORSDOF 12
