REMARK  Name = 
REMARK  22 active torsions:
REMARK  status: ('A' for Active; 'I' for Inactive)
REMARK    1  A    between atoms: C_1  and  C_2
REMARK    2  A    between atoms: C_4  and  O_68
REMARK    3  A    between atoms: C_6  and  O_67
REMARK    4  A    between atoms: C_8  and  O_66
REMARK    5  A    between atoms: C_10  and  O_13
REMARK    6  A    between atoms: O_13  and  C_14
REMARK    7  A    between atoms: C_14  and  C_15
REMARK    8  A    between atoms: C_17  and  O_65
REMARK    9  A    between atoms: C_19  and  O_64
REMARK   10  A    between atoms: C_21  and  O_48
REMARK   11  A    between atoms: C_23  and  O_26
REMARK   12  A    between atoms: O_26  and  C_27
REMARK   13  A    between atoms: C_28  and  C_40
REMARK   14  A    between atoms: C_32  and  O_39
REMARK   15  A    between atoms: C_34  and  O_38
REMARK   16  A    between atoms: C_42  and  O_47
REMARK   17  A    between atoms: C_43  and  O_46
REMARK   18  A    between atoms: O_48  and  C_49
REMARK   19  A    between atoms: C_51  and  O_63
REMARK   20  A    between atoms: C_53  and  O_62
REMARK   21  A    between atoms: C_55  and  O_61
REMARK   22  A    between atoms: C_57  and  C_60
REMARK                            x       y       z     vdW  Elec       q    Type
REMARK                         _______ _______ _______ _____ _____    ______ ____
ROOT
ATOM      1  C   UNL     1       3.284   4.088  -4.413  0.00  0.00    +0.179 C 
ATOM      2  O   UNL     1       3.884   5.278  -3.898  0.00  0.00    -0.331 OA
ATOM      3  C   UNL     1       3.011   6.002  -3.047  0.00  0.00    +0.340 C 
ATOM      4  C   UNL     1       1.801   6.541  -3.847  0.00  0.00    +0.221 C 
ATOM      5  C   UNL     1       1.139   5.329  -4.567  0.00  0.00    +0.180 C 
ATOM      6  C   UNL     1       2.184   4.533  -5.379  0.00  0.00    +0.177 C 
ENDROOT
BRANCH   6   7
ATOM      7  O   UNL     1       2.679   5.393  -6.415  0.00  0.00    -0.386 OA
ATOM      8  H   UNL     1       3.660   5.401  -6.340  0.00  0.00    +0.210 HD
ENDBRANCH   6   7
BRANCH   5   9
ATOM      9  O   UNL     1       0.065   5.781  -5.408  0.00  0.00    -0.386 OA
ATOM     10  H   UNL     1       0.056   5.213  -6.199  0.00  0.00    +0.210 HD
ENDBRANCH   5   9
BRANCH   4  11
ATOM     11  O   UNL     1       0.803   7.144  -2.988  0.00  0.00    -0.337 OA
BRANCH  11  12
ATOM     12  C   UNL     1       1.230   8.322  -2.313  0.00  0.00    +0.282 C 
ATOM     13  O   UNL     1       0.184   8.858  -1.488  0.00  0.00    -0.343 OA
ATOM     14  C   UNL     1      -0.972   9.287  -2.213  0.00  0.00    +0.149 C 
ATOM     15  C   UNL     1      -1.932   9.882  -1.184  0.00  0.00    +0.041 C 
ATOM     16  C   UNL     1      -0.636  10.320  -3.308  0.00  0.00    +0.174 C 
ATOM     17  C   UNL     1       0.533   9.813  -4.167  0.00  0.00    +0.179 C 
ATOM     18  C   UNL     1       1.717   9.427  -3.268  0.00  0.00    +0.201 C 
BRANCH  18  19
ATOM     19  O   UNL     1       2.239  10.548  -2.528  0.00  0.00    -0.384 OA
ATOM     20  H   UNL     1       1.703  10.616  -1.712  0.00  0.00    +0.210 HD
ENDBRANCH  18  19
BRANCH  17  21
ATOM     21  O   UNL     1       0.925  10.796  -5.129  0.00  0.00    -0.386 OA
ATOM     22  H   UNL     1       1.585  10.384  -5.714  0.00  0.00    +0.210 HD
ENDBRANCH  17  21
BRANCH  16  23
ATOM     23  O   UNL     1      -1.802  10.579  -4.099  0.00  0.00    -0.387 OA
ATOM     24  H   UNL     1      -1.845   9.908  -4.802  0.00  0.00    +0.210 HD
ENDBRANCH  16  23
ENDBRANCH  11  12
ENDBRANCH   4  11
BRANCH   3  25
ATOM     25  O   UNL     1       3.818   6.988  -2.377  0.00  0.00    -0.453 OA
BRANCH  25  26
ATOM     26  C   UNL     1       4.716   6.477  -1.419  0.00  0.00    +0.214 A 
ATOM     27  C   UNL     1       4.625   5.021  -0.984  0.00  0.00    +0.238 A 
ATOM     28  O   UNL     1       3.898   4.187  -1.506  0.00  0.00    -0.283 OA
ATOM     29  C   UNL     1       5.453   4.554   0.116  0.00  0.00    +0.109 A 
ATOM     30  C   UNL     1       6.390   5.438   0.611  0.00  0.00    +0.147 A 
ATOM     31  C   UNL     1       7.238   5.028   1.643  0.00  0.00    +0.092 A 
ATOM     32  C   UNL     1       7.123   3.736   2.156  0.00  0.00    +0.124 A 
ATOM     33  C   UNL     1       6.183   2.844   1.661  0.00  0.00    +0.091 A 
ATOM     34  O   UNL     1       6.563   6.703   0.122  0.00  0.00    -0.451 OA
ATOM     35  C   UNL     1       5.345   3.256   0.630  0.00  0.00    +0.135 A 
ATOM     36  C   UNL     1       5.720   7.216  -0.872  0.00  0.00    +0.181 A 
BRANCH  36  37
ATOM     37  C   UNL     1       6.155   8.618  -1.263  0.00  0.00    +0.025 A 
ATOM     38  C   UNL     1       7.385   9.122  -0.765  0.00  0.00    +0.015 A 
ATOM     39  C   UNL     1       7.946  10.327  -1.220  0.00  0.00    +0.050 A 
ATOM     40  C   UNL     1       7.263  11.074  -2.158  0.00  0.00    +0.158 A 
ATOM     41  C   UNL     1       5.998  10.676  -2.569  0.00  0.00    +0.159 A 
ATOM     42  C   UNL     1       5.456   9.459  -2.139  0.00  0.00    +0.060 A 
BRANCH  41  43
ATOM     43  O   UNL     1       5.306  11.507  -3.409  0.00  0.00    -0.503 OA
ATOM     44  H   UNL     1       4.349  11.365  -3.235  0.00  0.00    +0.292 HD
ENDBRANCH  41  43
BRANCH  40  45
ATOM     45  O   UNL     1       7.847  12.188  -2.681  0.00  0.00    -0.503 OA
ATOM     46  H   UNL     1       7.255  12.460  -3.409  0.00  0.00    +0.292 HD
ENDBRANCH  40  45
ENDBRANCH  36  37
BRANCH  35  47
ATOM     47  O   UNL     1       4.427   2.366   0.157  0.00  0.00    -0.506 OA
ATOM     48  H   UNL     1       4.565   1.489   0.547  0.00  0.00    +0.292 HD
ENDBRANCH  35  47
BRANCH  32  49
ATOM     49  O   UNL     1       7.919   3.284   3.161  0.00  0.00    -0.507 OA
ATOM     50  H   UNL     1       8.520   3.997   3.445  0.00  0.00    +0.292 HD
ENDBRANCH  32  49
ENDBRANCH  25  26
ENDBRANCH   3  25
BRANCH   1  51
ATOM     51  C   UNL     1       4.409   3.271  -5.038  0.00  0.00    +0.197 C 
BRANCH  51  52
ATOM     52  O   UNL     1       5.037   4.058  -6.048  0.00  0.00    -0.346 OA
BRANCH  52  56
ATOM     53  C   UNL     1       8.215   1.129  -6.559  0.00  0.00    +0.041 C 
ATOM     54  C   UNL     1       8.372   2.577  -6.109  0.00  0.00    +0.149 C 
ATOM     55  O   UNL     1       7.140   3.131  -5.635  0.00  0.00    -0.343 OA
ATOM     56  C   UNL     1       6.161   3.402  -6.637  0.00  0.00    +0.282 C 
ATOM     57  C   UNL     1       6.686   4.351  -7.735  0.00  0.00    +0.201 C 
ATOM     58  C   UNL     1       8.040   3.887  -8.277  0.00  0.00    +0.179 C 
ATOM     59  C   UNL     1       9.000   3.532  -7.135  0.00  0.00    +0.174 C 
BRANCH  59  60
ATOM     60  O   UNL     1       9.347   4.746  -6.442  0.00  0.00    -0.387 OA
ATOM     61  H   UNL     1       8.680   4.896  -5.747  0.00  0.00    +0.210 HD
ENDBRANCH  59  60
BRANCH  58  62
ATOM     62  O   UNL     1       7.876   2.804  -9.207  0.00  0.00    -0.386 OA
ATOM     63  H   UNL     1       7.162   2.214  -8.914  0.00  0.00    +0.210 HD
ENDBRANCH  58  62
BRANCH  57  64
ATOM     64  O   UNL     1       5.729   4.456  -8.803  0.00  0.00    -0.384 OA
ATOM     65  H   UNL     1       6.098   4.004  -9.584  0.00  0.00    +0.210 HD
ENDBRANCH  57  64
ENDBRANCH  52  56
ENDBRANCH  51  52
ENDBRANCH   1  51
TORSDOF 20
