REMARK  Name = 
REMARK  11 active torsions:
REMARK  status: ('A' for Active; 'I' for Inactive)
REMARK    1  A    between atoms: C_3  and  O_35
REMARK    2  A    between atoms: C_4  and  O_34
REMARK    3  A    between atoms: C_6  and  C_7
REMARK    4  A    between atoms: C_8  and  O_20
REMARK    5  A    between atoms: C_12  and  O_19
REMARK    6  A    between atoms: C_14  and  O_18
REMARK    7  A    between atoms: O_20  and  C_21
REMARK    8  A    between atoms: C_23  and  O_33
REMARK    9  A    between atoms: C_25  and  O_32
REMARK   10  A    between atoms: C_27  and  C_30
REMARK   11  A    between atoms: C_30  and  O_31
REMARK                            x       y       z     vdW  Elec       q    Type
REMARK                         _______ _______ _______ _____ _____    ______ ____
ROOT
ATOM      1  C   UNL     1      -0.629   1.766  -0.845  0.00  0.00    +0.181 A 
ATOM      2  O   UNL     1       0.410   2.667  -1.080  0.00  0.00    -0.451 OA
ATOM      3  C   UNL     1       1.256   2.462  -2.133  0.00  0.00    +0.147 A 
ATOM      4  C   UNL     1       1.334   1.251  -2.774  0.00  0.00    +0.109 A 
ATOM      5  C   UNL     1       2.276   1.089  -3.804  0.00  0.00    +0.135 A 
ATOM      6  C   UNL     1       3.112   2.157  -4.189  0.00  0.00    +0.091 A 
ATOM      7  C   UNL     1       2.988   3.375  -3.543  0.00  0.00    +0.124 A 
ATOM      8  C   UNL     1       0.408   0.178  -2.357  0.00  0.00    +0.238 A 
ATOM      9  O   UNL     1       0.521  -0.938  -2.853  0.00  0.00    -0.283 OA
ATOM     10  C   UNL     1       2.061   3.543  -2.521  0.00  0.00    +0.092 A 
ATOM     11  C   UNL     1      -0.694   0.522  -1.375  0.00  0.00    +0.214 A 
ENDROOT
BRANCH   1  13
ATOM     12  C   UNL     1      -2.978   2.558  -0.665  0.00  0.00    +0.015 A 
ATOM     13  C   UNL     1      -1.691   2.491  -0.109  0.00  0.00    +0.025 A 
ATOM     14  C   UNL     1      -1.362   3.365   0.946  0.00  0.00    +0.060 A 
ATOM     15  C   UNL     1      -2.300   4.286   1.395  0.00  0.00    +0.159 A 
ATOM     16  C   UNL     1      -3.574   4.331   0.837  0.00  0.00    +0.158 A 
ATOM     17  C   UNL     1      -3.924   3.467  -0.188  0.00  0.00    +0.050 A 
BRANCH  15  18
ATOM     18  O   UNL     1      -1.960   5.191   2.361  0.00  0.00    -0.503 OA
ATOM     19  H   UNL     1      -2.741   5.778   2.429  0.00  0.00    +0.292 HD
ENDBRANCH  15  18
BRANCH  16  20
ATOM     20  O   UNL     1      -4.446   5.266   1.319  0.00  0.00    -0.503 OA
ATOM     21  H   UNL     1      -5.343   4.949   1.116  0.00  0.00    +0.292 HD
ENDBRANCH  16  20
ENDBRANCH   1  13
BRANCH   5  22
ATOM     22  O   UNL     1       2.437  -0.087  -4.491  0.00  0.00    -0.506 OA
ATOM     23  H   UNL     1       1.808  -0.746  -4.129  0.00  0.00    +0.292 HD
ENDBRANCH   5  22
BRANCH   7  24
ATOM     24  O   UNL     1       3.768   4.442  -3.881  0.00  0.00    -0.507 OA
ATOM     25  H   UNL     1       4.413   4.167  -4.554  0.00  0.00    +0.292 HD
ENDBRANCH   7  24
BRANCH  11  26
ATOM     26  O   UNL     1      -1.719  -0.419  -1.295  0.00  0.00    -0.453 OA
BRANCH  26  27
ATOM     27  C   UNL     1      -2.295  -0.818  -0.038  0.00  0.00    +0.340 C 
ATOM     28  O   UNL     1      -3.562  -0.187   0.185  0.00  0.00    -0.331 OA
ATOM     29  C   UNL     1      -4.631  -1.049  -0.254  0.00  0.00    +0.179 C 
ATOM     30  C   UNL     1      -4.062  -2.452  -0.461  0.00  0.00    +0.180 C 
ATOM     31  C   UNL     1      -2.596  -2.341  -0.052  0.00  0.00    +0.214 C 
BRANCH  30  32
ATOM     32  O   UNL     1      -4.188  -2.833  -1.835  0.00  0.00    -0.386 OA
ATOM     33  H   UNL     1      -3.685  -3.657  -1.959  0.00  0.00    +0.210 HD
ENDBRANCH  30  32
BRANCH  31  34
ATOM     34  O   UNL     1      -2.502  -2.967   1.239  0.00  0.00    -0.383 OA
ATOM     35  H   UNL     1      -1.778  -2.559   1.745  0.00  0.00    +0.210 HD
ENDBRANCH  31  34
BRANCH  29  36
ATOM     36  C   UNL     1      -5.768  -0.988   0.782  0.00  0.00    +0.190 C 
BRANCH  36  37
ATOM     37  O   UNL     1      -6.329   0.328   0.863  0.00  0.00    -0.392 OA
ATOM     38  H   UNL     1      -6.516   0.624  -0.042  0.00  0.00    +0.210 HD
ENDBRANCH  36  37
ENDBRANCH  29  36
ENDBRANCH  26  27
ENDBRANCH  11  26
TORSDOF 11
