REMARK  Name = 
REMARK  18 active torsions:
REMARK  status: ('A' for Active; 'I' for Inactive)
REMARK    1  A    between atoms: C_3  and  O_38
REMARK    2  A    between atoms: C_4  and  O_37
REMARK    3  A    between atoms: C_6  and  C_7
REMARK    4  A    between atoms: C_8  and  O_36
REMARK    5  A    between atoms: C_12  and  O_35
REMARK    6  A    between atoms: C_14  and  O_18
REMARK    7  A    between atoms: O_18  and  C_19
REMARK    8  A    between atoms: C_21  and  O_34
REMARK    9  A    between atoms: C_23  and  O_33
REMARK   10  A    between atoms: C_25  and  O_32
REMARK   11  A    between atoms: C_27  and  C_30
REMARK   12  A    between atoms: C_30  and  O_31
REMARK   13  A    between atoms: O_38  and  C_39
REMARK   14  A    between atoms: C_41  and  O_54
REMARK   15  A    between atoms: C_43  and  O_53
REMARK   16  A    between atoms: C_45  and  O_52
REMARK   17  A    between atoms: C_47  and  C_50
REMARK   18  A    between atoms: C_50  and  O_51
REMARK                            x       y       z     vdW  Elec       q    Type
REMARK                         _______ _______ _______ _____ _____    ______ ____
ROOT
ATOM      1  C   UNL     1      -1.366  -2.566  -0.210  0.00  0.00    +0.181 A 
ATOM      2  O   UNL     1      -0.658  -3.768  -0.033  0.00  0.00    -0.451 OA
ATOM      3  C   UNL     1      -1.290  -4.972  -0.241  0.00  0.00    +0.147 A 
ATOM      4  C   UNL     1      -2.651  -5.035  -0.527  0.00  0.00    +0.109 A 
ATOM      5  C   UNL     1      -3.272  -6.262  -0.689  0.00  0.00    +0.135 A 
ATOM      6  C   UNL     1      -2.547  -7.439  -0.570  0.00  0.00    +0.092 A 
ATOM      7  C   UNL     1      -1.177  -7.415  -0.263  0.00  0.00    +0.131 A 
ATOM      8  C   UNL     1      -3.407  -3.792  -0.684  0.00  0.00    +0.238 A 
ATOM      9  O   UNL     1      -4.611  -3.838  -0.911  0.00  0.00    -0.283 OA
ATOM     10  C   UNL     1      -0.545  -6.165  -0.123  0.00  0.00    +0.093 A 
ATOM     11  C   UNL     1      -2.662  -2.517  -0.587  0.00  0.00    +0.208 A 
ENDROOT
BRANCH   1  13
ATOM     12  C   UNL     1       0.859  -1.463  -0.123  0.00  0.00    +0.015 A 
ATOM     13  C   UNL     1      -0.526  -1.358   0.042  0.00  0.00    +0.025 A 
ATOM     14  C   UNL     1      -1.023  -0.128   0.514  0.00  0.00    +0.060 A 
ATOM     15  C   UNL     1      -0.169   0.967   0.720  0.00  0.00    +0.159 A 
ATOM     16  C   UNL     1       1.206   0.865   0.505  0.00  0.00    +0.165 A 
ATOM     17  C   UNL     1       1.709  -0.389   0.151  0.00  0.00    +0.050 A 
BRANCH  15  18
ATOM     18  O   UNL     1      -0.737   2.141   1.132  0.00  0.00    -0.503 OA
ATOM     19  H   UNL     1       0.001   2.749   1.322  0.00  0.00    +0.292 HD
ENDBRANCH  15  18
BRANCH  16  20
ATOM     20  O   UNL     1       1.981   2.006   0.634  0.00  0.00    -0.457 OA
BRANCH  20  21
ATOM     21  C   UNL     1       3.239   1.928  -0.081  0.00  0.00    +0.339 C 
ATOM     22  O   UNL     1       4.254   1.332   0.723  0.00  0.00    -0.331 OA
ATOM     23  C   UNL     1       5.375   2.109   1.138  0.00  0.00    +0.179 C 
ATOM     24  C   UNL     1       5.888   3.033   0.023  0.00  0.00    +0.177 C 
ATOM     25  C   UNL     1       4.787   4.008  -0.394  0.00  0.00    +0.180 C 
ATOM     26  C   UNL     1       3.560   3.225  -0.874  0.00  0.00    +0.214 C 
BRANCH  26  27
ATOM     27  O   UNL     1       3.840   2.845  -2.250  0.00  0.00    -0.383 OA
ATOM     28  H   UNL     1       4.587   2.206  -2.206  0.00  0.00    +0.210 HD
ENDBRANCH  26  27
BRANCH  25  29
ATOM     29  O   UNL     1       4.507   4.918   0.666  0.00  0.00    -0.386 OA
ATOM     30  H   UNL     1       3.586   5.223   0.587  0.00  0.00    +0.210 HD
ENDBRANCH  25  29
BRANCH  24  31
ATOM     31  O   UNL     1       6.260   2.233  -1.116  0.00  0.00    -0.386 OA
ATOM     32  H   UNL     1       6.843   2.780  -1.675  0.00  0.00    +0.210 HD
ENDBRANCH  24  31
BRANCH  23  33
ATOM     33  C   UNL     1       5.111   2.796   2.489  0.00  0.00    +0.190 C 
BRANCH  33  34
ATOM     34  O   UNL     1       6.261   3.499   2.950  0.00  0.00    -0.392 OA
ATOM     35  H   UNL     1       6.284   4.355   2.485  0.00  0.00    +0.210 HD
ENDBRANCH  33  34
ENDBRANCH  23  33
ENDBRANCH  20  21
ENDBRANCH  16  20
ENDBRANCH   1  13
BRANCH  11  36
ATOM     36  O   UNL     1      -3.369  -1.373  -0.902  0.00  0.00    -0.501 OA
ATOM     37  H   UNL     1      -2.753  -0.718  -1.269  0.00  0.00    +0.292 HD
ENDBRANCH  11  36
BRANCH   5  38
ATOM     38  O   UNL     1      -4.609  -6.406  -0.953  0.00  0.00    -0.506 OA
ATOM     39  H   UNL     1      -5.014  -5.510  -0.976  0.00  0.00    +0.292 HD
ENDBRANCH   5  38
BRANCH   7  40
ATOM     40  O   UNL     1      -0.415  -8.563  -0.035  0.00  0.00    -0.461 OA
BRANCH  40  41
ATOM     41  C   UNL     1      -1.225  -9.736   0.224  0.00  0.00    +0.339 C 
ATOM     42  O   UNL     1      -2.071  -9.518   1.355  0.00  0.00    -0.331 OA
ATOM     43  C   UNL     1      -1.502  -9.790   2.640  0.00  0.00    +0.179 C 
ATOM     44  C   UNL     1      -1.133 -11.275   2.717  0.00  0.00    +0.177 C 
ATOM     45  C   UNL     1      -0.131 -11.682   1.629  0.00  0.00    +0.180 C 
ATOM     46  C   UNL     1      -0.527 -11.130   0.246  0.00  0.00    +0.214 C 
BRANCH  46  47
ATOM     47  O   UNL     1      -1.504 -12.083  -0.273  0.00  0.00    -0.383 OA
ATOM     48  H   UNL     1      -2.284 -12.024   0.322  0.00  0.00    +0.210 HD
ENDBRANCH  46  47
BRANCH  45  49
ATOM     49  O   UNL     1       1.219 -11.399   1.982  0.00  0.00    -0.386 OA
ATOM     50  H   UNL     1       1.313 -10.431   2.112  0.00  0.00    +0.210 HD
ENDBRANCH  45  49
BRANCH  44  51
ATOM     51  O   UNL     1      -2.357 -12.019   2.512  0.00  0.00    -0.386 OA
ATOM     52  H   UNL     1      -2.161 -12.961   2.659  0.00  0.00    +0.210 HD
ENDBRANCH  44  51
BRANCH  43  53
ATOM     53  C   UNL     1      -0.391  -8.811   3.067  0.00  0.00    +0.190 C 
BRANCH  53  54
ATOM     54  O   UNL     1       0.804  -8.921   2.296  0.00  0.00    -0.392 OA
ATOM     55  H   UNL     1       0.662  -8.385   1.488  0.00  0.00    +0.210 HD
ENDBRANCH  53  54
ENDBRANCH  43  53
ENDBRANCH  40  41
ENDBRANCH   7  40
TORSDOF 18
