REMARK  Name = 
REMARK  12 active torsions:
REMARK  status: ('A' for Active; 'I' for Inactive)
REMARK    1  A    between atoms: C_3  and  O_39
REMARK    2  A    between atoms: C_4  and  O_38
REMARK    3  A    between atoms: C_6  and  C_7
REMARK    4  A    between atoms: C_8  and  O_20
REMARK    5  A    between atoms: C_12  and  O_19
REMARK    6  A    between atoms: C_14  and  O_18
REMARK    7  A    between atoms: O_20  and  C_21
REMARK    8  A    between atoms: C_23  and  O_37
REMARK    9  A    between atoms: C_25  and  O_36
REMARK   10  A    between atoms: C_27  and  O_35
REMARK   11  A    between atoms: C_29  and  C_32
REMARK   12  A    between atoms: C_32  and  O_34
REMARK                            x       y       z     vdW  Elec       q    Type
REMARK                         _______ _______ _______ _____ _____    ______ ____
ROOT
ATOM      1  C   UNL     1      -1.416  -2.650   0.686  0.00  0.00    +0.181 A 
ATOM      2  O   UNL     1      -0.653  -3.800   0.846  0.00  0.00    -0.451 OA
ATOM      3  C   UNL     1      -1.195  -4.995   0.429  0.00  0.00    +0.147 A 
ATOM      4  C   UNL     1      -2.533  -5.121   0.066  0.00  0.00    +0.109 A 
ATOM      5  C   UNL     1      -3.048  -6.354  -0.351  0.00  0.00    +0.135 A 
ATOM      6  C   UNL     1      -2.227  -7.473  -0.405  0.00  0.00    +0.091 A 
ATOM      7  C   UNL     1      -0.892  -7.346  -0.034  0.00  0.00    +0.124 A 
ATOM      8  C   UNL     1      -3.385  -3.935   0.121  0.00  0.00    +0.238 A 
ATOM      9  O   UNL     1      -4.602  -4.059   0.036  0.00  0.00    -0.283 OA
ATOM     10  C   UNL     1      -0.368  -6.117   0.378  0.00  0.00    +0.092 A 
ATOM     11  C   UNL     1      -2.706  -2.623   0.284  0.00  0.00    +0.214 A 
ENDROOT
BRANCH   1  13
ATOM     12  C   UNL     1      -0.952  -0.575   2.034  0.00  0.00    +0.015 A 
ATOM     13  C   UNL     1      -0.682  -1.385   0.914  0.00  0.00    +0.025 A 
ATOM     14  C   UNL     1       0.170  -0.896  -0.083  0.00  0.00    +0.060 A 
ATOM     15  C   UNL     1       0.618   0.418  -0.016  0.00  0.00    +0.159 A 
ATOM     16  C   UNL     1       0.255   1.251   1.038  0.00  0.00    +0.158 A 
ATOM     17  C   UNL     1      -0.495   0.751   2.092  0.00  0.00    +0.050 A 
BRANCH  15  18
ATOM     18  O   UNL     1       1.374   0.912  -1.041  0.00  0.00    -0.503 OA
ATOM     19  H   UNL     1       1.525   1.850  -0.805  0.00  0.00    +0.292 HD
ENDBRANCH  15  18
BRANCH  16  20
ATOM     20  O   UNL     1       0.626   2.564   0.970  0.00  0.00    -0.503 OA
ATOM     21  H   UNL     1       0.089   3.067   1.608  0.00  0.00    +0.292 HD
ENDBRANCH  16  20
ENDBRANCH   1  13
BRANCH   5  22
ATOM     22  O   UNL     1      -4.350  -6.532  -0.733  0.00  0.00    -0.506 OA
ATOM     23  H   UNL     1      -4.833  -5.688  -0.596  0.00  0.00    +0.292 HD
ENDBRANCH   5  22
BRANCH   7  24
ATOM     24  O   UNL     1      -0.057  -8.423  -0.064  0.00  0.00    -0.507 OA
ATOM     25  H   UNL     1      -0.558  -9.206  -0.355  0.00  0.00    +0.292 HD
ENDBRANCH   7  24
BRANCH  11  26
ATOM     26  O   UNL     1      -3.346  -1.425   0.015  0.00  0.00    -0.453 OA
BRANCH  26  27
ATOM     27  C   UNL     1      -4.774  -1.313   0.116  0.00  0.00    +0.340 C 
ATOM     28  O   UNL     1      -5.055  -0.044  -0.498  0.00  0.00    -0.322 OA
ATOM     29  C   UNL     1      -6.099   0.799   0.057  0.00  0.00    +0.261 C 
ATOM     30  C   UNL     1      -6.053   0.955   1.593  0.00  0.00    +0.185 C 
ATOM     31  C   UNL     1      -4.999   0.036   2.201  0.00  0.00    +0.180 C 
ATOM     32  C   UNL     1      -5.176  -1.366   1.600  0.00  0.00    +0.214 C 
BRANCH  29  33
ATOM     33  C   UNL     1      -5.902   2.126  -0.688  0.00  0.00    +0.337 C 
ATOM     34  O   UNL     1      -6.595   3.125  -0.578  0.00  0.00    -0.248 OA
BRANCH  33  35
ATOM     35  O   UNL     1      -4.856   2.072  -1.563  0.00  0.00    -0.479 OA
ATOM     36  H   UNL     1      -4.492   1.156  -1.546  0.00  0.00    +0.295 HD
ENDBRANCH  33  35
ENDBRANCH  29  33
BRANCH  30  37
ATOM     37  O   UNL     1      -5.828   2.281   2.069  0.00  0.00    -0.386 OA
ATOM     38  H   UNL     1      -4.865   2.394   2.182  0.00  0.00    +0.210 HD
ENDBRANCH  30  37
BRANCH  31  39
ATOM     39  O   UNL     1      -3.694   0.607   1.966  0.00  0.00    -0.386 OA
ATOM     40  H   UNL     1      -3.411   0.442   1.042  0.00  0.00    +0.210 HD
ENDBRANCH  31  39
BRANCH  32  41
ATOM     41  O   UNL     1      -6.544  -1.773   1.739  0.00  0.00    -0.383 OA
ATOM     42  H   UNL     1      -6.642  -2.650   1.321  0.00  0.00    +0.210 HD
ENDBRANCH  32  41
ENDBRANCH  26  27
ENDBRANCH  11  26
TORSDOF 12
