REMARK  Name = 
REMARK  21 active torsions:
REMARK  status: ('A' for Active; 'I' for Inactive)
REMARK    1  A    between atoms: C_1  and  C_2
REMARK    2  A    between atoms: C_4  and  O_66
REMARK    3  A    between atoms: C_6  and  O_52
REMARK    4  A    between atoms: C_8  and  O_51
REMARK    5  A    between atoms: C_10  and  O_13
REMARK    6  A    between atoms: O_13  and  C_14
REMARK    7  A    between atoms: C_14  and  C_15
REMARK    8  A    between atoms: C_17  and  O_50
REMARK    9  A    between atoms: C_19  and  O_49
REMARK   10  A    between atoms: C_21  and  O_48
REMARK   11  A    between atoms: C_23  and  O_26
REMARK   12  A    between atoms: O_26  and  C_27
REMARK   13  A    between atoms: C_28  and  C_40
REMARK   14  A    between atoms: C_32  and  O_39
REMARK   15  A    between atoms: C_34  and  O_38
REMARK   16  A    between atoms: C_42  and  O_47
REMARK   17  A    between atoms: C_43  and  O_46
REMARK   18  A    between atoms: O_52  and  C_53
REMARK   19  A    between atoms: C_55  and  O_65
REMARK   20  A    between atoms: C_57  and  O_64
REMARK   21  A    between atoms: C_59  and  O_63
REMARK                            x       y       z     vdW  Elec       q    Type
REMARK                         _______ _______ _______ _____ _____    ______ ____
ROOT
ATOM      1  C   UNL     1       3.292   4.496  -4.476  0.00  0.00    +0.179 C 
ATOM      2  O   UNL     1       3.761   5.737  -3.912  0.00  0.00    -0.331 OA
ATOM      3  C   UNL     1       2.761   6.322  -3.064  0.00  0.00    +0.340 C 
ATOM      4  C   UNL     1       1.676   6.889  -4.008  0.00  0.00    +0.214 C 
ATOM      5  C   UNL     1       1.107   5.657  -4.783  0.00  0.00    +0.180 C 
ATOM      6  C   UNL     1       2.198   4.822  -5.493  0.00  0.00    +0.177 C 
ENDROOT
BRANCH   6   7
ATOM      7  O   UNL     1       1.566   3.645  -6.017  0.00  0.00    -0.386 OA
ATOM      8  H   UNL     1       2.232   3.128  -6.504  0.00  0.00    +0.210 HD
ENDBRANCH   6   7
BRANCH   5   9
ATOM      9  O   UNL     1       0.105   6.036  -5.733  0.00  0.00    -0.386 OA
ATOM     10  H   UNL     1      -0.121   5.205  -6.201  0.00  0.00    +0.210 HD
ENDBRANCH   5   9
BRANCH   4  11
ATOM     11  O   UNL     1       0.644   7.548  -3.257  0.00  0.00    -0.383 OA
ATOM     12  H   UNL     1      -0.131   6.960  -3.229  0.00  0.00    +0.210 HD
ENDBRANCH   4  11
BRANCH   3  13
ATOM     13  O   UNL     1       3.369   7.246  -2.124  0.00  0.00    -0.453 OA
BRANCH  13  14
ATOM     14  C   UNL     1       3.811   6.644  -0.924  0.00  0.00    +0.214 A 
ATOM     15  C   UNL     1       3.863   5.143  -0.796  0.00  0.00    +0.238 A 
ATOM     16  O   UNL     1       3.927   4.384  -1.750  0.00  0.00    -0.283 OA
ATOM     17  C   UNL     1       3.922   4.525   0.508  0.00  0.00    +0.109 A 
ATOM     18  C   UNL     1       4.374   5.327   1.538  0.00  0.00    +0.147 A 
ATOM     19  C   UNL     1       4.620   4.753   2.785  0.00  0.00    +0.092 A 
ATOM     20  C   UNL     1       4.404   3.385   2.967  0.00  0.00    +0.124 A 
ATOM     21  C   UNL     1       3.927   2.581   1.939  0.00  0.00    +0.091 A 
ATOM     22  O   UNL     1       4.647   6.650   1.355  0.00  0.00    -0.451 OA
ATOM     23  C   UNL     1       3.675   3.156   0.704  0.00  0.00    +0.135 A 
ATOM     24  C   UNL     1       4.307   7.312   0.157  0.00  0.00    +0.181 A 
BRANCH  24  25
ATOM     25  C   UNL     1       4.687   8.774   0.255  0.00  0.00    +0.025 A 
ATOM     26  C   UNL     1       5.375   9.217   1.423  0.00  0.00    +0.015 A 
ATOM     27  C   UNL     1       5.960  10.488   1.529  0.00  0.00    +0.050 A 
ATOM     28  C   UNL     1       5.828  11.358   0.466  0.00  0.00    +0.158 A 
ATOM     29  C   UNL     1       5.059  11.006  -0.636  0.00  0.00    +0.159 A 
ATOM     30  C   UNL     1       4.496   9.730  -0.756  0.00  0.00    +0.060 A 
BRANCH  29  31
ATOM     31  O   UNL     1       4.906  11.964  -1.609  0.00  0.00    -0.503 OA
ATOM     32  H   UNL     1       4.060  11.782  -2.052  0.00  0.00    +0.292 HD
ENDBRANCH  29  31
BRANCH  28  33
ATOM     33  O   UNL     1       6.469  12.560   0.522  0.00  0.00    -0.503 OA
ATOM     34  H   UNL     1       6.373  12.937  -0.381  0.00  0.00    +0.292 HD
ENDBRANCH  28  33
ENDBRANCH  24  25
BRANCH  23  35
ATOM     35  O   UNL     1       3.168   2.373  -0.295  0.00  0.00    -0.506 OA
ATOM     36  H   UNL     1       3.315   1.436  -0.089  0.00  0.00    +0.292 HD
ENDBRANCH  23  35
BRANCH  20  37
ATOM     37  O   UNL     1       4.646   2.768   4.159  0.00  0.00    -0.507 OA
ATOM     38  H   UNL     1       4.993   3.422   4.789  0.00  0.00    +0.292 HD
ENDBRANCH  20  37
ENDBRANCH  13  14
ENDBRANCH   3  13
BRANCH   1  39
ATOM     39  C   UNL     1       4.491   3.717  -5.029  0.00  0.00    +0.197 C 
BRANCH  39  40
ATOM     40  O   UNL     1       5.380   3.474  -3.939  0.00  0.00    -0.346 OA
BRANCH  40  44
ATOM     41  C   UNL     1       7.959   0.798  -6.167  0.00  0.00    +0.041 C 
ATOM     42  C   UNL     1       7.208   0.473  -4.880  0.00  0.00    +0.149 C 
ATOM     43  O   UNL     1       6.124   1.387  -4.661  0.00  0.00    -0.343 OA
ATOM     44  C   UNL     1       6.524   2.696  -4.253  0.00  0.00    +0.282 C 
ATOM     45  C   UNL     1       7.344   2.643  -2.947  0.00  0.00    +0.202 C 
ATOM     46  C   UNL     1       8.577   1.748  -3.137  0.00  0.00    +0.186 C 
ATOM     47  C   UNL     1       8.091   0.364  -3.620  0.00  0.00    +0.174 C 
BRANCH  47  48
ATOM     48  O   UNL     1       7.324  -0.262  -2.576  0.00  0.00    -0.387 OA
ATOM     49  H   UNL     1       6.394   0.018  -2.680  0.00  0.00    +0.210 HD
ENDBRANCH  47  48
BRANCH  45  50
ATOM     50  O   UNL     1       7.705   3.948  -2.474  0.00  0.00    -0.384 OA
ATOM     51  H   UNL     1       6.952   4.532  -2.707  0.00  0.00    +0.210 HD
ENDBRANCH  45  50
BRANCH  46  52
ATOM     52  O   UNL     1       9.556   2.221  -4.091  0.00  0.00    -0.340 OA
BRANCH  52  53
ATOM     53  C   UNL     1      10.102   3.526  -3.865  0.00  0.00    +0.282 C 
ATOM     54  O   UNL     1      10.894   3.917  -5.002  0.00  0.00    -0.346 OA
ATOM     55  C   UNL     1      12.110   3.187  -5.177  0.00  0.00    +0.197 C 
ATOM     56  C   UNL     1      13.002   3.242  -3.933  0.00  0.00    +0.171 C 
ATOM     57  C   UNL     1      12.206   2.780  -2.705  0.00  0.00    +0.178 C 
ATOM     58  C   UNL     1      10.928   3.627  -2.563  0.00  0.00    +0.201 C 
BRANCH  58  59
ATOM     59  O   UNL     1      11.277   4.989  -2.273  0.00  0.00    -0.384 OA
ATOM     60  H   UNL     1      11.658   5.357  -3.098  0.00  0.00    +0.210 HD
ENDBRANCH  58  59
BRANCH  57  61
ATOM     61  O   UNL     1      11.924   1.378  -2.793  0.00  0.00    -0.386 OA
ATOM     62  H   UNL     1      11.209   1.251  -3.449  0.00  0.00    +0.210 HD
ENDBRANCH  57  61
BRANCH  56  63
ATOM     63  O   UNL     1      13.459   4.593  -3.765  0.00  0.00    -0.387 OA
ATOM     64  H   UNL     1      13.827   4.673  -2.865  0.00  0.00    +0.210 HD
ENDBRANCH  56  63
ENDBRANCH  52  53
ENDBRANCH  46  52
ENDBRANCH  40  44
ENDBRANCH  39  40
ENDBRANCH   1  39
TORSDOF 20
