REMARK  Name = 
REMARK  12 active torsions:
REMARK  status: ('A' for Active; 'I' for Inactive)
REMARK    1  A    between atoms: C_3  and  O_34
REMARK    2  A    between atoms: C_4  and  O_33
REMARK    3  A    between atoms: C_6  and  C_7
REMARK    4  A    between atoms: C_8  and  O_20
REMARK    5  A    between atoms: C_12  and  O_19
REMARK    6  A    between atoms: C_14  and  O_18
REMARK    7  A    between atoms: O_20  and  C_21
REMARK    8  A    between atoms: C_22  and  O_32
REMARK    9  A    between atoms: C_23  and  O_31
REMARK   10  A    between atoms: C_24  and  O_30
REMARK   11  A    between atoms: C_25  and  C_27
REMARK   12  A    between atoms: C_27  and  O_29
REMARK                            x       y       z     vdW  Elec       q    Type
REMARK                         _______ _______ _______ _____ _____    ______ ____
ROOT
ATOM      1  C   UNL     1      -1.274  -2.704   0.285  0.00  0.00    +0.181 A 
ATOM      2  O   UNL     1      -0.552  -3.866   0.428  0.00  0.00    -0.451 OA
ATOM      3  C   UNL     1      -1.160  -5.056   0.116  0.00  0.00    +0.147 A 
ATOM      4  C   UNL     1      -2.484  -5.138  -0.310  0.00  0.00    +0.109 A 
ATOM      5  C   UNL     1      -3.025  -6.408  -0.588  0.00  0.00    +0.135 A 
ATOM      6  C   UNL     1      -2.242  -7.560  -0.480  0.00  0.00    +0.091 A 
ATOM      7  C   UNL     1      -0.916  -7.444  -0.080  0.00  0.00    +0.124 A 
ATOM      8  C   UNL     1      -3.252  -3.866  -0.479  0.00  0.00    +0.238 A 
ATOM      9  O   UNL     1      -4.426  -3.892  -0.860  0.00  0.00    -0.283 OA
ATOM     10  C   UNL     1      -0.377  -6.203   0.236  0.00  0.00    +0.092 A 
ATOM     11  C   UNL     1      -2.531  -2.588  -0.186  0.00  0.00    +0.214 A 
ENDROOT
BRANCH   1  13
ATOM     12  C   UNL     1      -0.785  -0.661   1.665  0.00  0.00    +0.015 A 
ATOM     13  C   UNL     1      -0.510  -1.486   0.561  0.00  0.00    +0.025 A 
ATOM     14  C   UNL     1       0.416  -1.074  -0.403  0.00  0.00    +0.060 A 
ATOM     15  C   UNL     1       0.987   0.179  -0.302  0.00  0.00    +0.159 A 
ATOM     16  C   UNL     1       0.662   1.032   0.749  0.00  0.00    +0.158 A 
ATOM     17  C   UNL     1      -0.202   0.607   1.759  0.00  0.00    +0.050 A 
BRANCH  15  18
ATOM     18  O   UNL     1       1.845   0.579  -1.281  0.00  0.00    -0.503 OA
ATOM     19  H   UNL     1       2.115   1.481  -1.018  0.00  0.00    +0.292 HD
ENDBRANCH  15  18
BRANCH  16  20
ATOM     20  O   UNL     1       1.192   2.290   0.734  0.00  0.00    -0.503 OA
ATOM     21  H   UNL     1       0.675   2.851   1.339  0.00  0.00    +0.292 HD
ENDBRANCH  16  20
ENDBRANCH   1  13
BRANCH   5  22
ATOM     22  O   UNL     1      -4.324  -6.602  -0.964  0.00  0.00    -0.506 OA
ATOM     23  H   UNL     1      -4.783  -5.736  -0.991  0.00  0.00    +0.292 HD
ENDBRANCH   5  22
BRANCH   7  24
ATOM     24  O   UNL     1      -0.097  -8.531   0.005  0.00  0.00    -0.507 OA
ATOM     25  H   UNL     1      -0.577  -9.320  -0.300  0.00  0.00    +0.292 HD
ENDBRANCH   7  24
BRANCH  11  26
ATOM     26  O   UNL     1      -3.192  -1.370  -0.166  0.00  0.00    -0.453 OA
BRANCH  26  27
ATOM     27  C   UNL     1      -3.511  -0.723  -1.414  0.00  0.00    +0.340 C 
ATOM     28  O   UNL     1      -2.973   0.617  -1.491  0.00  0.00    -0.322 OA
ATOM     29  C   UNL     1      -3.499   1.589  -0.550  0.00  0.00    +0.261 C 
ATOM     30  C   UNL     1      -4.990   1.460  -0.157  0.00  0.00    +0.185 C 
ATOM     31  C   UNL     1      -5.526   0.024  -0.223  0.00  0.00    +0.180 C 
ATOM     32  C   UNL     1      -5.037  -0.591  -1.550  0.00  0.00    +0.214 C 
BRANCH  29  33
ATOM     33  C   UNL     1      -3.283   2.988  -1.161  0.00  0.00    +0.337 C 
ATOM     34  O   UNL     1      -3.365   4.040  -0.540  0.00  0.00    -0.248 OA
BRANCH  33  35
ATOM     35  O   UNL     1      -2.988   2.946  -2.487  0.00  0.00    -0.479 OA
ATOM     36  H   UNL     1      -2.933   2.008  -2.771  0.00  0.00    +0.295 HD
ENDBRANCH  33  35
ENDBRANCH  29  33
BRANCH  30  37
ATOM     37  O   UNL     1      -5.828   2.228  -1.049  0.00  0.00    -0.386 OA
ATOM     38  H   UNL     1      -6.681   1.748  -1.129  0.00  0.00    +0.210 HD
ENDBRANCH  30  37
BRANCH  31  39
ATOM     39  O   UNL     1      -6.959   0.093  -0.164  0.00  0.00    -0.386 OA
ATOM     40  H   UNL     1      -7.197   0.490   0.694  0.00  0.00    +0.210 HD
ENDBRANCH  31  39
BRANCH  32  41
ATOM     41  O   UNL     1      -5.694  -1.800  -1.900  0.00  0.00    -0.383 OA
ATOM     42  H   UNL     1      -5.227  -2.565  -1.509  0.00  0.00    +0.210 HD
ENDBRANCH  32  41
ENDBRANCH  26  27
ENDBRANCH  11  26
TORSDOF 12
