REMARK  Name = 
REMARK  11 active torsions:
REMARK  status: ('A' for Active; 'I' for Inactive)
REMARK    1  A    between atoms: C_3  and  O_35
REMARK    2  A    between atoms: C_4  and  O_34
REMARK    3  A    between atoms: C_6  and  C_7
REMARK    4  A    between atoms: C_8  and  O_20
REMARK    5  A    between atoms: C_12  and  O_19
REMARK    6  A    between atoms: C_14  and  O_18
REMARK    7  A    between atoms: O_20  and  C_21
REMARK    8  A    between atoms: C_23  and  O_33
REMARK    9  A    between atoms: C_25  and  O_32
REMARK   10  A    between atoms: C_27  and  C_30
REMARK   11  A    between atoms: C_30  and  O_31
REMARK                            x       y       z     vdW  Elec       q    Type
REMARK                         _______ _______ _______ _____ _____    ______ ____
ROOT
ATOM      1  C   UNL     1      -1.322  -2.469  -0.220  0.00  0.00    +0.181 A 
ATOM      2  O   UNL     1      -0.590  -3.648   0.007  0.00  0.00    -0.451 OA
ATOM      3  C   UNL     1      -1.157  -4.880  -0.162  0.00  0.00    +0.147 A 
ATOM      4  C   UNL     1      -2.483  -5.033  -0.493  0.00  0.00    +0.109 A 
ATOM      5  C   UNL     1      -3.049  -6.316  -0.650  0.00  0.00    +0.135 A 
ATOM      6  C   UNL     1      -2.274  -7.448  -0.467  0.00  0.00    +0.091 A 
ATOM      7  C   UNL     1      -0.937  -7.296  -0.133  0.00  0.00    +0.124 A 
ATOM      8  C   UNL     1      -3.296  -3.847  -0.621  0.00  0.00    +0.238 A 
ATOM      9  O   UNL     1      -4.500  -4.051  -0.761  0.00  0.00    -0.283 OA
ATOM     10  C   UNL     1      -0.371  -6.019   0.018  0.00  0.00    +0.092 A 
ATOM     11  C   UNL     1      -2.652  -2.478  -0.538  0.00  0.00    +0.214 A 
ENDROOT
BRANCH   1  13
ATOM     12  C   UNL     1      -0.828   0.054  -0.371  0.00  0.00    +0.015 A 
ATOM     13  C   UNL     1      -0.412  -1.265  -0.113  0.00  0.00    +0.025 A 
ATOM     14  C   UNL     1       0.959  -1.435   0.201  0.00  0.00    +0.060 A 
ATOM     15  C   UNL     1       1.856  -0.365   0.149  0.00  0.00    +0.159 A 
ATOM     16  C   UNL     1       1.427   0.898  -0.228  0.00  0.00    +0.158 A 
ATOM     17  C   UNL     1       0.081   1.125  -0.450  0.00  0.00    +0.050 A 
BRANCH  15  18
ATOM     18  O   UNL     1       3.174  -0.568   0.445  0.00  0.00    -0.503 OA
ATOM     19  H   UNL     1       3.586   0.319   0.364  0.00  0.00    +0.292 HD
ENDBRANCH  15  18
BRANCH  16  20
ATOM     20  O   UNL     1       2.364   1.879  -0.383  0.00  0.00    -0.503 OA
ATOM     21  H   UNL     1       1.979   2.570  -0.952  0.00  0.00    +0.292 HD
ENDBRANCH  16  20
ENDBRANCH   1  13
BRANCH   5  22
ATOM     22  O   UNL     1      -4.365  -6.524  -0.975  0.00  0.00    -0.506 OA
ATOM     23  H   UNL     1      -4.798  -5.638  -1.037  0.00  0.00    +0.292 HD
ENDBRANCH   5  22
BRANCH   7  24
ATOM     24  O   UNL     1      -0.139  -8.375   0.065  0.00  0.00    -0.507 OA
ATOM     25  H   UNL     1      -0.673  -9.181  -0.076  0.00  0.00    +0.292 HD
ENDBRANCH   7  24
BRANCH  11  26
ATOM     26  O   UNL     1      -3.427  -1.316  -0.777  0.00  0.00    -0.453 OA
BRANCH  26  27
ATOM     27  C   UNL     1      -4.834  -1.502  -0.574  0.00  0.00    +0.340 C 
ATOM     28  O   UNL     1      -5.535  -2.017  -1.732  0.00  0.00    -0.331 OA
ATOM     29  C   UNL     1      -6.924  -2.087  -1.295  0.00  0.00    +0.179 C 
ATOM     30  C   UNL     1      -7.052  -0.998  -0.202  0.00  0.00    +0.180 C 
ATOM     31  C   UNL     1      -5.696  -0.270  -0.275  0.00  0.00    +0.214 C 
BRANCH  30  32
ATOM     32  O   UNL     1      -8.171  -0.141  -0.314  0.00  0.00    -0.386 OA
ATOM     33  H   UNL     1      -8.072   0.320  -1.171  0.00  0.00    +0.210 HD
ENDBRANCH  30  32
BRANCH  31  34
ATOM     34  O   UNL     1      -5.731   0.682  -1.356  0.00  0.00    -0.383 OA
ATOM     35  H   UNL     1      -4.831   0.749  -1.717  0.00  0.00    +0.210 HD
ENDBRANCH  31  34
BRANCH  29  36
ATOM     36  C   UNL     1      -7.869  -2.002  -2.487  0.00  0.00    +0.190 C 
BRANCH  36  37
ATOM     37  O   UNL     1      -7.791  -0.735  -3.133  0.00  0.00    -0.392 OA
ATOM     38  H   UNL     1      -6.844  -0.588  -3.320  0.00  0.00    +0.210 HD
ENDBRANCH  36  37
ENDBRANCH  29  36
ENDBRANCH  26  27
ENDBRANCH  11  26
TORSDOF 11
