REMARK  Name = 
REMARK  4 active torsions:
REMARK  status: ('A' for Active; 'I' for Inactive)
REMARK    1  A    between atoms: C_8  and  C_9
REMARK    2  A    between atoms: C_10  and  O_22
REMARK    3  A    between atoms: C_14  and  O_21
REMARK    4  A    between atoms: C_16  and  O_20
REMARK                            x       y       z     vdW  Elec       q    Type
REMARK                         _______ _______ _______ _____ _____    ______ ____
ROOT
ATOM      1  C   UNL     1      -0.429   2.871   0.058  0.00  0.00    +0.181 A 
ATOM      2  O   UNL     1      -1.758   3.272   0.025  0.00  0.00    -0.451 OA
ATOM      3  C   UNL     1      -2.042   4.616   0.053  0.00  0.00    +0.147 A 
ATOM      4  C   UNL     1      -1.055   5.601   0.040  0.00  0.00    +0.109 A 
ATOM      5  C   UNL     1      -1.416   6.954   0.059  0.00  0.00    +0.135 A 
ATOM      6  C   UNL     1      -2.760   7.323   0.092  0.00  0.00    +0.091 A 
ATOM      7  C   UNL     1      -3.736   6.331   0.107  0.00  0.00    +0.124 A 
ATOM      8  C   UNL     1       0.351   5.178  -0.005  0.00  0.00    +0.238 A 
ATOM      9  O   UNL     1       1.249   6.012  -0.081  0.00  0.00    -0.283 OA
ATOM     10  C   UNL     1      -3.389   4.981   0.086  0.00  0.00    +0.092 A 
ATOM     11  C   UNL     1       0.616   3.716   0.034  0.00  0.00    +0.208 A 
ENDROOT
BRANCH   1  13
ATOM     12  C   UNL     1      -0.818   0.560  -0.971  0.00  0.00    +0.015 C 
ATOM     13  C   UNL     1      -0.273   1.409   0.084  0.00  0.00    +0.025 C 
ATOM     14  C   UNL     1       0.400   0.848   1.108  0.00  0.00    +0.066 C 
ATOM     15  C   UNL     1       0.606  -0.615   1.195  0.00  0.00    +0.226 C 
ATOM     16  O   UNL     1       1.260  -1.101   2.102  0.00  0.00    -0.284 OA
ATOM     17  C   UNL     1      -0.034  -1.483   0.114  0.00  0.00    +0.225 C 
ATOM     18  O   UNL     1       0.022  -2.702   0.145  0.00  0.00    -0.284 OA
ATOM     19  C   UNL     1      -0.722  -0.773  -0.986  0.00  0.00    +0.055 C 
ENDBRANCH   1  13
BRANCH   5  20
ATOM     20  O   UNL     1      -0.502   7.972   0.041  0.00  0.00    -0.506 OA
ATOM     21  H   UNL     1       0.399   7.580   0.011  0.00  0.00    +0.292 HD
ENDBRANCH   5  20
BRANCH   7  22
ATOM     22  O   UNL     1      -5.061   6.645   0.141  0.00  0.00    -0.507 OA
ATOM     23  H   UNL     1      -5.157   7.614   0.168  0.00  0.00    +0.292 HD
ENDBRANCH   7  22
BRANCH  11  24
ATOM     24  O   UNL     1       1.925   3.270   0.060  0.00  0.00    -0.501 OA
ATOM     25  H   UNL     1       2.223   3.224  -0.866  0.00  0.00    +0.292 HD
ENDBRANCH  11  24
TORSDOF 4
