REMARK  Name = 
REMARK  12 active torsions:
REMARK  status: ('A' for Active; 'I' for Inactive)
REMARK    1  A    between atoms: C_3  and  O_38
REMARK    2  A    between atoms: C_4  and  O_37
REMARK    3  A    between atoms: C_6  and  C_7
REMARK    4  A    between atoms: C_8  and  O_36
REMARK    5  A    between atoms: C_12  and  O_35
REMARK    6  A    between atoms: C_14  and  O_18
REMARK    7  A    between atoms: O_18  and  C_19
REMARK    8  A    between atoms: C_21  and  O_34
REMARK    9  A    between atoms: C_23  and  O_33
REMARK   10  A    between atoms: C_25  and  O_32
REMARK   11  A    between atoms: C_27  and  C_30
REMARK   12  A    between atoms: C_30  and  O_31
REMARK                            x       y       z     vdW  Elec       q    Type
REMARK                         _______ _______ _______ _____ _____    ______ ____
ROOT
ATOM      1  C   UNL     1      -1.415  -2.559  -0.200  0.00  0.00    +0.181 A 
ATOM      2  O   UNL     1      -0.672  -3.739  -0.004  0.00  0.00    -0.451 OA
ATOM      3  C   UNL     1      -1.289  -4.963  -0.204  0.00  0.00    +0.147 A 
ATOM      4  C   UNL     1      -2.650  -5.050  -0.484  0.00  0.00    +0.109 A 
ATOM      5  C   UNL     1      -3.256  -6.291  -0.667  0.00  0.00    +0.135 A 
ATOM      6  C   UNL     1      -2.516  -7.460  -0.562  0.00  0.00    +0.092 A 
ATOM      7  C   UNL     1      -1.153  -7.412  -0.241  0.00  0.00    +0.131 A 
ATOM      8  C   UNL     1      -3.444  -3.834  -0.606  0.00  0.00    +0.238 A 
ATOM      9  O   UNL     1      -4.653  -3.904  -0.780  0.00  0.00    -0.283 OA
ATOM     10  C   UNL     1      -0.534  -6.152  -0.094  0.00  0.00    +0.093 A 
ATOM     11  C   UNL     1      -2.720  -2.552  -0.549  0.00  0.00    +0.208 A 
ENDROOT
BRANCH   1  13
ATOM     12  C   UNL     1      -1.266  -0.108   0.452  0.00  0.00    +0.015 A 
ATOM     13  C   UNL     1      -0.648  -1.288  -0.030  0.00  0.00    +0.025 A 
ATOM     14  C   UNL     1       0.710  -1.212  -0.369  0.00  0.00    +0.060 A 
ATOM     15  C   UNL     1       1.374   0.013  -0.320  0.00  0.00    +0.159 A 
ATOM     16  C   UNL     1       0.716   1.181   0.058  0.00  0.00    +0.158 A 
ATOM     17  C   UNL     1      -0.606   1.128   0.459  0.00  0.00    +0.050 A 
BRANCH  15  18
ATOM     18  O   UNL     1       2.692   0.073  -0.675  0.00  0.00    -0.503 OA
ATOM     19  H   UNL     1       2.939   1.012  -0.554  0.00  0.00    +0.292 HD
ENDBRANCH  15  18
BRANCH  16  20
ATOM     20  O   UNL     1       1.413   2.356   0.016  0.00  0.00    -0.503 OA
ATOM     21  H   UNL     1       0.797   3.086   0.206  0.00  0.00    +0.292 HD
ENDBRANCH  16  20
ENDBRANCH   1  13
BRANCH   5  22
ATOM     22  O   UNL     1      -4.593  -6.452  -0.928  0.00  0.00    -0.506 OA
ATOM     23  H   UNL     1      -5.017  -5.562  -0.921  0.00  0.00    +0.292 HD
ENDBRANCH   5  22
BRANCH  11  24
ATOM     24  O   UNL     1      -3.463  -1.434  -0.889  0.00  0.00    -0.501 OA
ATOM     25  H   UNL     1      -2.871  -0.803  -1.332  0.00  0.00    +0.292 HD
ENDBRANCH  11  24
BRANCH   7  26
ATOM     26  O   UNL     1      -0.387  -8.558  -0.030  0.00  0.00    -0.461 OA
BRANCH  26  27
ATOM     27  C   UNL     1      -1.183  -9.740   0.203  0.00  0.00    +0.339 C 
ATOM     28  O   UNL     1      -2.048  -9.573   1.337  0.00  0.00    -0.331 OA
ATOM     29  C   UNL     1      -1.465  -9.821   2.622  0.00  0.00    +0.179 C 
ATOM     30  C   UNL     1      -1.076 -11.295   2.689  0.00  0.00    +0.177 C 
ATOM     31  C   UNL     1      -0.011 -11.583   1.623  0.00  0.00    +0.180 C 
ATOM     32  C   UNL     1      -0.456 -11.115   0.230  0.00  0.00    +0.214 C 
BRANCH  30  33
ATOM     33  O   UNL     1      -0.584 -11.635   3.983  0.00  0.00    -0.386 OA
ATOM     34  H   UNL     1      -0.081 -12.466   3.866  0.00  0.00    +0.210 HD
ENDBRANCH  30  33
BRANCH  31  35
ATOM     35  O   UNL     1       0.266 -12.997   1.643  0.00  0.00    -0.386 OA
ATOM     36  H   UNL     1      -0.023 -13.350   0.775  0.00  0.00    +0.210 HD
ENDBRANCH  31  35
BRANCH  32  37
ATOM     37  O   UNL     1      -1.366 -12.148  -0.252  0.00  0.00    -0.383 OA
ATOM     38  H   UNL     1      -2.244 -11.990   0.150  0.00  0.00    +0.210 HD
ENDBRANCH  32  37
BRANCH  29  39
ATOM     39  C   UNL     1      -0.287  -8.899   3.023  0.00  0.00    +0.190 C 
BRANCH  39  40
ATOM     40  O   UNL     1      -0.611  -7.514   2.986  0.00  0.00    -0.392 OA
ATOM     41  H   UNL     1      -1.539  -7.428   2.712  0.00  0.00    +0.210 HD
ENDBRANCH  39  40
ENDBRANCH  29  39
ENDBRANCH  26  27
ENDBRANCH   7  26
TORSDOF 12
