REMARK  Name = 
REMARK  12 active torsions:
REMARK  status: ('A' for Active; 'I' for Inactive)
REMARK    1  A    between atoms: C_3  and  O_38
REMARK    2  A    between atoms: C_4  and  O_37
REMARK    3  A    between atoms: C_6  and  C_7
REMARK    4  A    between atoms: C_8  and  O_20
REMARK    5  A    between atoms: C_12  and  O_19
REMARK    6  A    between atoms: C_14  and  O_18
REMARK    7  A    between atoms: O_20  and  C_21
REMARK    8  A    between atoms: C_23  and  O_36
REMARK    9  A    between atoms: C_25  and  O_35
REMARK   10  A    between atoms: C_27  and  O_34
REMARK   11  A    between atoms: C_29  and  C_32
REMARK   12  A    between atoms: C_32  and  O_33
REMARK                            x       y       z     vdW  Elec       q    Type
REMARK                         _______ _______ _______ _____ _____    ______ ____
ROOT
ATOM      1  C   UNL     1      -1.530  -2.623   0.678  0.00  0.00    +0.181 A 
ATOM      2  O   UNL     1      -0.779  -3.771   0.958  0.00  0.00    -0.451 OA
ATOM      3  C   UNL     1      -1.241  -4.988   0.505  0.00  0.00    +0.147 A 
ATOM      4  C   UNL     1      -2.534  -5.150   0.033  0.00  0.00    +0.109 A 
ATOM      5  C   UNL     1      -3.012  -6.404  -0.373  0.00  0.00    +0.135 A 
ATOM      6  C   UNL     1      -2.178  -7.510  -0.353  0.00  0.00    +0.091 A 
ATOM      7  C   UNL     1      -0.869  -7.347   0.101  0.00  0.00    +0.124 A 
ATOM      8  C   UNL     1      -3.393  -3.982  -0.034  0.00  0.00    +0.238 A 
ATOM      9  O   UNL     1      -4.589  -4.185  -0.213  0.00  0.00    -0.283 OA
ATOM     10  C   UNL     1      -0.398  -6.100   0.542  0.00  0.00    +0.092 A 
ATOM     11  C   UNL     1      -2.773  -2.632   0.133  0.00  0.00    +0.214 A 
ENDROOT
BRANCH   1  13
ATOM     12  C   UNL     1      -0.335  -1.233   2.427  0.00  0.00    +0.015 A 
ATOM     13  C   UNL     1      -0.870  -1.360   1.124  0.00  0.00    +0.025 A 
ATOM     14  C   UNL     1      -0.821  -0.239   0.287  0.00  0.00    +0.060 A 
ATOM     15  C   UNL     1      -0.367   0.983   0.772  0.00  0.00    +0.159 A 
ATOM     16  C   UNL     1       0.072   1.119   2.084  0.00  0.00    +0.158 A 
ATOM     17  C   UNL     1       0.129   0.004   2.910  0.00  0.00    +0.050 A 
BRANCH  15  18
ATOM     18  O   UNL     1      -0.393   2.067  -0.057  0.00  0.00    -0.503 OA
ATOM     19  H   UNL     1      -0.132   2.823   0.506  0.00  0.00    +0.292 HD
ENDBRANCH  15  18
BRANCH  16  20
ATOM     20  O   UNL     1       0.418   2.370   2.512  0.00  0.00    -0.503 OA
ATOM     21  H   UNL     1       0.474   2.362   3.483  0.00  0.00    +0.292 HD
ENDBRANCH  16  20
ENDBRANCH   1  13
BRANCH   5  22
ATOM     22  O   UNL     1      -4.294  -6.615  -0.812  0.00  0.00    -0.506 OA
ATOM     23  H   UNL     1      -4.799  -5.785  -0.698  0.00  0.00    +0.292 HD
ENDBRANCH   5  22
BRANCH   7  24
ATOM     24  O   UNL     1      -0.012  -8.408   0.120  0.00  0.00    -0.507 OA
ATOM     25  H   UNL     1      -0.468  -9.188  -0.242  0.00  0.00    +0.292 HD
ENDBRANCH   7  24
BRANCH  11  26
ATOM     26  O   UNL     1      -3.463  -1.460  -0.219  0.00  0.00    -0.453 OA
BRANCH  26  27
ATOM     27  C   UNL     1      -4.904  -1.480  -0.118  0.00  0.00    +0.340 C 
ATOM     28  O   UNL     1      -5.516  -0.444  -0.900  0.00  0.00    -0.331 OA
ATOM     29  C   UNL     1      -5.903   0.813  -0.335  0.00  0.00    +0.179 C 
ATOM     30  C   UNL     1      -5.975   0.913   1.198  0.00  0.00    +0.177 C 
ATOM     31  C   UNL     1      -5.021  -0.058   1.882  0.00  0.00    +0.180 C 
ATOM     32  C   UNL     1      -5.292  -1.475   1.363  0.00  0.00    +0.214 C 
BRANCH  30  33
ATOM     33  O   UNL     1      -7.321   0.577   1.611  0.00  0.00    -0.386 OA
ATOM     34  H   UNL     1      -7.236   0.337   2.561  0.00  0.00    +0.210 HD
ENDBRANCH  30  33
BRANCH  31  35
ATOM     35  O   UNL     1      -5.229   0.006   3.299  0.00  0.00    -0.386 OA
ATOM     36  H   UNL     1      -4.545  -0.558   3.705  0.00  0.00    +0.210 HD
ENDBRANCH  31  35
BRANCH  32  37
ATOM     37  O   UNL     1      -6.648  -1.900   1.555  0.00  0.00    -0.383 OA
ATOM     38  H   UNL     1      -7.228  -1.254   1.100  0.00  0.00    +0.210 HD
ENDBRANCH  32  37
BRANCH  29  39
ATOM     39  C   UNL     1      -5.011   1.887  -0.953  0.00  0.00    +0.190 C 
BRANCH  39  40
ATOM     40  O   UNL     1      -3.669   1.724  -0.523  0.00  0.00    -0.392 OA
ATOM     41  H   UNL     1      -3.334   0.921  -0.966  0.00  0.00    +0.210 HD
ENDBRANCH  39  40
ENDBRANCH  29  39
ENDBRANCH  26  27
ENDBRANCH  11  26
TORSDOF 12
