REMARK  Name = 
REMARK  10 active torsions:
REMARK  status: ('A' for Active; 'I' for Inactive)
REMARK    1  A    between atoms: C_2  and  O_35
REMARK    2  A    between atoms: C_4  and  O_34
REMARK    3  A    between atoms: C_6  and  O_33
REMARK    4  A    between atoms: C_8  and  O_11
REMARK    5  A    between atoms: O_11  and  C_12
REMARK    6  A    between atoms: C_13  and  C_25
REMARK    7  A    between atoms: C_17  and  O_24
REMARK    8  A    between atoms: C_19  and  O_23
REMARK    9  A    between atoms: C_27  and  O_32
REMARK   10  A    between atoms: C_28  and  O_31
REMARK                            x       y       z     vdW  Elec       q    Type
REMARK                         _______ _______ _______ _____ _____    ______ ____
ROOT
ATOM      1  C   UNL     1       0.147  -2.365  -1.987  0.00  0.00    +0.214 A 
ATOM      2  C   UNL     1       0.049  -2.209  -3.482  0.00  0.00    +0.238 A 
ATOM      3  O   UNL     1       0.555  -1.223  -4.010  0.00  0.00    -0.283 OA
ATOM      4  C   UNL     1      -0.652  -3.265  -4.261  0.00  0.00    +0.109 A 
ATOM      5  C   UNL     1      -1.271  -4.274  -3.538  0.00  0.00    +0.147 A 
ATOM      6  C   UNL     1      -2.016  -5.275  -4.172  0.00  0.00    +0.092 A 
ATOM      7  C   UNL     1      -2.127  -5.273  -5.554  0.00  0.00    +0.124 A 
ATOM      8  C   UNL     1      -1.486  -4.303  -6.311  0.00  0.00    +0.091 A 
ATOM      9  O   UNL     1      -1.191  -4.370  -2.181  0.00  0.00    -0.451 OA
ATOM     10  C   UNL     1      -0.748  -3.297  -5.660  0.00  0.00    +0.135 A 
ATOM     11  C   UNL     1      -0.411  -3.483  -1.445  0.00  0.00    +0.181 A 
ENDROOT
BRANCH  11  12
ATOM     12  C   UNL     1      -0.266  -4.001  -0.052  0.00  0.00    +0.025 A 
ATOM     13  C   UNL     1      -1.205  -4.933   0.453  0.00  0.00    +0.015 A 
ATOM     14  C   UNL     1      -1.017  -5.579   1.680  0.00  0.00    +0.050 A 
ATOM     15  C   UNL     1       0.075  -5.240   2.455  0.00  0.00    +0.158 A 
ATOM     16  C   UNL     1       0.955  -4.260   2.026  0.00  0.00    +0.159 A 
ATOM     17  C   UNL     1       0.839  -3.708   0.757  0.00  0.00    +0.060 A 
BRANCH  15  18
ATOM     18  O   UNL     1       0.293  -5.885   3.635  0.00  0.00    -0.503 OA
ATOM     19  H   UNL     1       1.165  -5.559   3.934  0.00  0.00    +0.292 HD
ENDBRANCH  15  18
BRANCH  16  20
ATOM     20  O   UNL     1       1.934  -3.840   2.882  0.00  0.00    -0.503 OA
ATOM     21  H   UNL     1       2.045  -2.884   2.710  0.00  0.00    +0.292 HD
ENDBRANCH  16  20
ENDBRANCH  11  12
BRANCH   7  22
ATOM     22  O   UNL     1      -2.855  -6.217  -6.214  0.00  0.00    -0.507 OA
ATOM     23  H   UNL     1      -3.282  -6.806  -5.568  0.00  0.00    +0.292 HD
ENDBRANCH   7  22
BRANCH  10  24
ATOM     24  O   UNL     1      -0.119  -2.361  -6.434  0.00  0.00    -0.506 OA
ATOM     25  H   UNL     1      -0.264  -2.547  -7.379  0.00  0.00    +0.292 HD
ENDBRANCH  10  24
BRANCH   1  26
ATOM     26  O   UNL     1       0.907  -1.391  -1.355  0.00  0.00    -0.453 OA
BRANCH  26  29
ATOM     27  C   UNL     1       2.513   0.072   0.620  0.00  0.00    +0.198 C 
ATOM     28  O   UNL     1       1.390  -0.773   0.867  0.00  0.00    -0.337 OA
ATOM     29  C   UNL     1       0.390  -0.746  -0.182  0.00  0.00    +0.339 C 
ATOM     30  C   UNL     1      -0.093   0.706  -0.452  0.00  0.00    +0.214 C 
ATOM     31  C   UNL     1       1.076   1.694  -0.615  0.00  0.00    +0.180 C 
ATOM     32  C   UNL     1       2.080   1.528   0.540  0.00  0.00    +0.171 C 
BRANCH  30  33
ATOM     33  O   UNL     1      -0.906   1.122   0.664  0.00  0.00    -0.383 OA
ATOM     34  H   UNL     1      -1.384   1.927   0.397  0.00  0.00    +0.210 HD
ENDBRANCH  30  33
BRANCH  31  35
ATOM     35  O   UNL     1       1.692   1.559  -1.899  0.00  0.00    -0.386 OA
ATOM     36  H   UNL     1       1.911   0.626  -2.076  0.00  0.00    +0.210 HD
ENDBRANCH  31  35
BRANCH  32  37
ATOM     37  O   UNL     1       3.205   2.392   0.389  0.00  0.00    -0.387 OA
ATOM     38  H   UNL     1       3.666   2.431   1.244  0.00  0.00    +0.210 HD
ENDBRANCH  32  37
ENDBRANCH  26  29
ENDBRANCH   1  26
TORSDOF 10
