REMARK  Name = 
REMARK  11 active torsions:
REMARK  status: ('A' for Active; 'I' for Inactive)
REMARK    1  A    between atoms: C_3  and  O_31
REMARK    2  A    between atoms: C_4  and  O_30
REMARK    3  A    between atoms: C_6  and  C_7
REMARK    4  A    between atoms: C_8  and  O_20
REMARK    5  A    between atoms: C_12  and  O_19
REMARK    6  A    between atoms: C_14  and  O_18
REMARK    7  A    between atoms: O_20  and  C_21
REMARK    8  A    between atoms: C_22  and  O_29
REMARK    9  A    between atoms: C_23  and  O_28
REMARK   10  A    between atoms: C_24  and  C_26
REMARK   11  A    between atoms: C_26  and  O_27
REMARK                            x       y       z     vdW  Elec       q    Type
REMARK                         _______ _______ _______ _____ _____    ______ ____
ROOT
ATOM      1  C   UNL     1      -1.246  -2.557  -0.219  0.00  0.00    +0.181 A 
ATOM      2  O   UNL     1      -0.519  -3.751  -0.098  0.00  0.00    -0.451 OA
ATOM      3  C   UNL     1      -1.147  -4.957  -0.204  0.00  0.00    +0.147 A 
ATOM      4  C   UNL     1      -2.486  -5.074  -0.512  0.00  0.00    +0.109 A 
ATOM      5  C   UNL     1      -3.087  -6.337  -0.636  0.00  0.00    +0.135 A 
ATOM      6  C   UNL     1      -2.346  -7.491  -0.438  0.00  0.00    +0.091 A 
ATOM      7  C   UNL     1      -0.993  -7.373  -0.127  0.00  0.00    +0.124 A 
ATOM      8  C   UNL     1      -3.245  -3.852  -0.739  0.00  0.00    +0.238 A 
ATOM      9  O   UNL     1      -4.392  -3.973  -1.163  0.00  0.00    -0.283 OA
ATOM     10  C   UNL     1      -0.391  -6.118  -0.001  0.00  0.00    +0.092 A 
ATOM     11  C   UNL     1      -2.591  -2.531  -0.442  0.00  0.00    +0.214 A 
ENDROOT
BRANCH   1  13
ATOM     12  C   UNL     1      -0.745  -0.057  -0.492  0.00  0.00    +0.015 A 
ATOM     13  C   UNL     1      -0.321  -1.361  -0.175  0.00  0.00    +0.025 A 
ATOM     14  C   UNL     1       1.068  -1.529   0.048  0.00  0.00    +0.060 A 
ATOM     15  C   UNL     1       1.956  -0.468  -0.130  0.00  0.00    +0.159 A 
ATOM     16  C   UNL     1       1.511   0.773  -0.559  0.00  0.00    +0.158 A 
ATOM     17  C   UNL     1       0.157   1.000  -0.704  0.00  0.00    +0.050 A 
BRANCH  15  18
ATOM     18  O   UNL     1       3.293  -0.658   0.056  0.00  0.00    -0.503 OA
ATOM     19  H   UNL     1       3.699   0.224  -0.068  0.00  0.00    +0.292 HD
ENDBRANCH  15  18
BRANCH  16  20
ATOM     20  O   UNL     1       2.435   1.740  -0.839  0.00  0.00    -0.503 OA
ATOM     21  H   UNL     1       1.987   2.437  -1.349  0.00  0.00    +0.292 HD
ENDBRANCH  16  20
ENDBRANCH   1  13
BRANCH   5  22
ATOM     22  O   UNL     1      -4.416  -6.511  -0.938  0.00  0.00    -0.506 OA
ATOM     23  H   UNL     1      -4.799  -5.624  -1.127  0.00  0.00    +0.292 HD
ENDBRANCH   5  22
BRANCH   7  24
ATOM     24  O   UNL     1      -0.217  -8.479   0.064  0.00  0.00    -0.507 OA
ATOM     25  H   UNL     1      -0.762  -9.275  -0.084  0.00  0.00    +0.292 HD
ENDBRANCH   7  24
BRANCH  11  26
ATOM     26  O   UNL     1      -3.342  -1.352  -0.482  0.00  0.00    -0.453 OA
BRANCH  26  27
ATOM     27  C   UNL     1      -4.752  -1.465  -0.275  0.00  0.00    +0.340 C 
ATOM     28  O   UNL     1      -5.514  -1.356  -1.495  0.00  0.00    -0.331 OA
ATOM     29  C   UNL     1      -6.856  -0.937  -1.122  0.00  0.00    +0.179 C 
ATOM     30  C   UNL     1      -6.832  -0.684   0.399  0.00  0.00    +0.180 C 
ATOM     31  C   UNL     1      -5.349  -0.369   0.613  0.00  0.00    +0.214 C 
BRANCH  30  32
ATOM     32  O   UNL     1      -7.214  -1.864   1.121  0.00  0.00    -0.386 OA
ATOM     33  H   UNL     1      -6.808  -1.838   2.005  0.00  0.00    +0.210 HD
ENDBRANCH  30  32
BRANCH  31  34
ATOM     34  O   UNL     1      -5.046   0.957   0.166  0.00  0.00    -0.383 OA
ATOM     35  H   UNL     1      -5.061   0.950  -0.811  0.00  0.00    +0.210 HD
ENDBRANCH  31  34
BRANCH  29  36
ATOM     36  C   UNL     1      -7.882  -1.955  -1.619  0.00  0.00    +0.190 C 
BRANCH  36  37
ATOM     37  O   UNL     1      -9.211  -1.567  -1.287  0.00  0.00    -0.392 OA
ATOM     38  H   UNL     1      -9.442  -2.052  -0.474  0.00  0.00    +0.210 HD
ENDBRANCH  36  37
ENDBRANCH  29  36
ENDBRANCH  26  27
ENDBRANCH  11  26
TORSDOF 11
