REMARK  Name = 
REMARK  10 active torsions:
REMARK  status: ('A' for Active; 'I' for Inactive)
REMARK    1  A    between atoms: C_2  and  O_34
REMARK    2  A    between atoms: C_4  and  O_33
REMARK    3  A    between atoms: C_6  and  O_32
REMARK    4  A    between atoms: C_8  and  O_10
REMARK    5  A    between atoms: O_10  and  C_11
REMARK    6  A    between atoms: C_12  and  C_24
REMARK    7  A    between atoms: C_16  and  O_23
REMARK    8  A    between atoms: C_18  and  O_22
REMARK    9  A    between atoms: C_26  and  O_31
REMARK   10  A    between atoms: C_27  and  O_30
REMARK                            x       y       z     vdW  Elec       q    Type
REMARK                         _______ _______ _______ _____ _____    ______ ____
ROOT
ATOM      1  C   UNL     1       2.632  -2.580  -0.017  0.00  0.00    +0.214 A 
ATOM      2  C   UNL     1       3.548  -1.508  -0.508  0.00  0.00    +0.238 A 
ATOM      3  O   UNL     1       3.118  -0.410  -0.836  0.00  0.00    -0.283 OA
ATOM      4  C   UNL     1       4.954  -1.855  -0.691  0.00  0.00    +0.109 A 
ATOM      5  C   UNL     1       5.266  -3.211  -0.783  0.00  0.00    +0.147 A 
ATOM      6  C   UNL     1       6.582  -3.605  -1.056  0.00  0.00    +0.092 A 
ATOM      7  C   UNL     1       7.565  -2.631  -1.226  0.00  0.00    +0.124 A 
ATOM      8  C   UNL     1       7.266  -1.280  -1.105  0.00  0.00    +0.091 A 
ATOM      9  O   UNL     1       4.323  -4.199  -0.643  0.00  0.00    -0.451 OA
ATOM     10  C   UNL     1       5.959  -0.890  -0.829  0.00  0.00    +0.135 A 
ATOM     11  C   UNL     1       3.052  -3.857  -0.183  0.00  0.00    +0.181 A 
ENDROOT
BRANCH  11  12
ATOM     12  C   UNL     1       2.181  -5.042   0.083  0.00  0.00    +0.025 A 
ATOM     13  C   UNL     1       2.725  -6.229   0.603  0.00  0.00    +0.015 A 
ATOM     14  C   UNL     1       1.920  -7.349   0.848  0.00  0.00    +0.050 A 
ATOM     15  C   UNL     1       0.559  -7.285   0.584  0.00  0.00    +0.158 A 
ATOM     16  C   UNL     1       0.008  -6.138   0.048  0.00  0.00    +0.159 A 
ATOM     17  C   UNL     1       0.803  -5.020  -0.219  0.00  0.00    +0.060 A 
BRANCH  15  18
ATOM     18  O   UNL     1      -0.229  -8.361   0.850  0.00  0.00    -0.503 OA
ATOM     19  H   UNL     1      -1.131  -8.070   0.607  0.00  0.00    +0.292 HD
ENDBRANCH  15  18
BRANCH  16  20
ATOM     20  O   UNL     1      -1.340  -6.124  -0.202  0.00  0.00    -0.503 OA
ATOM     21  H   UNL     1      -1.588  -5.232  -0.502  0.00  0.00    +0.292 HD
ENDBRANCH  16  20
ENDBRANCH  11  12
BRANCH   7  22
ATOM     22  O   UNL     1       8.855  -2.959  -1.510  0.00  0.00    -0.507 OA
ATOM     23  H   UNL     1       8.933  -3.924  -1.599  0.00  0.00    +0.292 HD
ENDBRANCH   7  22
BRANCH  10  24
ATOM     24  O   UNL     1       5.684   0.438  -0.668  0.00  0.00    -0.506 OA
ATOM     25  H   UNL     1       6.450   0.971  -0.937  0.00  0.00    +0.292 HD
ENDBRANCH  10  24
BRANCH   1  26
ATOM     26  O   UNL     1       1.383  -2.272   0.510  0.00  0.00    -0.453 OA
BRANCH  26  29
ATOM     27  C   UNL     1       2.294   0.202   3.016  0.00  0.00    +0.198 C 
ATOM     28  O   UNL     1       2.255  -1.055   2.336  0.00  0.00    -0.337 OA
ATOM     29  C   UNL     1       1.316  -1.044   1.249  0.00  0.00    +0.339 C 
ATOM     30  C   UNL     1      -0.126  -0.848   1.773  0.00  0.00    +0.214 C 
ATOM     31  C   UNL     1      -0.163   0.436   2.627  0.00  0.00    +0.180 C 
ATOM     32  C   UNL     1       0.946   0.444   3.691  0.00  0.00    +0.171 C 
BRANCH  30  33
ATOM     33  O   UNL     1      -1.040  -0.752   0.664  0.00  0.00    -0.383 OA
ATOM     34  H   UNL     1      -1.462   0.125   0.699  0.00  0.00    +0.210 HD
ENDBRANCH  30  33
BRANCH  31  35
ATOM     35  O   UNL     1      -1.463   0.605   3.206  0.00  0.00    -0.386 OA
ATOM     36  H   UNL     1      -1.345   0.724   4.169  0.00  0.00    +0.210 HD
ENDBRANCH  31  35
BRANCH  32  37
ATOM     37  O   UNL     1       0.693  -0.581   4.660  0.00  0.00    -0.387 OA
ATOM     38  H   UNL     1       1.091  -1.407   4.327  0.00  0.00    +0.210 HD
ENDBRANCH  32  37
ENDBRANCH  26  29
ENDBRANCH   1  26
TORSDOF 10
