REMARK  Name = 
REMARK  12 active torsions:
REMARK  status: ('A' for Active; 'I' for Inactive)
REMARK    1  A    between atoms: C_3  and  O_37
REMARK    2  A    between atoms: C_4  and  O_36
REMARK    3  A    between atoms: C_6  and  C_7
REMARK    4  A    between atoms: C_8  and  O_35
REMARK    5  A    between atoms: C_12  and  O_34
REMARK    6  A    between atoms: C_14  and  O_18
REMARK    7  A    between atoms: O_18  and  C_19
REMARK    8  A    between atoms: C_20  and  O_33
REMARK    9  A    between atoms: C_22  and  O_32
REMARK   10  A    between atoms: C_24  and  O_31
REMARK   11  A    between atoms: C_26  and  C_29
REMARK   12  A    between atoms: C_29  and  O_30
REMARK                            x       y       z     vdW  Elec       q    Type
REMARK                         _______ _______ _______ _____ _____    ______ ____
ROOT
ATOM      1  C   UNL     1      -1.421  -2.557  -0.195  0.00  0.00    +0.181 A 
ATOM      2  O   UNL     1      -0.681  -3.737   0.013  0.00  0.00    -0.451 OA
ATOM      3  C   UNL     1      -1.293  -4.961  -0.184  0.00  0.00    +0.147 A 
ATOM      4  C   UNL     1      -2.651  -5.053  -0.483  0.00  0.00    +0.109 A 
ATOM      5  C   UNL     1      -3.261  -6.291  -0.663  0.00  0.00    +0.135 A 
ATOM      6  C   UNL     1      -2.520  -7.451  -0.543  0.00  0.00    +0.092 A 
ATOM      7  C   UNL     1      -1.159  -7.411  -0.214  0.00  0.00    +0.131 A 
ATOM      8  C   UNL     1      -3.445  -3.837  -0.623  0.00  0.00    +0.238 A 
ATOM      9  O   UNL     1      -4.656  -3.901  -0.823  0.00  0.00    -0.283 OA
ATOM     10  C   UNL     1      -0.542  -6.149  -0.063  0.00  0.00    +0.093 A 
ATOM     11  C   UNL     1      -2.723  -2.551  -0.561  0.00  0.00    +0.208 A 
ENDROOT
BRANCH   1  13
ATOM     12  C   UNL     1      -1.278  -0.094   0.424  0.00  0.00    +0.015 A 
ATOM     13  C   UNL     1      -0.653  -1.285  -0.022  0.00  0.00    +0.025 A 
ATOM     14  C   UNL     1       0.711  -1.220  -0.331  0.00  0.00    +0.060 A 
ATOM     15  C   UNL     1       1.377   0.006  -0.292  0.00  0.00    +0.159 A 
ATOM     16  C   UNL     1       0.714   1.183   0.046  0.00  0.00    +0.158 A 
ATOM     17  C   UNL     1      -0.616   1.140   0.424  0.00  0.00    +0.050 A 
BRANCH  15  18
ATOM     18  O   UNL     1       2.704   0.053  -0.615  0.00  0.00    -0.503 OA
ATOM     19  H   UNL     1       2.950   0.995  -0.513  0.00  0.00    +0.292 HD
ENDBRANCH  15  18
BRANCH  16  20
ATOM     20  O   UNL     1       1.413   2.355  -0.009  0.00  0.00    -0.503 OA
ATOM     21  H   UNL     1       0.796   3.091   0.147  0.00  0.00    +0.292 HD
ENDBRANCH  16  20
ENDBRANCH   1  13
BRANCH   5  22
ATOM     22  O   UNL     1      -4.592  -6.451  -0.942  0.00  0.00    -0.506 OA
ATOM     23  H   UNL     1      -5.017  -5.561  -0.949  0.00  0.00    +0.292 HD
ENDBRANCH   5  22
BRANCH  11  24
ATOM     24  O   UNL     1      -3.462  -1.435  -0.905  0.00  0.00    -0.501 OA
ATOM     25  H   UNL     1      -2.872  -0.806  -1.353  0.00  0.00    +0.292 HD
ENDBRANCH  11  24
BRANCH   7  26
ATOM     26  O   UNL     1      -0.391  -8.556   0.007  0.00  0.00    -0.461 OA
BRANCH  26  27
ATOM     27  C   UNL     1      -1.178  -9.755   0.219  0.00  0.00    +0.339 C 
ATOM     28  O   UNL     1      -2.063  -9.601   1.335  0.00  0.00    -0.331 OA
ATOM     29  C   UNL     1      -1.498  -9.848   2.627  0.00  0.00    +0.179 C 
ATOM     30  C   UNL     1      -1.109 -11.320   2.700  0.00  0.00    +0.177 C 
ATOM     31  C   UNL     1      -0.041 -11.641   1.650  0.00  0.00    +0.180 C 
ATOM     32  C   UNL     1      -0.433 -11.127   0.252  0.00  0.00    +0.214 C 
BRANCH  30  33
ATOM     33  O   UNL     1      -0.665 -11.672   4.010  0.00  0.00    -0.386 OA
ATOM     34  H   UNL     1      -0.127 -12.481   3.896  0.00  0.00    +0.210 HD
ENDBRANCH  30  33
BRANCH  31  35
ATOM     35  O   UNL     1       0.159 -13.072   1.657  0.00  0.00    -0.386 OA
ATOM     36  H   UNL     1       0.047 -13.373   0.732  0.00  0.00    +0.210 HD
ENDBRANCH  31  35
BRANCH  32  37
ATOM     37  O   UNL     1      -1.312 -12.147  -0.310  0.00  0.00    -0.383 OA
ATOM     38  H   UNL     1      -2.181 -12.065   0.128  0.00  0.00    +0.210 HD
ENDBRANCH  32  37
BRANCH  29  39
ATOM     39  C   UNL     1      -0.383  -8.872   3.072  0.00  0.00    +0.190 C 
BRANCH  39  40
ATOM     40  O   UNL     1       0.831  -8.987   2.333  0.00  0.00    -0.392 OA
ATOM     41  H   UNL     1       0.721  -8.470   1.513  0.00  0.00    +0.210 HD
ENDBRANCH  39  40
ENDBRANCH  29  39
ENDBRANCH  26  27
ENDBRANCH   7  26
TORSDOF 12
