REMARK  Name = 
REMARK  13 active torsions:
REMARK  status: ('A' for Active; 'I' for Inactive)
REMARK    1  A    between atoms: C_1  and  C_2
REMARK    2  A    between atoms: C_2  and  O_4
REMARK    3  A    between atoms: O_4  and  C_5
REMARK    4  A    between atoms: C_7  and  C_37
REMARK    5  A    between atoms: C_10  and  O_15
REMARK    6  A    between atoms: C_12  and  O_14
REMARK    7  A    between atoms: O_15  and  C_16
REMARK    8  A    between atoms: C_17  and  C_29
REMARK    9  A    between atoms: C_21  and  O_28
REMARK   10  A    between atoms: C_23  and  O_27
REMARK   11  A    between atoms: C_31  and  O_36
REMARK   12  A    between atoms: C_32  and  O_35
REMARK   13  A    between atoms: C_37  and  O_38
REMARK                            x       y       z     vdW  Elec       q    Type
REMARK                         _______ _______ _______ _____ _____    ______ ____
ROOT
ATOM      1  C   UNL     1       5.999  -1.836  -2.024  0.00  0.00    +0.214 A 
ATOM      2  C   UNL     1       6.030  -3.262  -2.523  0.00  0.00    +0.238 A 
ATOM      3  O   UNL     1       6.183  -4.183  -1.725  0.00  0.00    -0.283 OA
ATOM      4  C   UNL     1       5.936  -3.480  -3.979  0.00  0.00    +0.109 A 
ATOM      5  C   UNL     1       5.990  -2.361  -4.806  0.00  0.00    +0.147 A 
ATOM      6  C   UNL     1       5.955  -2.491  -6.201  0.00  0.00    +0.092 A 
ATOM      7  C   UNL     1       5.847  -3.752  -6.766  0.00  0.00    +0.124 A 
ATOM      8  C   UNL     1       5.772  -4.883  -5.963  0.00  0.00    +0.091 A 
ATOM      9  O   UNL     1       6.112  -1.095  -4.329  0.00  0.00    -0.451 OA
ATOM     10  C   UNL     1       5.815  -4.747  -4.568  0.00  0.00    +0.135 A 
ATOM     11  C   UNL     1       6.110  -0.859  -2.959  0.00  0.00    +0.181 A 
ENDROOT
BRANCH  11  12
ATOM     12  C   UNL     1       6.337   0.591  -2.685  0.00  0.00    +0.025 A 
ATOM     13  C   UNL     1       7.080   1.353  -3.622  0.00  0.00    +0.015 A 
ATOM     14  C   UNL     1       7.381   2.701  -3.408  0.00  0.00    +0.050 A 
ATOM     15  C   UNL     1       6.962   3.295  -2.234  0.00  0.00    +0.158 A 
ATOM     16  C   UNL     1       6.214   2.577  -1.307  0.00  0.00    +0.159 A 
ATOM     17  C   UNL     1       5.865   1.246  -1.540  0.00  0.00    +0.060 A 
BRANCH  15  18
ATOM     18  O   UNL     1       7.317   4.587  -1.979  0.00  0.00    -0.503 OA
ATOM     19  H   UNL     1       6.960   4.767  -1.086  0.00  0.00    +0.292 HD
ENDBRANCH  15  18
BRANCH  16  20
ATOM     20  O   UNL     1       5.871   3.213  -0.145  0.00  0.00    -0.503 OA
ATOM     21  H   UNL     1       5.597   2.530   0.493  0.00  0.00    +0.292 HD
ENDBRANCH  16  20
ENDBRANCH  11  12
BRANCH   7  22
ATOM     22  O   UNL     1       5.806  -3.928  -8.116  0.00  0.00    -0.507 OA
ATOM     23  H   UNL     1       5.870  -3.064  -8.558  0.00  0.00    +0.292 HD
ENDBRANCH   7  22
BRANCH  10  24
ATOM     24  O   UNL     1       5.725  -5.872  -3.801  0.00  0.00    -0.506 OA
ATOM     25  H   UNL     1       5.714  -6.663  -4.367  0.00  0.00    +0.292 HD
ENDBRANCH  10  24
BRANCH   1  26
ATOM     26  O   UNL     1       6.001  -1.571  -0.650  0.00  0.00    -0.453 OA
BRANCH  26  29
ATOM     27  C   UNL     1       5.888  -2.594   2.507  0.00  0.00    +0.242 C 
ATOM     28  C   UNL     1       6.099  -3.242   1.146  0.00  0.00    +0.226 C 
ATOM     29  C   UNL     1       5.209  -2.455   0.167  0.00  0.00    +0.341 C 
ATOM     30  O   UNL     1       4.262  -1.698   0.949  0.00  0.00    -0.330 OA
ATOM     31  C   UNL     1       4.718  -1.638   2.311  0.00  0.00    +0.191 C 
BRANCH  28  32
ATOM     32  O   UNL     1       5.628  -4.599   1.231  0.00  0.00    -0.382 OA
ATOM     33  H   UNL     1       5.814  -5.002   0.357  0.00  0.00    +0.210 HD
ENDBRANCH  28  32
BRANCH  27  34
ATOM     34  O   UNL     1       7.011  -1.810   2.967  0.00  0.00    -0.456 OA
BRANCH  34  36
ATOM     35  C   UNL     1       8.887  -1.609   4.371  0.00  0.00    +0.136 C 
ATOM     36  C   UNL     1       8.002  -2.520   3.575  0.00  0.00    +0.304 C 
ATOM     37  O   UNL     1       8.110  -3.737   3.557  0.00  0.00    -0.251 OA
ENDBRANCH  34  36
ENDBRANCH  27  34
BRANCH  31  38
ATOM     38  C   UNL     1       3.556  -1.984   3.250  0.00  0.00    +0.191 C 
BRANCH  38  39
ATOM     39  O   UNL     1       2.500  -1.038   3.092  0.00  0.00    -0.392 OA
ATOM     40  H   UNL     1       2.398  -0.909   2.130  0.00  0.00    +0.210 HD
ENDBRANCH  38  39
ENDBRANCH  31  38
ENDBRANCH  26  29
ENDBRANCH   1  26
TORSDOF 12
