REMARK  Name = 
REMARK  17 active torsions:
REMARK  status: ('A' for Active; 'I' for Inactive)
REMARK    1  A    between atoms: C_1  and  C_2
REMARK    2  A    between atoms: C_3  and  O_52
REMARK    3  A    between atoms: C_5  and  O_51
REMARK    4  A    between atoms: C_7  and  O_50
REMARK    5  A    between atoms: C_9  and  O_12
REMARK    6  A    between atoms: O_12  and  C_13
REMARK    7  A    between atoms: C_13  and  C_14
REMARK    8  A    between atoms: C_16  and  O_49
REMARK    9  A    between atoms: C_18  and  O_48
REMARK   10  A    between atoms: C_20  and  O_47
REMARK   11  A    between atoms: C_22  and  O_25
REMARK   12  A    between atoms: O_25  and  C_26
REMARK   13  A    between atoms: C_27  and  C_39
REMARK   14  A    between atoms: C_31  and  O_38
REMARK   15  A    between atoms: C_33  and  O_37
REMARK   16  A    between atoms: C_41  and  O_46
REMARK   17  A    between atoms: C_42  and  O_45
REMARK                            x       y       z     vdW  Elec       q    Type
REMARK                         _______ _______ _______ _____ _____    ______ ____
ROOT
ATOM      1  C   UNL     1       3.145   4.398  -4.481  0.00  0.00    +0.179 C 
ATOM      2  O   UNL     1       3.683   5.619  -3.946  0.00  0.00    -0.331 OA
ATOM      3  C   UNL     1       2.732   6.259  -3.091  0.00  0.00    +0.340 C 
ATOM      4  C   UNL     1       1.614   6.828  -3.998  0.00  0.00    +0.214 C 
ATOM      5  C   UNL     1       0.999   5.610  -4.756  0.00  0.00    +0.180 C 
ATOM      6  C   UNL     1       2.061   4.770  -5.492  0.00  0.00    +0.177 C 
ENDROOT
BRANCH   6   7
ATOM      7  O   UNL     1       1.418   3.610  -6.038  0.00  0.00    -0.386 OA
ATOM      8  H   UNL     1       2.055   3.211  -6.661  0.00  0.00    +0.210 HD
ENDBRANCH   6   7
BRANCH   5   9
ATOM      9  O   UNL     1      -0.023   6.009  -5.678  0.00  0.00    -0.386 OA
ATOM     10  H   UNL     1      -0.229   5.198  -6.191  0.00  0.00    +0.210 HD
ENDBRANCH   5   9
BRANCH   4  11
ATOM     11  O   UNL     1       0.618   7.490  -3.201  0.00  0.00    -0.383 OA
ATOM     12  H   UNL     1      -0.195   6.954  -3.236  0.00  0.00    +0.210 HD
ENDBRANCH   4  11
BRANCH   3  13
ATOM     13  O   UNL     1       3.402   7.206  -2.220  0.00  0.00    -0.453 OA
BRANCH  13  14
ATOM     14  C   UNL     1       3.873   6.630  -1.023  0.00  0.00    +0.214 A 
ATOM     15  C   UNL     1       3.953   5.129  -0.874  0.00  0.00    +0.238 A 
ATOM     16  O   UNL     1       4.159   4.358  -1.805  0.00  0.00    -0.283 OA
ATOM     17  C   UNL     1       3.905   4.559   0.457  0.00  0.00    +0.109 A 
ATOM     18  C   UNL     1       4.361   5.374   1.471  0.00  0.00    +0.147 A 
ATOM     19  C   UNL     1       4.525   4.852   2.759  0.00  0.00    +0.092 A 
ATOM     20  C   UNL     1       4.226   3.507   2.983  0.00  0.00    +0.124 A 
ATOM     21  C   UNL     1       3.741   2.690   1.966  0.00  0.00    +0.091 A 
ATOM     22  O   UNL     1       4.717   6.675   1.249  0.00  0.00    -0.451 OA
ATOM     23  C   UNL     1       3.564   3.224   0.695  0.00  0.00    +0.135 A 
ATOM     24  C   UNL     1       4.386   7.317   0.037  0.00  0.00    +0.181 A 
BRANCH  24  25
ATOM     25  C   UNL     1       4.801   8.773   0.099  0.00  0.00    +0.025 A 
ATOM     26  C   UNL     1       5.514   9.219   1.250  0.00  0.00    +0.015 A 
ATOM     27  C   UNL     1       6.143  10.468   1.321  0.00  0.00    +0.050 A 
ATOM     28  C   UNL     1       6.047  11.318   0.243  0.00  0.00    +0.158 A 
ATOM     29  C   UNL     1       5.268  10.965  -0.854  0.00  0.00    +0.159 A 
ATOM     30  C   UNL     1       4.654   9.705  -0.941  0.00  0.00    +0.060 A 
BRANCH  29  31
ATOM     31  O   UNL     1       5.139  11.904  -1.844  0.00  0.00    -0.503 OA
ATOM     32  H   UNL     1       4.285  11.746  -2.283  0.00  0.00    +0.292 HD
ENDBRANCH  29  31
BRANCH  28  33
ATOM     33  O   UNL     1       6.729  12.500   0.265  0.00  0.00    -0.503 OA
ATOM     34  H   UNL     1       6.631  12.859  -0.639  0.00  0.00    +0.292 HD
ENDBRANCH  28  33
ENDBRANCH  24  25
BRANCH  23  35
ATOM     35  O   UNL     1       3.054   2.437  -0.295  0.00  0.00    -0.506 OA
ATOM     36  H   UNL     1       3.120   1.503  -0.036  0.00  0.00    +0.292 HD
ENDBRANCH  23  35
BRANCH  20  37
ATOM     37  O   UNL     1       4.402   2.929   4.204  0.00  0.00    -0.507 OA
ATOM     38  H   UNL     1       4.766   3.586   4.820  0.00  0.00    +0.292 HD
ENDBRANCH  20  37
ENDBRANCH  13  14
ENDBRANCH   3  13
BRANCH   1  39
ATOM     39  C   UNL     1       4.283   3.553  -5.051  0.00  0.00    +0.197 C 
BRANCH  39  40
ATOM     40  O   UNL     1       4.836   4.216  -6.180  0.00  0.00    -0.346 OA
BRANCH  40  44
ATOM     41  C   UNL     1       8.030   1.275  -6.673  0.00  0.00    +0.041 C 
ATOM     42  C   UNL     1       8.178   2.738  -6.268  0.00  0.00    +0.149 C 
ATOM     43  O   UNL     1       6.954   3.297  -5.781  0.00  0.00    -0.343 OA
ATOM     44  C   UNL     1       5.939   3.515  -6.759  0.00  0.00    +0.282 C 
ATOM     45  C   UNL     1       6.416   4.393  -7.936  0.00  0.00    +0.201 C 
ATOM     46  C   UNL     1       7.780   3.951  -8.474  0.00  0.00    +0.179 C 
ATOM     47  C   UNL     1       8.768   3.667  -7.338  0.00  0.00    +0.174 C 
BRANCH  47  48
ATOM     48  O   UNL     1       9.103   4.915  -6.705  0.00  0.00    -0.387 OA
ATOM     49  H   UNL     1       8.454   5.068  -5.988  0.00  0.00    +0.210 HD
ENDBRANCH  47  48
BRANCH  46  50
ATOM     50  O   UNL     1       7.640   2.832  -9.362  0.00  0.00    -0.386 OA
ATOM     51  H   UNL     1       6.905   2.269  -9.068  0.00  0.00    +0.210 HD
ENDBRANCH  46  50
BRANCH  45  52
ATOM     52  O   UNL     1       5.436   4.363  -8.993  0.00  0.00    -0.384 OA
ATOM     53  H   UNL     1       5.890   4.088  -9.810  0.00  0.00    +0.210 HD
ENDBRANCH  45  52
ENDBRANCH  40  44
ENDBRANCH  39  40
ENDBRANCH   1  39
TORSDOF 16
