REMARK  Name = 
REMARK  12 active torsions:
REMARK  status: ('A' for Active; 'I' for Inactive)
REMARK    1  A    between atoms: C_3  and  O_22
REMARK    2  A    between atoms: C_4  and  O_21
REMARK    3  A    between atoms: C_6  and  C_7
REMARK    4  A    between atoms: C_8  and  O_20
REMARK    5  A    between atoms: C_12  and  O_19
REMARK    6  A    between atoms: C_14  and  O_18
REMARK    7  A    between atoms: O_22  and  C_23
REMARK    8  A    between atoms: C_24  and  O_33
REMARK    9  A    between atoms: C_25  and  O_32
REMARK   10  A    between atoms: C_26  and  O_31
REMARK   11  A    between atoms: C_27  and  C_29
REMARK   12  A    between atoms: C_29  and  O_30
REMARK                            x       y       z     vdW  Elec       q    Type
REMARK                         _______ _______ _______ _____ _____    ______ ____
ROOT
ATOM      1  C   UNL     1      -1.416  -0.169   0.205  0.00  0.00    +0.015 A 
ATOM      2  C   UNL     1      -0.643  -1.319  -0.005  0.00  0.00    +0.025 A 
ATOM      3  C   UNL     1       0.742  -1.141  -0.177  0.00  0.00    +0.060 A 
ATOM      4  C   UNL     1       1.302   0.143  -0.191  0.00  0.00    +0.159 A 
ATOM      5  C   UNL     1       0.507   1.287  -0.097  0.00  0.00    +0.165 A 
ATOM      6  C   UNL     1      -0.852   1.105   0.165  0.00  0.00    +0.050 A 
ENDROOT
BRANCH   2   7
ATOM      7  C   UNL     1      -1.366  -2.617  -0.144  0.00  0.00    +0.181 A 
ATOM      8  O   UNL     1      -2.622  -2.446  -0.712  0.00  0.00    -0.451 OA
ATOM      9  C   UNL     1      -3.465  -3.519  -0.841  0.00  0.00    +0.147 A 
ATOM     10  C   UNL     1      -3.068  -4.815  -0.550  0.00  0.00    +0.109 A 
ATOM     11  C   UNL     1      -3.966  -5.875  -0.721  0.00  0.00    +0.135 A 
ATOM     12  C   UNL     1      -5.264  -5.640  -1.169  0.00  0.00    +0.091 A 
ATOM     13  C   UNL     1      -5.653  -4.336  -1.451  0.00  0.00    +0.124 A 
ATOM     14  C   UNL     1      -1.711  -5.028  -0.040  0.00  0.00    +0.238 A 
ATOM     15  O   UNL     1      -1.326  -6.173   0.186  0.00  0.00    -0.283 OA
ATOM     16  C   UNL     1      -4.765  -3.272  -1.293  0.00  0.00    +0.092 A 
ATOM     17  C   UNL     1      -0.873  -3.824   0.226  0.00  0.00    +0.208 A 
BRANCH  11  18
ATOM     18  O   UNL     1      -3.640  -7.179  -0.459  0.00  0.00    -0.506 OA
ATOM     19  H   UNL     1      -2.703  -7.201  -0.160  0.00  0.00    +0.292 HD
ENDBRANCH  11  18
BRANCH  13  20
ATOM     20  O   UNL     1      -6.916  -4.049  -1.886  0.00  0.00    -0.507 OA
ATOM     21  H   UNL     1      -7.417  -4.880  -1.958  0.00  0.00    +0.292 HD
ENDBRANCH  13  20
BRANCH  17  22
ATOM     22  O   UNL     1       0.331  -4.034   0.865  0.00  0.00    -0.501 OA
ATOM     23  H   UNL     1       0.596  -3.215   1.316  0.00  0.00    +0.292 HD
ENDBRANCH  17  22
ENDBRANCH   2   7
BRANCH   4  24
ATOM     24  O   UNL     1       2.660   0.247  -0.333  0.00  0.00    -0.503 OA
ATOM     25  H   UNL     1       2.871   1.192  -0.202  0.00  0.00    +0.292 HD
ENDBRANCH   4  24
BRANCH   5  26
ATOM     26  O   UNL     1       1.108   2.514  -0.336  0.00  0.00    -0.457 OA
BRANCH  26  27
ATOM     27  C   UNL     1       0.162   3.577  -0.577  0.00  0.00    +0.339 C 
ATOM     28  O   UNL     1      -0.698   3.272  -1.691  0.00  0.00    -0.331 OA
ATOM     29  C   UNL     1      -0.038   3.424  -2.962  0.00  0.00    +0.179 C 
ATOM     30  C   UNL     1       0.078   4.932  -3.157  0.00  0.00    +0.177 C 
ATOM     31  C   UNL     1       1.081   5.458  -2.129  0.00  0.00    +0.180 C 
ATOM     32  C   UNL     1       0.759   5.007  -0.695  0.00  0.00    +0.214 C 
BRANCH  30  33
ATOM     33  O   UNL     1      -1.193   5.570  -2.914  0.00  0.00    -0.386 OA
ATOM     34  H   UNL     1      -1.732   4.942  -2.386  0.00  0.00    +0.210 HD
ENDBRANCH  30  33
BRANCH  31  35
ATOM     35  O   UNL     1       1.077   6.895  -2.166  0.00  0.00    -0.386 OA
ATOM     36  H   UNL     1       0.145   7.156  -2.322  0.00  0.00    +0.210 HD
ENDBRANCH  31  35
BRANCH  32  37
ATOM     37  O   UNL     1       1.891   5.189   0.163  0.00  0.00    -0.383 OA
ATOM     38  H   UNL     1       2.402   5.940  -0.198  0.00  0.00    +0.210 HD
ENDBRANCH  32  37
BRANCH  29  39
ATOM     39  C   UNL     1      -0.889   2.770  -4.057  0.00  0.00    +0.190 C 
BRANCH  39  40
ATOM     40  O   UNL     1      -0.857   1.347  -3.953  0.00  0.00    -0.392 OA
ATOM     41  H   UNL     1       0.066   1.050  -4.015  0.00  0.00    +0.210 HD
ENDBRANCH  39  40
ENDBRANCH  29  39
ENDBRANCH  26  27
ENDBRANCH   5  26
TORSDOF 12
