REMARK  Name = 
REMARK  7 active torsions:
REMARK  status: ('A' for Active; 'I' for Inactive)
REMARK    1  A    between atoms: C_3  and  O_26
REMARK    2  A    between atoms: C_4  and  O_25
REMARK    3  A    between atoms: C_6  and  C_7
REMARK    4  A    between atoms: C_8  and  O_20
REMARK    5  A    between atoms: C_12  and  O_19
REMARK    6  A    between atoms: O_20  and  S_21
REMARK    7  A    between atoms: S_21  and  O_24
REMARK                            x       y       z     vdW  Elec       q    Type
REMARK                         _______ _______ _______ _____ _____    ______ ____
ROOT
ATOM      1  C   UNL     1      -1.299  -2.560   0.017  0.00  0.00    +0.184 A 
ATOM      2  O   UNL     1      -0.543  -3.719   0.025  0.00  0.00    -0.451 OA
ATOM      3  C   UNL     1      -1.180  -4.916  -0.178  0.00  0.00    +0.143 A 
ATOM      4  C   UNL     1      -2.520  -5.013  -0.517  0.00  0.00    +0.109 A 
ATOM      5  C   UNL     1      -3.097  -6.265  -0.706  0.00  0.00    +0.131 A 
ATOM      6  C   UNL     1      -2.312  -7.411  -0.555  0.00  0.00    +0.038 A 
ATOM      7  C   UNL     1      -0.941  -7.359  -0.219  0.00  0.00    -0.101 A 
ATOM      8  O   UNL     1      -0.227  -8.406  -0.090  0.00  0.00    -0.873 OA
ATOM      9  C   UNL     1      -3.286  -3.773  -0.660  0.00  0.00    +0.241 A 
ATOM     10  O   UNL     1      -4.453  -3.780  -1.043  0.00  0.00    -0.283 OA
ATOM     11  C   UNL     1      -0.413  -6.072  -0.033  0.00  0.00    +0.039 A 
ATOM     12  C   UNL     1      -2.607  -2.493  -0.327  0.00  0.00    +0.248 A 
ENDROOT
BRANCH   1  14
ATOM     13  C   UNL     1      -0.685  -0.800   1.671  0.00  0.00    +0.015 A 
ATOM     14  C   UNL     1      -0.511  -1.388   0.412  0.00  0.00    +0.025 A 
ATOM     15  C   UNL     1       0.344  -0.790  -0.522  0.00  0.00    +0.060 A 
ATOM     16  C   UNL     1       0.837   0.480  -0.266  0.00  0.00    +0.159 A 
ATOM     17  C   UNL     1       0.575   1.112   0.947  0.00  0.00    +0.158 A 
ATOM     18  C   UNL     1      -0.133   0.455   1.944  0.00  0.00    +0.050 A 
BRANCH  16  19
ATOM     19  O   UNL     1       1.521   1.147  -1.244  0.00  0.00    -0.503 OA
ATOM     20  H   UNL     1       1.864   1.944  -0.774  0.00  0.00    +0.292 HD
ENDBRANCH  16  19
BRANCH  17  21
ATOM     21  O   UNL     1       1.002   2.402   1.091  0.00  0.00    -0.503 OA
ATOM     22  H   UNL     1       0.578   2.765   1.892  0.00  0.00    +0.292 HD
ENDBRANCH  17  21
ENDBRANCH   1  14
BRANCH   5  23
ATOM     23  O   UNL     1      -4.415  -6.439  -1.037  0.00  0.00    -0.506 OA
ATOM     24  H   UNL     1      -4.828  -5.556  -1.117  0.00  0.00    +0.292 HD
ENDBRANCH   5  23
BRANCH  12  25
ATOM     25  O   UNL     1      -3.439  -1.388  -0.316  0.00  0.00    -0.317 OA
BRANCH  25  26
ATOM     26  S   UNL     1      -3.102   0.064  -0.954  0.00  0.00    +0.252 S 
ATOM     27  O   UNL     1      -2.182  -0.059  -2.076  0.00  0.00    -0.108 OA
ATOM     28  O   UNL     1      -2.842   0.995   0.121  0.00  0.00    -0.108 OA
BRANCH  26  29
ATOM     29  O   UNL     1      -4.512   0.542  -1.564  0.00  0.00    -0.222 OA
ATOM     30  H   UNL     1      -5.060   0.901  -0.832  0.00  0.00    +0.248 HD
ENDBRANCH  26  29
ENDBRANCH  25  26
ENDBRANCH  12  25
TORSDOF 7
REMARK  Name = 
REMARK  7 active torsions:
REMARK  status: ('A' for Active; 'I' for Inactive)
REMARK    1  A    between atoms: C_3  and  O_26
REMARK    2  A    between atoms: C_4  and  O_25
REMARK    3  A    between atoms: C_6  and  C_7
REMARK    4  A    between atoms: C_8  and  O_20
REMARK    5  A    between atoms: C_12  and  O_19
REMARK    6  A    between atoms: O_20  and  S_21
REMARK    7  A    between atoms: S_21  and  O_24
REMARK                            x       y       z     vdW  Elec       q    Type
REMARK                         _______ _______ _______ _____ _____    ______ ____
ROOT
ATOM      1  K   UNL     1       0.065   0.325  -3.603  0.00  0.00    +0.000 K 
ENDROOT
TORSDOF 0
