REMARK  Name = 
REMARK  24 active torsions:
REMARK  status: ('A' for Active; 'I' for Inactive)
REMARK    1  A    between atoms: C_3  and  O_70
REMARK    2  A    between atoms: C_4  and  O_69
REMARK    3  A    between atoms: C_6  and  C_7
REMARK    4  A    between atoms: C_8  and  O_36
REMARK    5  A    between atoms: C_12  and  O_35
REMARK    6  A    between atoms: C_14  and  O_18
REMARK    7  A    between atoms: O_18  and  C_19
REMARK    8  A    between atoms: C_21  and  O_34
REMARK    9  A    between atoms: C_23  and  O_33
REMARK   10  A    between atoms: C_25  and  O_32
REMARK   11  A    between atoms: C_27  and  C_30
REMARK   12  A    between atoms: C_30  and  O_31
REMARK   13  A    between atoms: O_36  and  C_37
REMARK   14  A    between atoms: C_39  and  O_52
REMARK   15  A    between atoms: C_41  and  O_51
REMARK   16  A    between atoms: C_43  and  O_50
REMARK   17  A    between atoms: C_45  and  C_48
REMARK   18  A    between atoms: C_48  and  O_49
REMARK   19  A    between atoms: O_52  and  C_53
REMARK   20  A    between atoms: C_55  and  O_68
REMARK   21  A    between atoms: C_57  and  O_67
REMARK   22  A    between atoms: C_59  and  O_66
REMARK   23  A    between atoms: C_61  and  C_64
REMARK   24  A    between atoms: C_64  and  O_65
REMARK                            x       y       z     vdW  Elec       q    Type
REMARK                         _______ _______ _______ _____ _____    ______ ____
ROOT
ATOM      1  C   UNL     1      -2.124  -2.190   0.486  0.00  0.00    +0.181 A 
ATOM      2  O   UNL     1      -1.388  -3.369   0.760  0.00  0.00    -0.451 OA
ATOM      3  C   UNL     1      -1.906  -4.587   0.357  0.00  0.00    +0.147 A 
ATOM      4  C   UNL     1      -3.255  -4.745   0.085  0.00  0.00    +0.109 A 
ATOM      5  C   UNL     1      -3.768  -5.986  -0.310  0.00  0.00    +0.135 A 
ATOM      6  C   UNL     1      -2.922  -7.074  -0.489  0.00  0.00    +0.092 A 
ATOM      7  C   UNL     1      -1.541  -6.909  -0.357  0.00  0.00    +0.131 A 
ATOM      8  C   UNL     1      -4.109  -3.567   0.133  0.00  0.00    +0.238 A 
ATOM      9  O   UNL     1      -5.323  -3.731   0.091  0.00  0.00    -0.283 OA
ATOM     10  C   UNL     1      -1.049  -5.686   0.159  0.00  0.00    +0.093 A 
ATOM     11  C   UNL     1      -3.435  -2.239   0.120  0.00  0.00    +0.214 A 
ENDROOT
BRANCH   1  13
ATOM     12  C   UNL     1      -1.740   0.366   0.195  0.00  0.00    +0.015 A 
ATOM     13  C   UNL     1      -1.290  -0.916   0.594  0.00  0.00    +0.025 A 
ATOM     14  C   UNL     1       0.013  -0.931   1.112  0.00  0.00    +0.060 A 
ATOM     15  C   UNL     1       0.806   0.235   1.172  0.00  0.00    +0.159 A 
ATOM     16  C   UNL     1       0.334   1.449   0.693  0.00  0.00    +0.158 A 
ATOM     17  C   UNL     1      -0.954   1.530   0.219  0.00  0.00    +0.050 A 
BRANCH  16  18
ATOM     18  O   UNL     1       1.204   2.510   0.670  0.00  0.00    -0.503 OA
ATOM     19  H   UNL     1       0.939   3.087  -0.065  0.00  0.00    +0.292 HD
ENDBRANCH  16  18
BRANCH  15  20
ATOM     20  O   UNL     1       2.073   0.177   1.698  0.00  0.00    -0.503 OA
ATOM     21  H   UNL     1       2.395   1.103   1.663  0.00  0.00    +0.292 HD
ENDBRANCH  15  20
ENDBRANCH   1  13
BRANCH   5  22
ATOM     22  O   UNL     1      -5.083  -6.185  -0.638  0.00  0.00    -0.506 OA
ATOM     23  H   UNL     1      -5.572  -5.342  -0.497  0.00  0.00    +0.292 HD
ENDBRANCH   5  22
BRANCH  11  24
ATOM     24  O   UNL     1      -4.099  -1.148  -0.391  0.00  0.00    -0.453 OA
BRANCH  24  25
ATOM     25  C   UNL     1      -5.535  -1.005  -0.335  0.00  0.00    +0.340 C 
ATOM     26  O   UNL     1      -6.164  -1.650  -1.440  0.00  0.00    -0.331 OA
ATOM     27  C   UNL     1      -6.247  -0.993  -2.704  0.00  0.00    +0.179 C 
ATOM     28  C   UNL     1      -6.772   0.443  -2.553  0.00  0.00    +0.177 C 
ATOM     29  C   UNL     1      -6.012   1.266  -1.513  0.00  0.00    +0.180 C 
ATOM     30  C   UNL     1      -5.783   0.528  -0.187  0.00  0.00    +0.221 C 
BRANCH  29  31
ATOM     31  O   UNL     1      -4.767   1.696  -2.080  0.00  0.00    -0.386 OA
ATOM     32  H   UNL     1      -4.254   0.919  -2.400  0.00  0.00    +0.210 HD
ENDBRANCH  29  31
BRANCH  28  33
ATOM     33  O   UNL     1      -8.143   0.361  -2.134  0.00  0.00    -0.386 OA
ATOM     34  H   UNL     1      -8.491   1.269  -2.088  0.00  0.00    +0.210 HD
ENDBRANCH  28  33
BRANCH  27  35
ATOM     35  C   UNL     1      -4.986  -1.179  -3.570  0.00  0.00    +0.190 C 
BRANCH  35  36
ATOM     36  O   UNL     1      -3.835  -0.554  -3.015  0.00  0.00    -0.392 OA
ATOM     37  H   UNL     1      -3.406  -1.228  -2.451  0.00  0.00    +0.210 HD
ENDBRANCH  35  36
ENDBRANCH  27  35
BRANCH  30  38
ATOM     38  O   UNL     1      -6.374   1.036   1.027  0.00  0.00    -0.337 OA
BRANCH  38  39
ATOM     39  C   UNL     1      -7.724   0.941   1.441  0.00  0.00    +0.282 C 
ATOM     40  O   UNL     1      -7.975   1.978   2.436  0.00  0.00    -0.341 OA
ATOM     41  C   UNL     1      -7.216   1.902   3.674  0.00  0.00    +0.178 C 
ATOM     42  C   UNL     1      -7.192   0.500   4.334  0.00  0.00    +0.177 C 
ATOM     43  C   UNL     1      -7.123  -0.639   3.305  0.00  0.00    +0.179 C 
ATOM     44  C   UNL     1      -8.103  -0.378   2.144  0.00  0.00    +0.201 C 
BRANCH  44  45
ATOM     45  O   UNL     1      -9.444  -0.300   2.678  0.00  0.00    -0.384 OA
ATOM     46  H   UNL     1      -9.590   0.634   2.948  0.00  0.00    +0.210 HD
ENDBRANCH  44  45
BRANCH  43  47
ATOM     47  O   UNL     1      -5.777  -0.803   2.856  0.00  0.00    -0.386 OA
ATOM     48  H   UNL     1      -5.546  -0.016   2.325  0.00  0.00    +0.210 HD
ENDBRANCH  43  47
BRANCH  42  49
ATOM     49  O   UNL     1      -8.367   0.377   5.158  0.00  0.00    -0.386 OA
ATOM     50  H   UNL     1      -8.948  -0.315   4.785  0.00  0.00    +0.210 HD
ENDBRANCH  42  49
BRANCH  41  51
ATOM     51  C   UNL     1      -5.809   2.516   3.535  0.00  0.00    +0.190 C 
BRANCH  51  52
ATOM     52  O   UNL     1      -5.870   3.879   3.111  0.00  0.00    -0.392 OA
ATOM     53  H   UNL     1      -6.688   4.268   3.465  0.00  0.00    +0.210 HD
ENDBRANCH  51  52
ENDBRANCH  41  51
ENDBRANCH  38  39
ENDBRANCH  30  38
ENDBRANCH  24  25
ENDBRANCH  11  24
BRANCH   7  54
ATOM     54  O   UNL     1      -0.598  -7.812  -0.806  0.00  0.00    -0.461 OA
BRANCH  54  55
ATOM     55  C   UNL     1      -1.045  -9.064  -1.373  0.00  0.00    +0.339 C 
ATOM     56  O   UNL     1       0.015 -10.040  -1.398  0.00  0.00    -0.331 OA
ATOM     57  C   UNL     1       0.895 -10.078  -2.533  0.00  0.00    +0.179 C 
ATOM     58  C   UNL     1       0.132 -10.138  -3.867  0.00  0.00    +0.177 C 
ATOM     59  C   UNL     1      -0.853  -8.977  -3.974  0.00  0.00    +0.180 C 
ATOM     60  C   UNL     1      -1.774  -8.937  -2.748  0.00  0.00    +0.214 C 
BRANCH  60  61
ATOM     61  O   UNL     1      -2.734 -10.008  -2.871  0.00  0.00    -0.383 OA
ATOM     62  H   UNL     1      -2.218 -10.843  -2.907  0.00  0.00    +0.210 HD
ENDBRANCH  60  61
BRANCH  59  63
ATOM     63  O   UNL     1      -0.153  -7.759  -4.216  0.00  0.00    -0.386 OA
ATOM     64  H   UNL     1      -0.360  -7.114  -3.517  0.00  0.00    +0.210 HD
ENDBRANCH  59  63
BRANCH  58  65
ATOM     65  O   UNL     1      -0.595 -11.377  -3.939  0.00  0.00    -0.386 OA
ATOM     66  H   UNL     1      -0.878 -11.495  -4.866  0.00  0.00    +0.210 HD
ENDBRANCH  58  65
BRANCH  57  67
ATOM     67  C   UNL     1       1.959  -8.965  -2.503  0.00  0.00    +0.190 C 
BRANCH  67  68
ATOM     68  O   UNL     1       2.764  -9.016  -1.328  0.00  0.00    -0.392 OA
ATOM     69  H   UNL     1       2.858  -9.945  -1.060  0.00  0.00    +0.210 HD
ENDBRANCH  67  68
ENDBRANCH  57  67
ENDBRANCH  54  55
ENDBRANCH   7  54
TORSDOF 24
