REMARK  Name = 
REMARK  24 active torsions:
REMARK  status: ('A' for Active; 'I' for Inactive)
REMARK    1  A    between atoms: C_3  and  O_55
REMARK    2  A    between atoms: C_4  and  O_54
REMARK    3  A    between atoms: C_6  and  C_7
REMARK    4  A    between atoms: C_8  and  O_31
REMARK    5  A    between atoms: C_12  and  O_30
REMARK    6  A    between atoms: C_14  and  O_18
REMARK    7  A    between atoms: O_18  and  C_19
REMARK    8  A    between atoms: C_20  and  O_29
REMARK    9  A    between atoms: C_21  and  O_28
REMARK   10  A    between atoms: C_22  and  O_27
REMARK   11  A    between atoms: C_23  and  C_25
REMARK   12  A    between atoms: C_25  and  O_26
REMARK   13  A    between atoms: O_31  and  C_32
REMARK   14  A    between atoms: C_33  and  O_42
REMARK   15  A    between atoms: C_34  and  O_41
REMARK   16  A    between atoms: C_35  and  O_40
REMARK   17  A    between atoms: C_36  and  C_38
REMARK   18  A    between atoms: C_38  and  O_39
REMARK   19  A    between atoms: O_42  and  C_43
REMARK   20  A    between atoms: C_44  and  O_53
REMARK   21  A    between atoms: C_45  and  O_52
REMARK   22  A    between atoms: C_46  and  O_51
REMARK   23  A    between atoms: C_47  and  C_49
REMARK   24  A    between atoms: C_49  and  O_50
REMARK                            x       y       z     vdW  Elec       q    Type
REMARK                         _______ _______ _______ _____ _____    ______ ____
ROOT
ATOM      1  C   UNL     1      -1.058  -2.822  -0.641  0.00  0.00    +0.181 A 
ATOM      2  O   UNL     1      -0.402  -4.052  -0.338  0.00  0.00    -0.451 OA
ATOM      3  C   UNL     1      -1.084  -5.236  -0.324  0.00  0.00    +0.147 A 
ATOM      4  C   UNL     1      -2.462  -5.231  -0.407  0.00  0.00    +0.109 A 
ATOM      5  C   UNL     1      -3.108  -6.455  -0.511  0.00  0.00    +0.135 A 
ATOM      6  C   UNL     1      -2.405  -7.656  -0.502  0.00  0.00    +0.092 A 
ATOM      7  C   UNL     1      -1.026  -7.688  -0.270  0.00  0.00    +0.131 A 
ATOM      8  C   UNL     1      -3.169  -3.956  -0.275  0.00  0.00    +0.238 A 
ATOM      9  O   UNL     1      -4.366  -3.995  -0.005  0.00  0.00    -0.283 OA
ATOM     10  C   UNL     1      -0.357  -6.453  -0.220  0.00  0.00    +0.093 A 
ATOM     11  C   UNL     1      -2.408  -2.671  -0.508  0.00  0.00    +0.214 A 
ENDROOT
BRANCH   1  13
ATOM     12  C   UNL     1       1.118  -2.403  -1.735  0.00  0.00    +0.015 A 
ATOM     13  C   UNL     1      -0.034  -1.841  -1.116  0.00  0.00    +0.025 A 
ATOM     14  C   UNL     1      -0.088  -0.441  -1.053  0.00  0.00    +0.060 A 
ATOM     15  C   UNL     1       0.958   0.326  -1.581  0.00  0.00    +0.159 A 
ATOM     16  C   UNL     1       2.082  -0.269  -2.162  0.00  0.00    +0.158 A 
ATOM     17  C   UNL     1       2.172  -1.640  -2.233  0.00  0.00    +0.050 A 
BRANCH  16  18
ATOM     18  O   UNL     1       3.067   0.535  -2.669  0.00  0.00    -0.503 OA
ATOM     19  H   UNL     1       3.751  -0.035  -3.067  0.00  0.00    +0.292 HD
ENDBRANCH  16  18
BRANCH  15  20
ATOM     20  O   UNL     1       0.891   1.696  -1.551  0.00  0.00    -0.503 OA
ATOM     21  H   UNL     1       1.701   1.993  -2.017  0.00  0.00    +0.292 HD
ENDBRANCH  15  20
ENDBRANCH   1  13
BRANCH   5  22
ATOM     22  O   UNL     1      -4.470  -6.595  -0.621  0.00  0.00    -0.506 OA
ATOM     23  H   UNL     1      -4.854  -5.696  -0.643  0.00  0.00    +0.292 HD
ENDBRANCH   5  22
BRANCH  11  24
ATOM     24  O   UNL     1      -3.078  -1.441  -0.396  0.00  0.00    -0.453 OA
BRANCH  24  25
ATOM     25  C   UNL     1      -3.711  -0.848  -1.560  0.00  0.00    +0.340 C 
ATOM     26  O   UNL     1      -4.158   0.513  -1.306  0.00  0.00    -0.331 OA
ATOM     27  C   UNL     1      -5.334   0.747  -0.497  0.00  0.00    +0.179 C 
ATOM     28  C   UNL     1      -6.440  -0.336  -0.531  0.00  0.00    +0.177 C 
ATOM     29  C   UNL     1      -5.969  -1.700  -1.030  0.00  0.00    +0.180 C 
ATOM     30  C   UNL     1      -4.911  -1.602  -2.145  0.00  0.00    +0.221 C 
BRANCH  29  31
ATOM     31  O   UNL     1      -7.099  -2.464  -1.490  0.00  0.00    -0.386 OA
ATOM     32  H   UNL     1      -7.841  -2.235  -0.897  0.00  0.00    +0.210 HD
ENDBRANCH  29  31
BRANCH  28  33
ATOM     33  O   UNL     1      -7.614   0.058  -1.266  0.00  0.00    -0.386 OA
ATOM     34  H   UNL     1      -7.422  -0.002  -2.218  0.00  0.00    +0.210 HD
ENDBRANCH  28  33
BRANCH  27  35
ATOM     35  C   UNL     1      -5.958   2.116  -0.906  0.00  0.00    +0.190 C 
BRANCH  35  36
ATOM     36  O   UNL     1      -5.030   3.195  -0.914  0.00  0.00    -0.392 OA
ATOM     37  H   UNL     1      -4.390   3.053  -0.200  0.00  0.00    +0.210 HD
ENDBRANCH  35  36
ENDBRANCH  27  35
BRANCH  30  38
ATOM     38  O   UNL     1      -4.572  -2.904  -2.584  0.00  0.00    -0.337 OA
BRANCH  38  39
ATOM     39  C   UNL     1      -4.390  -3.299  -3.942  0.00  0.00    +0.282 C 
ATOM     40  O   UNL     1      -4.410  -2.337  -4.989  0.00  0.00    -0.341 OA
ATOM     41  C   UNL     1      -5.691  -1.872  -5.424  0.00  0.00    +0.178 C 
ATOM     42  C   UNL     1      -6.754  -2.964  -5.644  0.00  0.00    +0.177 C 
ATOM     43  C   UNL     1      -6.731  -4.028  -4.540  0.00  0.00    +0.179 C 
ATOM     44  C   UNL     1      -5.311  -4.502  -4.226  0.00  0.00    +0.201 C 
BRANCH  44  45
ATOM     45  O   UNL     1      -5.315  -5.412  -3.117  0.00  0.00    -0.384 OA
ATOM     46  H   UNL     1      -5.982  -5.080  -2.486  0.00  0.00    +0.210 HD
ENDBRANCH  44  45
BRANCH  43  47
ATOM     47  O   UNL     1      -7.524  -5.163  -4.918  0.00  0.00    -0.386 OA
ATOM     48  H   UNL     1      -8.267  -4.846  -5.460  0.00  0.00    +0.210 HD
ENDBRANCH  43  47
BRANCH  42  49
ATOM     49  O   UNL     1      -6.664  -3.566  -6.941  0.00  0.00    -0.386 OA
ATOM     50  H   UNL     1      -6.072  -4.338  -6.897  0.00  0.00    +0.210 HD
ENDBRANCH  42  49
BRANCH  41  51
ATOM     51  C   UNL     1      -5.502  -0.975  -6.662  0.00  0.00    +0.190 C 
BRANCH  51  52
ATOM     52  O   UNL     1      -6.546  -0.003  -6.719  0.00  0.00    -0.392 OA
ATOM     53  H   UNL     1      -7.333  -0.442  -7.084  0.00  0.00    +0.210 HD
ENDBRANCH  51  52
ENDBRANCH  41  51
ENDBRANCH  38  39
ENDBRANCH  30  38
ENDBRANCH  24  25
ENDBRANCH  11  24
BRANCH   7  54
ATOM     54  O   UNL     1      -0.313  -8.872  -0.052  0.00  0.00    -0.461 OA
BRANCH  54  55
ATOM     55  C   UNL     1      -1.180  -9.983   0.296  0.00  0.00    +0.339 C 
ATOM     56  O   UNL     1      -1.927  -9.677   1.487  0.00  0.00    -0.331 OA
ATOM     57  C   UNL     1      -1.093  -9.702   2.661  0.00  0.00    +0.179 C 
ATOM     58  C   UNL     1      -0.832 -11.178   2.933  0.00  0.00    +0.177 C 
ATOM     59  C   UNL     1       0.038 -11.726   1.794  0.00  0.00    +0.180 C 
ATOM     60  C   UNL     1      -0.564 -11.408   0.412  0.00  0.00    +0.214 C 
BRANCH  60  61
ATOM     61  O   UNL     1       0.305 -11.720  -0.678  0.00  0.00    -0.383 OA
ATOM     62  H   UNL     1       1.225 -11.620  -0.381  0.00  0.00    +0.210 HD
ENDBRANCH  60  61
BRANCH  59  63
ATOM     63  O   UNL     1       0.164 -13.149   1.953  0.00  0.00    -0.386 OA
ATOM     64  H   UNL     1      -0.735 -13.479   2.164  0.00  0.00    +0.210 HD
ENDBRANCH  59  63
BRANCH  58  65
ATOM     65  O   UNL     1      -2.077 -11.901   2.937  0.00  0.00    -0.386 OA
ATOM     66  H   UNL     1      -2.729 -11.378   2.428  0.00  0.00    +0.210 HD
ENDBRANCH  58  65
BRANCH  57  67
ATOM     67  C   UNL     1      -1.826  -9.004   3.811  0.00  0.00    +0.190 C 
BRANCH  67  68
ATOM     68  O   UNL     1      -1.906  -7.595   3.585  0.00  0.00    -0.392 OA
ATOM     69  H   UNL     1      -1.006  -7.247   3.476  0.00  0.00    +0.210 HD
ENDBRANCH  67  68
ENDBRANCH  57  67
ENDBRANCH  54  55
ENDBRANCH   7  54
TORSDOF 24
