REMARK  Name = 
REMARK  12 active torsions:
REMARK  status: ('A' for Active; 'I' for Inactive)
REMARK    1  A    between atoms: C_3  and  O_28
REMARK    2  A    between atoms: C_4  and  O_27
REMARK    3  A    between atoms: C_6  and  C_7
REMARK    4  A    between atoms: C_8  and  O_26
REMARK    5  A    between atoms: C_15  and  O_25
REMARK    6  A    between atoms: C_16  and  C_19
REMARK    7  A    between atoms: C_17  and  O_18
REMARK    8  A    between atoms: C_19  and  C_20
REMARK    9  A    between atoms: C_19  and  O_23
REMARK   10  A    between atoms: C_19  and  O_24
REMARK   11  A    between atoms: C_20  and  O_21
REMARK   12  A    between atoms: C_20  and  O_22
REMARK                            x       y       z     vdW  Elec       q    Type
REMARK                         _______ _______ _______ _____ _____    ______ ____
ROOT
ATOM      1  C   UNL     1      -1.460  -2.473  -0.148  0.00  0.00    +0.181 A 
ATOM      2  O   UNL     1      -0.723  -3.626   0.120  0.00  0.00    -0.451 OA
ATOM      3  C   UNL     1      -1.312  -4.855  -0.073  0.00  0.00    +0.147 A 
ATOM      4  C   UNL     1      -0.502  -5.979   0.096  0.00  0.00    +0.093 A 
ATOM      5  C   UNL     1      -1.037  -7.263  -0.086  0.00  0.00    +0.135 A 
ATOM      6  C   UNL     1      -2.384  -7.470  -0.426  0.00  0.00    +0.126 A 
ATOM      7  C   UNL     1      -3.173  -6.312  -0.592  0.00  0.00    +0.146 A 
ATOM      8  C   UNL     1      -2.650  -5.016  -0.418  0.00  0.00    +0.110 A 
ATOM      9  C   UNL     1      -3.467  -3.798  -0.597  0.00  0.00    +0.238 A 
ATOM     10  O   UNL     1      -4.671  -3.826  -0.830  0.00  0.00    -0.283 OA
ATOM     11  C   UNL     1      -2.755  -2.496  -0.531  0.00  0.00    +0.208 A 
ENDROOT
BRANCH   1  13
ATOM     12  C   UNL     1      -1.290  -0.001   0.411  0.00  0.00    +0.015 A 
ATOM     13  C   UNL     1      -0.681  -1.207  -0.004  0.00  0.00    +0.025 A 
ATOM     14  C   UNL     1       0.691  -1.174  -0.297  0.00  0.00    +0.060 A 
ATOM     15  C   UNL     1       1.384   0.035  -0.263  0.00  0.00    +0.159 A 
ATOM     16  C   UNL     1       0.740   1.226   0.056  0.00  0.00    +0.158 A 
ATOM     17  C   UNL     1      -0.598   1.217   0.410  0.00  0.00    +0.050 A 
BRANCH  15  18
ATOM     18  O   UNL     1       2.716   0.049  -0.569  0.00  0.00    -0.503 OA
ATOM     19  H   UNL     1       2.979   0.987  -0.478  0.00  0.00    +0.292 HD
ENDBRANCH  15  18
BRANCH  16  20
ATOM     20  O   UNL     1       1.467   2.382   0.003  0.00  0.00    -0.503 OA
ATOM     21  H   UNL     1       0.861   3.131   0.146  0.00  0.00    +0.292 HD
ENDBRANCH  16  20
ENDBRANCH   1  13
BRANCH   5  22
ATOM     22  O   UNL     1      -0.232  -8.357   0.079  0.00  0.00    -0.506 OA
ATOM     23  H   UNL     1       0.671  -8.069   0.308  0.00  0.00    +0.292 HD
ENDBRANCH   5  22
BRANCH   7  24
ATOM     24  O   UNL     1      -4.484  -6.438  -0.963  0.00  0.00    -0.505 OA
ATOM     25  H   UNL     1      -4.831  -7.281  -0.601  0.00  0.00    +0.292 HD
ENDBRANCH   7  24
BRANCH  11  26
ATOM     26  O   UNL     1      -3.492  -1.384  -0.900  0.00  0.00    -0.501 OA
ATOM     27  H   UNL     1      -2.908  -0.787  -1.394  0.00  0.00    +0.292 HD
ENDBRANCH  11  26
BRANCH   6  28
ATOM     28  C   UNL     1      -2.959  -8.866  -0.683  0.00  0.00    +0.348 C 
BRANCH  28  29
ATOM     29  O   UNL     1      -4.353  -8.871  -0.323  0.00  0.00    -0.497 OA
ATOM     30  H   UNL     1      -4.786  -9.402  -1.024  0.00  0.00    +0.288 HD
ENDBRANCH  28  29
BRANCH  28  31
ATOM     31  O   UNL     1      -2.379  -9.904   0.110  0.00  0.00    -0.497 OA
ATOM     32  H   UNL     1      -1.627  -9.505   0.583  0.00  0.00    +0.288 HD
ENDBRANCH  28  31
BRANCH  28  33
ATOM     33  C   UNL     1      -2.819  -9.309  -2.191  0.00  0.00    +0.439 C 
BRANCH  33  34
ATOM     34  O   UNL     1      -3.662  -8.531  -3.025  0.00  0.00    -0.502 OA
ATOM     35  H   UNL     1      -3.178  -7.718  -3.249  0.00  0.00    +0.287 HD
ENDBRANCH  33  34
BRANCH  33  36
ATOM     36  O   UNL     1      -3.244 -10.668  -2.336  0.00  0.00    -0.502 OA
ATOM     37  H   UNL     1      -3.281 -11.032  -1.429  0.00  0.00    +0.287 HD
ENDBRANCH  33  36
ENDBRANCH  28  33
ENDBRANCH   6  28
TORSDOF 12
