REMARK  Name = 
REMARK  6 active torsions:
REMARK  status: ('A' for Active; 'I' for Inactive)
REMARK    1  A    between atoms: C_3  and  O_27
REMARK    2  A    between atoms: C_4  and  O_26
REMARK    3  A    between atoms: C_6  and  C_7
REMARK    4  A    between atoms: C_8  and  O_25
REMARK    5  A    between atoms: C_12  and  O_24
REMARK    6  A    between atoms: C_14  and  O_23
REMARK                            x       y       z     vdW  Elec       q    Type
REMARK                         _______ _______ _______ _____ _____    ______ ____
ROOT
ATOM      1  C   UNL     1      -1.399  -2.574  -0.082  0.00  0.00    +0.181 A 
ATOM      2  O   UNL     1      -0.656  -3.643   0.409  0.00  0.00    -0.447 OA
ATOM      3  C   UNL     1      -1.220  -4.889   0.367  0.00  0.00    +0.191 A 
ATOM      4  C   UNL     1      -2.401  -5.148  -0.317  0.00  0.00    +0.117 A 
ATOM      5  C   UNL     1      -2.682  -6.472  -0.656  0.00  0.00    +0.180 A 
ATOM      6  C   UNL     1      -1.822  -7.460  -0.176  0.00  0.00    +0.247 A 
ATOM      7  O   UNL     1      -0.810  -7.829  -1.146  0.00  0.00    -0.309 OA
ATOM      8  S   UNL     1       0.792  -7.441  -0.795  0.00  0.00    +0.300 S 
ATOM      9  O   UNL     1       1.398  -8.615  -0.197  0.00  0.00    -0.097 OA
ATOM     10  O   UNL     1       1.375  -6.867  -1.996  0.00  0.00    -0.097 OA
ATOM     11  O   UNL     1       0.741  -6.222   0.352  0.00  0.00    -0.309 OA
ATOM     12  C   UNL     1      -1.228  -7.191   1.026  0.00  0.00    +0.215 A 
ATOM     13  C   UNL     1      -3.215  -4.029  -0.781  0.00  0.00    +0.238 A 
ATOM     14  O   UNL     1      -4.316  -4.253  -1.272  0.00  0.00    -0.283 OA
ATOM     15  C   UNL     1      -0.546  -5.998   0.906  0.00  0.00    +0.247 A 
ATOM     16  C   UNL     1      -2.629  -2.670  -0.631  0.00  0.00    +0.208 A 
ENDROOT
BRANCH   1  18
ATOM     17  C   UNL     1      -0.852  -0.470   1.166  0.00  0.00    +0.015 A 
ATOM     18  C   UNL     1      -0.712  -1.275   0.021  0.00  0.00    +0.025 A 
ATOM     19  C   UNL     1       0.033  -0.798  -1.066  0.00  0.00    +0.060 A 
ATOM     20  C   UNL     1       0.606   0.464  -1.004  0.00  0.00    +0.159 A 
ATOM     21  C   UNL     1       0.453   1.266   0.123  0.00  0.00    +0.158 A 
ATOM     22  C   UNL     1      -0.268   0.803   1.218  0.00  0.00    +0.050 A 
BRANCH  20  23
ATOM     23  O   UNL     1       1.315   0.924  -2.078  0.00  0.00    -0.503 OA
ATOM     24  H   UNL     1       1.633   1.809  -1.809  0.00  0.00    +0.292 HD
ENDBRANCH  20  23
BRANCH  21  25
ATOM     25  O   UNL     1       1.019   2.510   0.096  0.00  0.00    -0.503 OA
ATOM     26  H   UNL     1       0.775   2.979   0.912  0.00  0.00    +0.292 HD
ENDBRANCH  21  25
ENDBRANCH   1  18
BRANCH   5  27
ATOM     27  O   UNL     1      -3.710  -6.837  -1.476  0.00  0.00    -0.503 OA
ATOM     28  H   UNL     1      -4.299  -6.056  -1.600  0.00  0.00    +0.292 HD
ENDBRANCH   5  27
BRANCH  12  29
ATOM     29  O   UNL     1      -0.649  -8.208   1.735  0.00  0.00    -0.501 OA
ATOM     30  H   UNL     1      -1.003  -9.064   1.427  0.00  0.00    +0.292 HD
ENDBRANCH  12  29
BRANCH  16  31
ATOM     31  O   UNL     1      -3.376  -1.604  -1.098  0.00  0.00    -0.501 OA
ATOM     32  H   UNL     1      -2.843  -0.792  -1.069  0.00  0.00    +0.292 HD
ENDBRANCH  16  31
TORSDOF 6
