REMARK  Name = 
REMARK  9 active torsions:
REMARK  status: ('A' for Active; 'I' for Inactive)
REMARK    1  A    between atoms: C_1  and  C_2
REMARK    2  A    between atoms: C_2  and  C_3
REMARK    3  A    between atoms: C_2  and  O_25
REMARK    4  A    between atoms: C_4  and  O_24
REMARK    5  A    between atoms: C_8  and  O_9
REMARK    6  A    between atoms: C_11  and  C_16
REMARK    7  A    between atoms: C_12  and  O_15
REMARK    8  A    between atoms: C_18  and  O_23
REMARK    9  A    between atoms: C_19  and  O_22
REMARK                            x       y       z     vdW  Elec       q    Type
REMARK                         _______ _______ _______ _____ _____    ______ ____
ROOT
ATOM      1  C   UNL     1       2.925  -0.266   1.364  0.00  0.00    +0.064 A 
ATOM      2  C   UNL     1       2.995  -1.533   1.974  0.00  0.00    +0.129 A 
ATOM      3  C   UNL     1       3.396  -1.699   3.303  0.00  0.00    +0.093 A 
ATOM      4  C   UNL     1       3.748  -0.586   4.067  0.00  0.00    +0.147 A 
ATOM      5  O   UNL     1       4.099  -0.827   5.377  0.00  0.00    -0.451 OA
ATOM      6  C   UNL     1       4.494   0.243   6.174  0.00  0.00    +0.181 A 
ATOM      7  C   UNL     1       4.609   1.500   5.712  0.00  0.00    +0.208 A 
ATOM      8  C   UNL     1       4.245   1.802   4.305  0.00  0.00    +0.238 A 
ATOM      9  O   UNL     1       4.461   2.937   3.893  0.00  0.00    -0.283 OA
ATOM     10  C   UNL     1       3.726   0.682   3.490  0.00  0.00    +0.110 A 
ATOM     11  C   UNL     1       3.283   0.845   2.158  0.00  0.00    +0.140 A 
ENDROOT
BRANCH   6  12
ATOM     12  C   UNL     1       4.924  -0.120   7.550  0.00  0.00    +0.025 A 
ATOM     13  C   UNL     1       5.580  -1.339   7.802  0.00  0.00    +0.015 A 
ATOM     14  C   UNL     1       6.108  -1.630   9.065  0.00  0.00    +0.050 A 
ATOM     15  C   UNL     1       6.000  -0.694  10.082  0.00  0.00    +0.158 A 
ATOM     16  C   UNL     1       5.335   0.504   9.867  0.00  0.00    +0.159 A 
ATOM     17  C   UNL     1       4.769   0.772   8.632  0.00  0.00    +0.060 A 
BRANCH  15  18
ATOM     18  O   UNL     1       6.578  -0.940  11.292  0.00  0.00    -0.503 OA
ATOM     19  H   UNL     1       6.415  -0.127  11.813  0.00  0.00    +0.292 HD
ENDBRANCH  15  18
BRANCH  16  20
ATOM     20  O   UNL     1       5.304   1.411  10.889  0.00  0.00    -0.503 OA
ATOM     21  H   UNL     1       4.969   2.252  10.529  0.00  0.00    +0.292 HD
ENDBRANCH  16  20
ENDBRANCH   6  12
BRANCH   1  23
ATOM     22  C   UNL     1       0.887   0.020  -0.086  0.00  0.00    +0.043 C 
ATOM     23  C   UNL     1       2.405  -0.101  -0.060  0.00  0.00    +0.149 C 
BRANCH  23  24
ATOM     24  O   UNL     1       2.792  -1.162  -0.934  0.00  0.00    -0.387 OA
ATOM     25  H   UNL     1       2.721  -1.987  -0.413  0.00  0.00    +0.210 HD
ENDBRANCH  23  24
ENDBRANCH   1  23
BRANCH   2  26
ATOM     26  O   UNL     1       2.642  -2.637   1.240  0.00  0.00    -0.506 OA
ATOM     27  H   UNL     1       2.727  -3.434   1.793  0.00  0.00    +0.292 HD
ENDBRANCH   2  26
BRANCH   7  28
ATOM     28  O   UNL     1       5.168   2.534   6.447  0.00  0.00    -0.501 OA
ATOM     29  H   UNL     1       5.468   3.185   5.779  0.00  0.00    +0.292 HD
ENDBRANCH   7  28
BRANCH  11  30
ATOM     30  O   UNL     1       3.150   2.126   1.689  0.00  0.00    -0.505 OA
ATOM     31  H   UNL     1       3.200   2.176   0.723  0.00  0.00    +0.292 HD
ENDBRANCH  11  30
TORSDOF 8
