REMARK  Name = 
REMARK  13 active torsions:
REMARK  status: ('A' for Active; 'I' for Inactive)
REMARK    1  A    between atoms: C_3  and  O_37
REMARK    2  A    between atoms: C_4  and  O_36
REMARK    3  A    between atoms: C_6  and  C_7
REMARK    4  A    between atoms: C_8  and  O_35
REMARK    5  A    between atoms: C_15  and  O_34
REMARK    6  A    between atoms: C_16  and  C_19
REMARK    7  A    between atoms: C_17  and  O_18
REMARK    8  A    between atoms: C_19  and  O_33
REMARK    9  A    between atoms: C_20  and  O_32
REMARK   10  A    between atoms: C_22  and  O_31
REMARK   11  A    between atoms: C_24  and  C_29
REMARK   12  A    between atoms: C_27  and  O_28
REMARK   13  A    between atoms: C_29  and  O_30
REMARK                            x       y       z     vdW  Elec       q    Type
REMARK                         _______ _______ _______ _____ _____    ______ ____
ROOT
ATOM      1  C   UNL     1      -2.640  -7.595  -7.191  0.00  0.00    +0.181 A 
ATOM      2  O   UNL     1      -2.154  -8.687  -6.467  0.00  0.00    -0.451 OA
ATOM      3  C   UNL     1      -2.282  -8.692  -5.099  0.00  0.00    +0.147 A 
ATOM      4  C   UNL     1      -1.829  -9.824  -4.400  0.00  0.00    +0.093 A 
ATOM      5  C   UNL     1      -2.002  -9.930  -3.007  0.00  0.00    +0.130 A 
ATOM      6  C   UNL     1      -2.639  -8.924  -2.290  0.00  0.00    +0.075 A 
ATOM      7  C   UNL     1      -3.083  -7.792  -3.041  0.00  0.00    +0.141 A 
ATOM      8  C   UNL     1      -2.869  -7.647  -4.412  0.00  0.00    +0.110 A 
ATOM      9  C   UNL     1      -3.219  -6.415  -5.141  0.00  0.00    +0.238 A 
ATOM     10  O   UNL     1      -3.531  -5.363  -4.576  0.00  0.00    -0.283 OA
ATOM     11  C   UNL     1      -3.141  -6.477  -6.623  0.00  0.00    +0.208 A 
ENDROOT
BRANCH   1  13
ATOM     12  C   UNL     1      -2.229  -6.745  -9.549  0.00  0.00    +0.015 A 
ATOM     13  C   UNL     1      -2.558  -7.792  -8.663  0.00  0.00    +0.025 A 
ATOM     14  C   UNL     1      -2.813  -9.061  -9.209  0.00  0.00    +0.060 A 
ATOM     15  C   UNL     1      -2.789  -9.247 -10.587  0.00  0.00    +0.159 A 
ATOM     16  C   UNL     1      -2.526  -8.188 -11.449  0.00  0.00    +0.158 A 
ATOM     17  C   UNL     1      -2.235  -6.932 -10.938  0.00  0.00    +0.050 A 
BRANCH  15  18
ATOM     18  O   UNL     1      -3.039 -10.490 -11.095  0.00  0.00    -0.503 OA
ATOM     19  H   UNL     1      -2.956 -10.382 -12.064  0.00  0.00    +0.292 HD
ENDBRANCH  15  18
BRANCH  16  20
ATOM     20  O   UNL     1      -2.566  -8.433 -12.792  0.00  0.00    -0.503 OA
ATOM     21  H   UNL     1      -2.473  -7.586 -13.261  0.00  0.00    +0.292 HD
ENDBRANCH  16  20
ENDBRANCH   1  13
BRANCH   6  22
ATOM     22  C   UNL     1      -2.981  -8.980  -0.805  0.00  0.00    +0.176 C 
ATOM     23  C   UNL     1      -2.781 -10.144   0.233  0.00  0.00    +0.287 C 
ATOM     24  O   UNL     1      -3.555  -9.854   1.439  0.00  0.00    -0.340 OA
ATOM     25  C   UNL     1      -3.410  -8.533   2.025  0.00  0.00    +0.178 C 
ATOM     26  C   UNL     1      -3.314  -7.374   1.016  0.00  0.00    +0.177 C 
ATOM     27  C   UNL     1      -2.312  -7.791  -0.034  0.00  0.00    +0.187 C 
BRANCH  22  28
ATOM     28  O   UNL     1      -4.443  -8.888  -0.864  0.00  0.00    -0.376 OA
ATOM     29  H   UNL     1      -4.757  -9.694  -1.312  0.00  0.00    +0.211 HD
ENDBRANCH  22  28
BRANCH  23  30
ATOM     30  O   UNL     1      -1.437 -10.353   0.630  0.00  0.00    -0.364 OA
ATOM     31  H   UNL     1      -1.493 -10.513   1.589  0.00  0.00    +0.213 HD
ENDBRANCH  23  30
BRANCH  26  32
ATOM     32  O   UNL     1      -2.907  -6.146   1.631  0.00  0.00    -0.386 OA
ATOM     33  H   UNL     1      -2.731  -5.548   0.872  0.00  0.00    +0.210 HD
ENDBRANCH  26  32
BRANCH  27  34
ATOM     34  O   UNL     1      -1.915  -6.627  -0.802  0.00  0.00    -0.386 OA
ATOM     35  H   UNL     1      -1.041  -6.866  -1.178  0.00  0.00    +0.210 HD
ENDBRANCH  27  34
BRANCH  25  36
ATOM     36  C   UNL     1      -4.586  -8.239   2.976  0.00  0.00    +0.190 C 
BRANCH  36  37
ATOM     37  O   UNL     1      -4.422  -7.007   3.681  0.00  0.00    -0.392 OA
ATOM     38  H   UNL     1      -4.016  -6.358   3.062  0.00  0.00    +0.210 HD
ENDBRANCH  36  37
ENDBRANCH  25  36
ENDBRANCH   6  22
BRANCH   5  39
ATOM     39  O   UNL     1      -1.589 -11.047  -2.348  0.00  0.00    -0.506 OA
ATOM     40  H   UNL     1      -1.287 -11.715  -2.988  0.00  0.00    +0.292 HD
ENDBRANCH   5  39
BRANCH   7  41
ATOM     41  O   UNL     1      -3.798  -6.806  -2.412  0.00  0.00    -0.505 OA
ATOM     42  H   UNL     1      -3.170  -6.338  -1.819  0.00  0.00    +0.292 HD
ENDBRANCH   7  41
BRANCH  11  43
ATOM     43  O   UNL     1      -3.619  -5.370  -7.303  0.00  0.00    -0.501 OA
ATOM     44  H   UNL     1      -4.059  -5.674  -8.112  0.00  0.00    +0.292 HD
ENDBRANCH  11  43
TORSDOF 13
