REMARK  Name = 
REMARK  10 active torsions:
REMARK  status: ('A' for Active; 'I' for Inactive)
REMARK    1  A    between atoms: C_1  and  C_2
REMARK    2  A    between atoms: C_2  and  C_4
REMARK    3  A    between atoms: C_4  and  O_6
REMARK    4  A    between atoms: O_6  and  C_7
REMARK    5  A    between atoms: C_8  and  O_28
REMARK    6  A    between atoms: C_12  and  O_13
REMARK    7  A    between atoms: C_15  and  C_20
REMARK    8  A    between atoms: C_16  and  O_19
REMARK    9  A    between atoms: C_22  and  O_27
REMARK   10  A    between atoms: C_23  and  O_26
REMARK                            x       y       z     vdW  Elec       q    Type
REMARK                         _______ _______ _______ _____ _____    ______ ____
ROOT
ATOM      1  C   UNL     1       5.273   1.755   2.007  0.00  0.00    +0.215 A 
ATOM      2  C   UNL     1       6.149   1.398   3.034  0.00  0.00    +0.166 A 
ATOM      3  C   UNL     1       6.642   2.367   3.906  0.00  0.00    +0.096 A 
ATOM      4  C   UNL     1       6.286   3.710   3.723  0.00  0.00    +0.147 A 
ATOM      5  O   UNL     1       6.794   4.612   4.635  0.00  0.00    -0.451 OA
ATOM      6  C   UNL     1       6.515   5.964   4.469  0.00  0.00    +0.181 A 
ATOM      7  C   UNL     1       5.830   6.453   3.412  0.00  0.00    +0.208 A 
ATOM      8  C   UNL     1       5.231   5.518   2.429  0.00  0.00    +0.238 A 
ATOM      9  O   UNL     1       4.620   5.956   1.462  0.00  0.00    -0.283 OA
ATOM     10  C   UNL     1       5.467   4.080   2.649  0.00  0.00    +0.113 A 
ATOM     11  C   UNL     1       4.956   3.096   1.788  0.00  0.00    +0.178 A 
ENDROOT
BRANCH   6  12
ATOM     12  C   UNL     1       7.093   6.859   5.518  0.00  0.00    +0.025 A 
ATOM     13  C   UNL     1       8.315   6.570   6.155  0.00  0.00    +0.015 A 
ATOM     14  C   UNL     1       8.908   7.493   7.034  0.00  0.00    +0.050 A 
ATOM     15  C   UNL     1       8.291   8.714   7.261  0.00  0.00    +0.158 A 
ATOM     16  C   UNL     1       7.063   8.997   6.684  0.00  0.00    +0.159 A 
ATOM     17  C   UNL     1       6.440   8.058   5.871  0.00  0.00    +0.060 A 
BRANCH  15  18
ATOM     18  O   UNL     1       8.906   9.651   8.040  0.00  0.00    -0.503 OA
ATOM     19  H   UNL     1       8.305  10.423   8.022  0.00  0.00    +0.292 HD
ENDBRANCH  15  18
BRANCH  16  20
ATOM     20  O   UNL     1       6.517  10.231   6.901  0.00  0.00    -0.503 OA
ATOM     21  H   UNL     1       5.762  10.342   6.296  0.00  0.00    +0.292 HD
ENDBRANCH  16  20
ENDBRANCH   6  12
BRANCH   2  22
ATOM     22  O   UNL     1       6.543   0.092   3.145  0.00  0.00    -0.503 OA
ATOM     23  H   UNL     1       7.168   0.005   3.885  0.00  0.00    +0.292 HD
ENDBRANCH   2  22
BRANCH   7  24
ATOM     24  O   UNL     1       5.652   7.801   3.153  0.00  0.00    -0.501 OA
ATOM     25  H   UNL     1       6.523   8.226   3.235  0.00  0.00    +0.292 HD
ENDBRANCH   7  24
BRANCH  11  26
ATOM     26  O   UNL     1       4.171   3.429   0.720  0.00  0.00    -0.503 OA
ATOM     27  H   UNL     1       4.066   2.650   0.147  0.00  0.00    +0.292 HD
ENDBRANCH  11  26
BRANCH   1  28
ATOM     28  O   UNL     1       4.822   0.811   1.072  0.00  0.00    -0.413 OA
BRANCH  28  29
ATOM     29  C   UNL     1       4.310  -0.333   1.639  0.00  0.00    +0.380 C 
ATOM     30  O   UNL     1       3.577  -0.432   2.614  0.00  0.00    -0.241 OA
BRANCH  29  32
ATOM     31  C   UNL     1       4.527  -2.884   1.411  0.00  0.00    +0.099 C 
ATOM     32  C   UNL     1       4.848  -1.530   0.853  0.00  0.00    +0.237 C 
ATOM     33  O   UNL     1       5.509  -1.370  -0.167  0.00  0.00    -0.285 OA
ENDBRANCH  29  32
ENDBRANCH  28  29
ENDBRANCH   1  28
TORSDOF 9
