REMARK  Name = 
REMARK  6 active torsions:
REMARK  status: ('A' for Active; 'I' for Inactive)
REMARK    1  A    between atoms: C_3  and  O_22
REMARK    2  A    between atoms: C_4  and  O_21
REMARK    3  A    between atoms: C_6  and  C_7
REMARK    4  A    between atoms: C_8  and  O_20
REMARK    5  A    between atoms: C_12  and  O_19
REMARK    6  A    between atoms: C_14  and  O_18
REMARK                            x       y       z     vdW  Elec       q    Type
REMARK                         _______ _______ _______ _____ _____    ______ ____
ROOT
ATOM      1  C   UNL     1      -1.490  -2.568  -0.121  0.00  0.00    +0.240 C 
ATOM      2  O   UNL     1      -0.560  -3.648  -0.374  0.00  0.00    -0.480 OA
ATOM      3  C   UNL     1      -1.106  -4.906  -0.375  0.00  0.00    +0.139 A 
ATOM      4  C   UNL     1      -2.343  -5.208   0.213  0.00  0.00    +0.103 A 
ATOM      5  C   UNL     1      -2.855  -6.504   0.150  0.00  0.00    +0.134 A 
ATOM      6  C   UNL     1      -2.131  -7.523  -0.449  0.00  0.00    +0.091 A 
ATOM      7  C   UNL     1      -0.885  -7.225  -0.999  0.00  0.00    +0.124 A 
ATOM      8  C   UNL     1      -3.069  -4.126   0.889  0.00  0.00    +0.202 C 
ATOM      9  O   UNL     1      -4.252  -4.267   1.189  0.00  0.00    -0.289 OA
ATOM     10  C   UNL     1      -0.372  -5.924  -0.964  0.00  0.00    +0.092 A 
ATOM     11  C   UNL     1      -2.290  -2.851   1.158  0.00  0.00    +0.230 C 
ENDROOT
BRANCH   1  13
ATOM     12  C   UNL     1      -1.465  -0.006  -0.054  0.00  0.00    +0.011 A 
ATOM     13  C   UNL     1      -0.749  -1.225  -0.097  0.00  0.00    -0.001 A 
ATOM     14  C   UNL     1       0.646  -1.157  -0.196  0.00  0.00    +0.056 A 
ATOM     15  C   UNL     1       1.280   0.077  -0.310  0.00  0.00    +0.159 A 
ATOM     16  C   UNL     1       0.559   1.265  -0.283  0.00  0.00    +0.158 A 
ATOM     17  C   UNL     1      -0.818   1.235  -0.133  0.00  0.00    +0.049 A 
BRANCH  15  18
ATOM     18  O   UNL     1       2.638   0.096  -0.463  0.00  0.00    -0.503 OA
ATOM     19  H   UNL     1       2.875   1.030  -0.638  0.00  0.00    +0.292 HD
ENDBRANCH  15  18
BRANCH  16  20
ATOM     20  O   UNL     1       1.254   2.438  -0.375  0.00  0.00    -0.503 OA
ATOM     21  H   UNL     1       0.625   3.181  -0.427  0.00  0.00    +0.292 HD
ENDBRANCH  16  20
ENDBRANCH   1  13
BRANCH   5  22
ATOM     22  O   UNL     1      -4.075  -6.852   0.674  0.00  0.00    -0.506 OA
ATOM     23  H   UNL     1      -4.516  -6.039   1.007  0.00  0.00    +0.292 HD
ENDBRANCH   5  22
BRANCH   7  24
ATOM     24  O   UNL     1      -0.128  -8.195  -1.595  0.00  0.00    -0.507 OA
ATOM     25  H   UNL     1      -0.593  -9.046  -1.528  0.00  0.00    +0.292 HD
ENDBRANCH   7  24
BRANCH  11  26
ATOM     26  O   UNL     1      -3.219  -1.810   1.481  0.00  0.00    -0.380 OA
ATOM     27  H   UNL     1      -4.104  -2.116   1.198  0.00  0.00    +0.211 HD
ENDBRANCH  11  26
TORSDOF 6
REMARK  Name = 
REMARK  6 active torsions:
REMARK  status: ('A' for Active; 'I' for Inactive)
REMARK    1  A    between atoms: C_3  and  O_22
REMARK    2  A    between atoms: C_4  and  O_21
REMARK    3  A    between atoms: C_6  and  C_7
REMARK    4  A    between atoms: C_8  and  O_20
REMARK    5  A    between atoms: C_12  and  O_19
REMARK    6  A    between atoms: C_14  and  O_18
REMARK                            x       y       z     vdW  Elec       q    Type
REMARK                         _______ _______ _______ _____ _____    ______ ____
ROOT
ATOM      1  O   HOH     1       1.750   1.961   2.566  0.00  0.00    -0.410 OA
ATOM      2  H   HOH     0       1.009   2.404   2.128  0.00  0.00    +0.205 HD
ATOM      3  H   HOH     0       2.412   1.904   1.852  0.00  0.00    +0.205 HD
ENDROOT
TORSDOF 0
REMARK  Name = 
REMARK  6 active torsions:
REMARK  status: ('A' for Active; 'I' for Inactive)
REMARK    1  A    between atoms: C_3  and  O_22
REMARK    2  A    between atoms: C_4  and  O_21
REMARK    3  A    between atoms: C_6  and  C_7
REMARK    4  A    between atoms: C_8  and  O_20
REMARK    5  A    between atoms: C_12  and  O_19
REMARK    6  A    between atoms: C_14  and  O_18
REMARK                            x       y       z     vdW  Elec       q    Type
REMARK                         _______ _______ _______ _____ _____    ______ ____
ROOT
ATOM      1  O   HOH     1       3.099  -1.245   2.255  0.00  0.00    -0.410 OA
ATOM      2  H   HOH     0       2.158  -1.418   2.461  0.00  0.00    +0.205 HD
ATOM      3  H   HOH     0       3.067  -0.994   1.317  0.00  0.00    +0.205 HD
ENDROOT
TORSDOF 0
REMARK  Name = 
REMARK  6 active torsions:
REMARK  status: ('A' for Active; 'I' for Inactive)
REMARK    1  A    between atoms: C_3  and  O_22
REMARK    2  A    between atoms: C_4  and  O_21
REMARK    3  A    between atoms: C_6  and  C_7
REMARK    4  A    between atoms: C_8  and  O_20
REMARK    5  A    between atoms: C_12  and  O_19
REMARK    6  A    between atoms: C_14  and  O_18
REMARK                            x       y       z     vdW  Elec       q    Type
REMARK                         _______ _______ _______ _____ _____    ______ ____
ROOT
ATOM      1  O   HOH     1      -0.425  -0.231  -3.284  0.00  0.00    -0.410 OA
ATOM      2  H   HOH     0       0.055   0.558  -3.582  0.00  0.00    +0.205 HD
ATOM      3  H   HOH     0      -0.998   0.108  -2.581  0.00  0.00    +0.205 HD
ENDROOT
TORSDOF 0
REMARK  Name = 
REMARK  6 active torsions:
REMARK  status: ('A' for Active; 'I' for Inactive)
REMARK    1  A    between atoms: C_3  and  O_22
REMARK    2  A    between atoms: C_4  and  O_21
REMARK    3  A    between atoms: C_6  and  C_7
REMARK    4  A    between atoms: C_8  and  O_20
REMARK    5  A    between atoms: C_12  and  O_19
REMARK    6  A    between atoms: C_14  and  O_18
REMARK                            x       y       z     vdW  Elec       q    Type
REMARK                         _______ _______ _______ _____ _____    ______ ____
ROOT
ATOM      1  O   HOH     1       0.411  -0.511   2.949  0.00  0.00    -0.410 OA
ATOM      2  H   HOH     0      -0.374  -0.064   2.587  0.00  0.00    +0.205 HD
ATOM      3  H   HOH     0       1.036   0.240   3.072  0.00  0.00    +0.205 HD
ENDROOT
TORSDOF 0
REMARK  Name = 
REMARK  6 active torsions:
REMARK  status: ('A' for Active; 'I' for Inactive)
REMARK    1  A    between atoms: C_3  and  O_22
REMARK    2  A    between atoms: C_4  and  O_21
REMARK    3  A    between atoms: C_6  and  C_7
REMARK    4  A    between atoms: C_8  and  O_20
REMARK    5  A    between atoms: C_12  and  O_19
REMARK    6  A    between atoms: C_14  and  O_18
REMARK                            x       y       z     vdW  Elec       q    Type
REMARK                         _______ _______ _______ _____ _____    ______ ____
ROOT
ATOM      1  O   HOH     1       1.887  -1.861  -3.086  0.00  0.00    -0.410 OA
ATOM      2  H   HOH     0       0.973  -1.506  -3.077  0.00  0.00    +0.205 HD
ATOM      3  H   HOH     0       2.287  -1.444  -2.307  0.00  0.00    +0.205 HD
ENDROOT
TORSDOF 0
