REMARK  Name = 
REMARK  11 active torsions:
REMARK  status: ('A' for Active; 'I' for Inactive)
REMARK    1  A    between atoms: C_1  and  C_2
REMARK    2  A    between atoms: C_2  and  C_3
REMARK    3  A    between atoms: C_2  and  O_28
REMARK    4  A    between atoms: C_3  and  O_5
REMARK    5  A    between atoms: O_5  and  C_6
REMARK    6  A    between atoms: C_7  and  O_27
REMARK    7  A    between atoms: C_11  and  O_12
REMARK    8  A    between atoms: C_14  and  C_19
REMARK    9  A    between atoms: C_15  and  O_18
REMARK   10  A    between atoms: C_21  and  O_26
REMARK   11  A    between atoms: C_22  and  O_25
REMARK                            x       y       z     vdW  Elec       q    Type
REMARK                         _______ _______ _______ _____ _____    ______ ____
ROOT
ATOM      1  C   UNL     1       3.354   3.762  -0.861  0.00  0.00    +0.215 A 
ATOM      2  C   UNL     1       4.690   4.137  -0.698  0.00  0.00    +0.166 A 
ATOM      3  C   UNL     1       5.028   5.479  -0.557  0.00  0.00    +0.096 A 
ATOM      4  C   UNL     1       4.024   6.453  -0.623  0.00  0.00    +0.147 A 
ATOM      5  O   UNL     1       4.441   7.758  -0.490  0.00  0.00    -0.451 OA
ATOM      6  C   UNL     1       3.536   8.780  -0.741  0.00  0.00    +0.181 A 
ATOM      7  C   UNL     1       2.239   8.563  -1.051  0.00  0.00    +0.208 A 
ATOM      8  C   UNL     1       1.701   7.171  -1.010  0.00  0.00    +0.238 A 
ATOM      9  O   UNL     1       0.503   6.968  -1.159  0.00  0.00    -0.283 OA
ATOM     10  C   UNL     1       2.691   6.089  -0.837  0.00  0.00    +0.113 A 
ATOM     11  C   UNL     1       2.352   4.731  -0.945  0.00  0.00    +0.178 A 
ENDROOT
BRANCH   6  12
ATOM     12  C   UNL     1       4.132  10.146  -0.684  0.00  0.00    +0.025 A 
ATOM     13  C   UNL     1       5.459  10.376  -1.089  0.00  0.00    +0.015 A 
ATOM     14  C   UNL     1       5.978  11.676  -1.154  0.00  0.00    +0.050 A 
ATOM     15  C   UNL     1       5.166  12.752  -0.832  0.00  0.00    +0.158 A 
ATOM     16  C   UNL     1       3.872  12.543  -0.377  0.00  0.00    +0.159 A 
ATOM     17  C   UNL     1       3.372  11.253  -0.250  0.00  0.00    +0.060 A 
BRANCH  15  18
ATOM     18  O   UNL     1       5.639  14.022  -0.984  0.00  0.00    -0.503 OA
ATOM     19  H   UNL     1       4.887  14.598  -0.740  0.00  0.00    +0.292 HD
ENDBRANCH  15  18
BRANCH  16  20
ATOM     20  O   UNL     1       3.105  13.642  -0.101  0.00  0.00    -0.503 OA
ATOM     21  H   UNL     1       2.198  13.346   0.094  0.00  0.00    +0.292 HD
ENDBRANCH  16  20
ENDBRANCH   6  12
BRANCH   2  22
ATOM     22  O   UNL     1       5.667   3.184  -0.744  0.00  0.00    -0.503 OA
ATOM     23  H   UNL     1       6.496   3.545  -0.385  0.00  0.00    +0.292 HD
ENDBRANCH   2  22
BRANCH   7  24
ATOM     24  O   UNL     1       1.342   9.551  -1.433  0.00  0.00    -0.501 OA
ATOM     25  H   UNL     1       1.833  10.218  -1.940  0.00  0.00    +0.292 HD
ENDBRANCH   7  24
BRANCH  11  26
ATOM     26  O   UNL     1       1.065   4.337  -1.180  0.00  0.00    -0.503 OA
ATOM     27  H   UNL     1       1.033   3.366  -1.219  0.00  0.00    +0.292 HD
ENDBRANCH  11  26
BRANCH   1  28
ATOM     28  O   UNL     1       3.000   2.430  -1.132  0.00  0.00    -0.417 OA
BRANCH  28  29
ATOM     29  C   UNL     1       3.580   1.484  -0.290  0.00  0.00    +0.341 C 
ATOM     30  O   UNL     1       3.660   1.556   0.928  0.00  0.00    -0.247 OA
BRANCH  29  32
ATOM     31  C   UNL     1       2.983  -0.373  -1.891  0.00  0.00    +0.050 C 
ATOM     32  C   UNL     1       4.109   0.321  -1.151  0.00  0.00    +0.220 C 
BRANCH  32  33
ATOM     33  O   UNL     1       4.828  -0.653  -0.399  0.00  0.00    -0.381 OA
ATOM     34  H   UNL     1       4.411  -0.705   0.481  0.00  0.00    +0.210 HD
ENDBRANCH  32  33
ENDBRANCH  29  32
ENDBRANCH  28  29
ENDBRANCH   1  28
TORSDOF 10
