REMARK  Name = 
REMARK  13 active torsions:
REMARK  status: ('A' for Active; 'I' for Inactive)
REMARK    1  A    between atoms: C_3  and  O_38
REMARK    2  A    between atoms: C_4  and  O_37
REMARK    3  A    between atoms: C_6  and  C_7
REMARK    4  A    between atoms: C_8  and  O_36
REMARK    5  A    between atoms: C_15  and  O_35
REMARK    6  A    between atoms: C_16  and  C_19
REMARK    7  A    between atoms: C_17  and  O_18
REMARK    8  A    between atoms: C_19  and  O_34
REMARK    9  A    between atoms: C_20  and  O_33
REMARK   10  A    between atoms: C_22  and  O_32
REMARK   11  A    between atoms: C_24  and  O_31
REMARK   12  A    between atoms: C_26  and  C_29
REMARK   13  A    between atoms: C_29  and  O_30
REMARK                            x       y       z     vdW  Elec       q    Type
REMARK                         _______ _______ _______ _____ _____    ______ ____
ROOT
ATOM      1  C   UNL     1      -1.359  -2.538  -0.155  0.00  0.00    +0.181 A 
ATOM      2  O   UNL     1      -0.605  -3.710  -0.005  0.00  0.00    -0.451 OA
ATOM      3  C   UNL     1      -1.219  -4.929  -0.201  0.00  0.00    +0.147 A 
ATOM      4  C   UNL     1      -0.438  -6.101  -0.133  0.00  0.00    +0.093 A 
ATOM      5  C   UNL     1      -1.023  -7.378  -0.286  0.00  0.00    +0.132 A 
ATOM      6  C   UNL     1      -2.390  -7.522  -0.527  0.00  0.00    +0.097 A 
ATOM      7  C   UNL     1      -3.144  -6.313  -0.640  0.00  0.00    +0.143 A 
ATOM      8  C   UNL     1      -2.577  -5.046  -0.462  0.00  0.00    +0.110 A 
ATOM      9  C   UNL     1      -3.394  -3.820  -0.562  0.00  0.00    +0.238 A 
ATOM     10  O   UNL     1      -4.608  -3.810  -0.747  0.00  0.00    -0.283 OA
ATOM     11  C   UNL     1      -2.673  -2.538  -0.469  0.00  0.00    +0.208 A 
ENDROOT
BRANCH   1  13
ATOM     12  C   UNL     1      -1.215  -0.081   0.488  0.00  0.00    +0.015 A 
ATOM     13  C   UNL     1      -0.597  -1.260   0.006  0.00  0.00    +0.025 A 
ATOM     14  C   UNL     1       0.753  -1.179  -0.358  0.00  0.00    +0.060 A 
ATOM     15  C   UNL     1       1.412   0.050  -0.321  0.00  0.00    +0.159 A 
ATOM     16  C   UNL     1       0.755   1.213   0.070  0.00  0.00    +0.158 A 
ATOM     17  C   UNL     1      -0.561   1.156   0.490  0.00  0.00    +0.050 A 
BRANCH  15  18
ATOM     18  O   UNL     1       2.723   0.113  -0.700  0.00  0.00    -0.503 OA
ATOM     19  H   UNL     1       2.963   1.056  -0.594  0.00  0.00    +0.292 HD
ENDBRANCH  15  18
BRANCH  16  20
ATOM     20  O   UNL     1       1.446   2.391   0.018  0.00  0.00    -0.503 OA
ATOM     21  H   UNL     1       0.829   3.115   0.224  0.00  0.00    +0.292 HD
ENDBRANCH  16  20
ENDBRANCH   1  13
BRANCH   6  22
ATOM     22  C   UNL     1      -3.160  -8.823  -0.679  0.00  0.00    +0.231 C 
ATOM     23  O   UNL     1      -4.334  -8.715   0.152  0.00  0.00    -0.334 OA
ATOM     24  C   UNL     1      -4.205  -9.161   1.513  0.00  0.00    +0.178 C 
ATOM     25  C   UNL     1      -3.964 -10.672   1.500  0.00  0.00    +0.177 C 
ATOM     26  C   UNL     1      -2.693 -11.011   0.698  0.00  0.00    +0.179 C 
ATOM     27  C   UNL     1      -2.683 -10.313  -0.670  0.00  0.00    +0.209 C 
BRANCH  22  28
ATOM     28  O   UNL     1      -3.682  -8.667  -2.032  0.00  0.00    -0.359 OA
ATOM     29  H   UNL     1      -2.994  -9.024  -2.630  0.00  0.00    +0.213 HD
ENDBRANCH  22  28
BRANCH  25  30
ATOM     30  O   UNL     1      -3.890 -11.203   2.824  0.00  0.00    -0.386 OA
ATOM     31  H   UNL     1      -2.949 -11.403   2.989  0.00  0.00    +0.210 HD
ENDBRANCH  25  30
BRANCH  26  32
ATOM     32  O   UNL     1      -1.537 -10.730   1.492  0.00  0.00    -0.386 OA
ATOM     33  H   UNL     1      -0.901 -10.219   0.954  0.00  0.00    +0.210 HD
ENDBRANCH  26  32
BRANCH  27  34
ATOM     34  O   UNL     1      -3.629 -11.082  -1.483  0.00  0.00    -0.383 OA
ATOM     35  H   UNL     1      -4.412 -10.503  -1.614  0.00  0.00    +0.210 HD
ENDBRANCH  27  34
BRANCH  24  36
ATOM     36  C   UNL     1      -3.193  -8.400   2.404  0.00  0.00    +0.190 C 
BRANCH  36  37
ATOM     37  O   UNL     1      -3.395  -6.989   2.408  0.00  0.00    -0.392 OA
ATOM     38  H   UNL     1      -4.333  -6.812   2.567  0.00  0.00    +0.210 HD
ENDBRANCH  36  37
ENDBRANCH  24  36
ENDBRANCH   6  22
BRANCH   5  39
ATOM     39  O   UNL     1      -0.241  -8.505  -0.178  0.00  0.00    -0.506 OA
ATOM     40  H   UNL     1       0.683  -8.219  -0.100  0.00  0.00    +0.292 HD
ENDBRANCH   5  39
BRANCH   7  41
ATOM     41  O   UNL     1      -4.483  -6.362  -0.939  0.00  0.00    -0.505 OA
ATOM     42  H   UNL     1      -4.765  -7.291  -1.041  0.00  0.00    +0.292 HD
ENDBRANCH   7  41
BRANCH  11  43
ATOM     43  O   UNL     1      -3.425  -1.404  -0.737  0.00  0.00    -0.501 OA
ATOM     44  H   UNL     1      -2.911  -0.850  -1.346  0.00  0.00    +0.292 HD
ENDBRANCH  11  43
TORSDOF 13
