REMARK  Name = 
REMARK  7 active torsions:
REMARK  status: ('A' for Active; 'I' for Inactive)
REMARK    1  A    between atoms: C_3  and  O_21
REMARK    2  A    between atoms: C_4  and  O_20
REMARK    3  A    between atoms: C_6  and  C_7
REMARK    4  A    between atoms: C_8  and  C_9
REMARK    5  A    between atoms: C_8  and  O_19
REMARK    6  A    between atoms: C_9  and  O_18
REMARK    7  A    between atoms: C_16  and  O_17
REMARK                            x       y       z     vdW  Elec       q    Type
REMARK                         _______ _______ _______ _____ _____    ______ ____
ROOT
ATOM      1  C   UNL     1      -1.391  -2.275  -0.411  0.00  0.00    -0.421 C 
ATOM      2  C   UNL     1      -2.730  -2.491  -0.320  0.00  0.00    -0.021 C 
ENDROOT
BRANCH   2   3
ATOM      3  C   UNL     1      -3.710  -1.405  -0.048  0.00  0.00    +0.099 C 
ATOM      4  C   UNL     1      -4.845  -1.248  -0.798  0.00  0.00    -0.122 C 
ATOM      5  C   UNL     1      -5.763  -0.052  -0.690  0.00  0.00    +0.097 C 
ATOM      6  C   UNL     1      -6.914  -0.015  -1.392  0.00  0.00    +0.091 C 
ATOM      7  C   UNL     1      -7.292  -1.123  -2.288  0.00  0.00    +0.149 C 
ATOM      8  O   UNL     1      -8.359  -1.095  -2.880  0.00  0.00    -0.291 OA
ATOM      9  C   UNL     1      -6.339  -2.221  -2.519  0.00  0.00    -0.171 C 
ATOM     10  C   UNL     1      -5.189  -2.266  -1.835  0.00  0.00    -0.458 C 
BRANCH   3  11
ATOM     11  O   UNL     1      -3.411  -0.603   1.005  0.00  0.00    -0.508 OA
ATOM     12  H   UNL     1      -4.010   0.012   1.440  0.00  0.00    +0.292 HD
ENDBRANCH   3  11
BRANCH   5  13
ATOM     13  O   UNL     1      -5.418   1.032   0.040  0.00  0.00    -0.509 OA
ATOM     14  H   UNL     1      -5.923   1.857   0.036  0.00  0.00    +0.292 HD
ENDBRANCH   5  13
ENDBRANCH   2   3
BRANCH   1  16
ATOM     15  C   UNL     1      -1.096   0.291  -0.384  0.00  0.00    -0.026 A 
ATOM     16  C   UNL     1      -0.569  -1.018  -0.381  0.00  0.00    -0.200 A 
ATOM     17  C   UNL     1       0.832  -1.157  -0.398  0.00  0.00    +0.020 A 
ATOM     18  C   UNL     1       1.675  -0.032  -0.382  0.00  0.00    +0.156 A 
ATOM     19  C   UNL     1       1.124   1.256  -0.325  0.00  0.00    +0.158 A 
ATOM     20  C   UNL     1      -0.268   1.405  -0.330  0.00  0.00    +0.047 A 
BRANCH  18  21
ATOM     21  O   UNL     1       3.012  -0.207  -0.425  0.00  0.00    -0.503 OA
ATOM     22  H   UNL     1       3.632   0.534  -0.460  0.00  0.00    +0.292 HD
ENDBRANCH  18  21
BRANCH  19  23
ATOM     23  O   UNL     1       1.917   2.348  -0.277  0.00  0.00    -0.503 OA
ATOM     24  H   UNL     1       1.549   3.240  -0.200  0.00  0.00    +0.292 HD
ENDBRANCH  19  23
ENDBRANCH   1  16
BRANCH   2  25
ATOM     25  O   UNL     1      -3.195  -3.749  -0.501  0.00  0.00    -0.540 OA
ATOM     26  H   UNL     1      -2.608  -4.507  -0.642  0.00  0.00    +0.288 HD
ENDBRANCH   2  25
TORSDOF 7
REMARK  Name = 
REMARK  7 active torsions:
REMARK  status: ('A' for Active; 'I' for Inactive)
REMARK    1  A    between atoms: C_3  and  O_21
REMARK    2  A    between atoms: C_4  and  O_20
REMARK    3  A    between atoms: C_6  and  C_7
REMARK    4  A    between atoms: C_8  and  C_9
REMARK    5  A    between atoms: C_8  and  O_19
REMARK    6  A    between atoms: C_9  and  O_18
REMARK    7  A    between atoms: C_16  and  O_17
REMARK                            x       y       z     vdW  Elec       q    Type
REMARK                         _______ _______ _______ _____ _____    ______ ____
ROOT
ATOM      1  W   UNL     1       0.575   0.004   2.576  0.00  0.00    +0.000 W 
ENDROOT
TORSDOF 0
