REMARK  Name = 
REMARK  12 active torsions:
REMARK  status: ('A' for Active; 'I' for Inactive)
REMARK    1  A    between atoms: C_1  and  O_2
REMARK    2  A    between atoms: O_2  and  C_3
REMARK    3  A    between atoms: C_4  and  O_28
REMARK    4  A    between atoms: C_5  and  O_26
REMARK    5  A    between atoms: C_8  and  O_9
REMARK    6  A    between atoms: C_12  and  O_23
REMARK    7  A    between atoms: C_13  and  C_15
REMARK    8  A    between atoms: C_17  and  O_22
REMARK    9  A    between atoms: C_18  and  O_21
REMARK   10  A    between atoms: O_23  and  O_24
REMARK   11  A    between atoms: O_24  and  C_25
REMARK   12  A    between atoms: O_26  and  C_27
REMARK                            x       y       z     vdW  Elec       q    Type
REMARK                         _______ _______ _______ _____ _____    ______ ____
ROOT
ATOM      1  C   UNL     1       3.051  -1.220   0.013  0.00  0.00    +0.208 A 
ATOM      2  C   UNL     1       4.443  -1.171  -0.153  0.00  0.00    +0.177 A 
ATOM      3  C   UNL     1       5.194  -2.364  -0.203  0.00  0.00    +0.117 A 
ATOM      4  C   UNL     1       6.644  -2.340  -0.426  0.00  0.00    +0.242 A 
ATOM      5  C   UNL     1       7.343  -3.639  -0.603  0.00  0.00    +0.255 A 
ATOM      6  C   UNL     1       6.609  -4.775  -0.547  0.00  0.00    +0.185 A 
ATOM      7  O   UNL     1       5.252  -4.784  -0.216  0.00  0.00    -0.447 OA
ATOM      8  O   UNL     1       7.238  -1.265  -0.482  0.00  0.00    -0.283 OA
ATOM      9  C   UNL     1       4.562  -3.596  -0.086  0.00  0.00    +0.188 A 
ATOM     10  C   UNL     1       3.167  -3.664   0.123  0.00  0.00    +0.209 A 
ATOM     11  C   UNL     1       2.422  -2.466   0.155  0.00  0.00    +0.209 A 
ENDROOT
BRANCH   6  12
ATOM     12  C   UNL     1       7.154  -6.148  -0.803  0.00  0.00    +0.025 A 
ATOM     13  C   UNL     1       8.173  -6.389  -1.751  0.00  0.00    +0.015 A 
ATOM     14  C   UNL     1       8.737  -7.659  -1.924  0.00  0.00    +0.050 A 
ATOM     15  C   UNL     1       8.234  -8.722  -1.200  0.00  0.00    +0.158 A 
ATOM     16  C   UNL     1       7.188  -8.530  -0.304  0.00  0.00    +0.159 A 
ATOM     17  C   UNL     1       6.653  -7.256  -0.091  0.00  0.00    +0.060 A 
BRANCH  15  18
ATOM     18  O   UNL     1       8.765  -9.965  -1.384  0.00  0.00    -0.503 OA
ATOM     19  H   UNL     1       8.239 -10.547  -0.801  0.00  0.00    +0.292 HD
ENDBRANCH  15  18
BRANCH  16  20
ATOM     20  O   UNL     1       6.713  -9.633   0.353  0.00  0.00    -0.503 OA
ATOM     21  H   UNL     1       5.926  -9.367   0.858  0.00  0.00    +0.292 HD
ENDBRANCH  16  20
ENDBRANCH   6  12
BRANCH   1  23
ATOM     22  C   UNL     1       1.439   0.324   0.861  0.00  0.00    +0.277 C 
ATOM     23  O   UNL     1       2.356  -0.046  -0.167  0.00  0.00    -0.488 OA
ENDBRANCH   1  23
BRANCH   2  24
ATOM     24  O   UNL     1       5.031   0.061  -0.295  0.00  0.00    -0.503 OA
ATOM     25  H   UNL     1       6.001  -0.057  -0.402  0.00  0.00    +0.292 HD
ENDBRANCH   2  24
BRANCH  10  26
ATOM     26  O   UNL     1       2.673  -4.943   0.220  0.00  0.00    -0.488 OA
ATOM     27  C   UNL     1       1.270  -5.135   0.331  0.00  0.00    +0.277 C 
ENDBRANCH  10  26
BRANCH  11  28
ATOM     28  O   UNL     1       1.056  -2.505   0.241  0.00  0.00    -0.501 OA
ATOM     29  H   UNL     1       0.730  -1.804  -0.352  0.00  0.00    +0.292 HD
ENDBRANCH  11  28
BRANCH   5  30
ATOM     30  O   UNL     1       8.695  -3.545  -0.897  0.00  0.00    -0.328 OA
BRANCH  30  31
ATOM     31  O   UNL     1       9.378  -4.468   0.000  0.00  0.00    -0.189 OA
ATOM     32  C   UNL     1      10.527  -3.790   0.476  0.00  0.00    +0.253 C 
ENDBRANCH  30  31
ENDBRANCH   5  30
TORSDOF 9
