REMARK  Name = 
REMARK  11 active torsions:
REMARK  status: ('A' for Active; 'I' for Inactive)
REMARK    1  A    between atoms: C_1  and  C_2
REMARK    2  A    between atoms: C_2  and  C_3
REMARK    3  A    between atoms: C_2  and  C_4
REMARK    4  A    between atoms: C_2  and  C_5
REMARK    5  A    between atoms: C_5  and  C_7
REMARK    6  A    between atoms: C_8  and  O_28
REMARK    7  A    between atoms: C_12  and  O_13
REMARK    8  A    between atoms: C_15  and  C_20
REMARK    9  A    between atoms: C_16  and  O_19
REMARK   10  A    between atoms: C_22  and  O_27
REMARK   11  A    between atoms: C_23  and  O_26
REMARK                            x       y       z     vdW  Elec       q    Type
REMARK                         _______ _______ _______ _____ _____    ______ ____
ROOT
ATOM      1  C   UNL     1       4.605  -0.990  -1.394  0.00  0.00    +0.102 A 
ATOM      2  C   UNL     1       5.322  -2.202  -1.387  0.00  0.00    +0.134 A 
ATOM      3  C   UNL     1       6.718  -2.224  -1.509  0.00  0.00    +0.093 A 
ATOM      4  C   UNL     1       7.440  -1.048  -1.646  0.00  0.00    +0.147 A 
ATOM      5  O   UNL     1       8.805  -1.193  -1.722  0.00  0.00    -0.451 OA
ATOM      6  C   UNL     1       9.580  -0.074  -1.936  0.00  0.00    +0.181 A 
ATOM      7  C   UNL     1       9.079   1.173  -2.041  0.00  0.00    +0.208 A 
ATOM      8  C   UNL     1       7.616   1.389  -1.893  0.00  0.00    +0.238 A 
ATOM      9  O   UNL     1       7.195   2.542  -1.937  0.00  0.00    -0.283 OA
ATOM     10  C   UNL     1       6.778   0.178  -1.714  0.00  0.00    +0.110 A 
ATOM     11  C   UNL     1       5.368   0.198  -1.618  0.00  0.00    +0.145 A 
ENDROOT
BRANCH   6  12
ATOM     12  C   UNL     1      11.022  -0.345  -2.176  0.00  0.00    +0.025 A 
ATOM     13  C   UNL     1      11.415  -1.485  -2.897  0.00  0.00    +0.015 A 
ATOM     14  C   UNL     1      12.752  -1.666  -3.276  0.00  0.00    +0.050 A 
ATOM     15  C   UNL     1      13.689  -0.702  -2.945  0.00  0.00    +0.158 A 
ATOM     16  C   UNL     1      13.325   0.409  -2.192  0.00  0.00    +0.159 A 
ATOM     17  C   UNL     1      12.014   0.567  -1.769  0.00  0.00    +0.060 A 
BRANCH  15  18
ATOM     18  O   UNL     1      14.973  -0.832  -3.383  0.00  0.00    -0.503 OA
ATOM     19  H   UNL     1      15.422  -0.021  -3.071  0.00  0.00    +0.292 HD
ENDBRANCH  15  18
BRANCH  16  20
ATOM     20  O   UNL     1      14.281   1.350  -1.926  0.00  0.00    -0.503 OA
ATOM     21  H   UNL     1      13.829   2.140  -1.576  0.00  0.00    +0.292 HD
ENDBRANCH  16  20
ENDBRANCH   6  12
BRANCH   1  22
ATOM     22  C   UNL     1       3.099  -0.856  -1.189  0.00  0.00    +0.176 C 
ATOM     23  O   UNL     1       2.636   0.284  -1.349  0.00  0.00    -0.291 OA
BRANCH  22  25
ATOM     24  C   UNL     1       0.721  -1.402  -0.539  0.00  0.00    +0.019 C 
ATOM     25  C   UNL     1       2.127  -2.009  -0.820  0.00  0.00    +0.025 C 
ATOM     26  C   UNL     1       1.926  -2.939  -2.028  0.00  0.00    +0.019 C 
ATOM     27  C   UNL     1       2.498  -2.720   0.495  0.00  0.00    +0.019 C 
ENDBRANCH  22  25
ENDBRANCH   1  22
BRANCH   2  28
ATOM     28  O   UNL     1       4.714  -3.411  -1.293  0.00  0.00    -0.506 OA
ATOM     29  H   UNL     1       5.356  -4.135  -1.394  0.00  0.00    +0.292 HD
ENDBRANCH   2  28
BRANCH   7  30
ATOM     30  O   UNL     1       9.855   2.270  -2.362  0.00  0.00    -0.501 OA
ATOM     31  H   UNL     1       9.239   2.911  -2.768  0.00  0.00    +0.292 HD
ENDBRANCH   7  30
BRANCH  11  32
ATOM     32  O   UNL     1       4.751   1.416  -1.797  0.00  0.00    -0.505 OA
ATOM     33  H   UNL     1       3.774   1.309  -1.738  0.00  0.00    +0.292 HD
ENDBRANCH  11  32
TORSDOF 8
