REMARK  Name = 
REMARK  7 active torsions:
REMARK  status: ('A' for Active; 'I' for Inactive)
REMARK    1  A    between atoms: C_3  and  O_21
REMARK    2  A    between atoms: C_4  and  O_20
REMARK    3  A    between atoms: C_6  and  C_7
REMARK    4  A    between atoms: C_8  and  C_9
REMARK    5  A    between atoms: C_8  and  O_19
REMARK    6  A    between atoms: C_9  and  O_18
REMARK    7  A    between atoms: C_16  and  O_17
REMARK                            x       y       z     vdW  Elec       q    Type
REMARK                         _______ _______ _______ _____ _____    ______ ____
ROOT
ATOM      1  C   UNL     1      -1.333  -2.375  -0.338  0.00  0.00    -0.421 C 
ATOM      2  C   UNL     1      -2.682  -2.504  -0.393  0.00  0.00    -0.021 C 
ENDROOT
BRANCH   2   3
ATOM      3  C   UNL     1      -3.612  -1.346  -0.568  0.00  0.00    +0.099 C 
ATOM      4  C   UNL     1      -4.714  -1.184   0.209  0.00  0.00    -0.122 C 
ATOM      5  C   UNL     1      -5.631   0.004   0.068  0.00  0.00    +0.097 C 
ATOM      6  C   UNL     1      -6.651   0.174   0.934  0.00  0.00    +0.091 C 
ATOM      7  C   UNL     1      -6.890  -0.793   2.024  0.00  0.00    +0.149 C 
ATOM      8  O   UNL     1      -7.809  -0.620   2.808  0.00  0.00    -0.291 OA
ATOM      9  C   UNL     1      -6.013  -1.970   2.158  0.00  0.00    -0.171 C 
ATOM     10  C   UNL     1      -4.999  -2.152   1.305  0.00  0.00    -0.458 C 
BRANCH   3  11
ATOM     11  O   UNL     1      -3.320  -0.424  -1.518  0.00  0.00    -0.508 OA
ATOM     12  H   UNL     1      -2.582  -0.530  -2.135  0.00  0.00    +0.292 HD
ENDBRANCH   3  11
BRANCH   5  13
ATOM     13  O   UNL     1      -5.435   0.916  -0.914  0.00  0.00    -0.509 OA
ATOM     14  H   UNL     1      -6.000   1.694  -1.029  0.00  0.00    +0.292 HD
ENDBRANCH   5  13
ENDBRANCH   2   3
BRANCH   1  16
ATOM     15  C   UNL     1      -1.050   0.074   0.281  0.00  0.00    -0.026 A 
ATOM     16  C   UNL     1      -0.527  -1.125  -0.240  0.00  0.00    -0.200 A 
ATOM     17  C   UNL     1       0.825  -1.155  -0.629  0.00  0.00    +0.020 A 
ATOM     18  C   UNL     1       1.619   0.000  -0.548  0.00  0.00    +0.156 A 
ATOM     19  C   UNL     1       1.064   1.199  -0.067  0.00  0.00    +0.158 A 
ATOM     20  C   UNL     1      -0.269   1.222   0.354  0.00  0.00    +0.047 A 
BRANCH  18  21
ATOM     21  O   UNL     1       2.913  -0.063  -0.933  0.00  0.00    -0.503 OA
ATOM     22  H   UNL     1       3.507   0.699  -0.887  0.00  0.00    +0.292 HD
ENDBRANCH  18  21
BRANCH  19  23
ATOM     23  O   UNL     1       1.809   2.322  -0.008  0.00  0.00    -0.503 OA
ATOM     24  H   UNL     1       1.438   3.169   0.282  0.00  0.00    +0.292 HD
ENDBRANCH  19  23
ENDBRANCH   1  16
BRANCH   2  25
ATOM     25  O   UNL     1      -3.218  -3.743  -0.309  0.00  0.00    -0.540 OA
ATOM     26  H   UNL     1      -2.675  -4.542  -0.241  0.00  0.00    +0.288 HD
ENDBRANCH   2  25
TORSDOF 7
REMARK  Name = 
REMARK  7 active torsions:
REMARK  status: ('A' for Active; 'I' for Inactive)
REMARK    1  A    between atoms: C_3  and  O_21
REMARK    2  A    between atoms: C_4  and  O_20
REMARK    3  A    between atoms: C_6  and  C_7
REMARK    4  A    between atoms: C_8  and  C_9
REMARK    5  A    between atoms: C_8  and  O_19
REMARK    6  A    between atoms: C_9  and  O_18
REMARK    7  A    between atoms: C_16  and  O_17
REMARK                            x       y       z     vdW  Elec       q    Type
REMARK                         _______ _______ _______ _____ _____    ______ ____
ROOT
ATOM      1 PT   UNL     1       0.937  -0.147   2.634  0.00  0.00    +0.000 Pt
ENDROOT
TORSDOF 0
