REMARK  Name = 
REMARK  7 active torsions:
REMARK  status: ('A' for Active; 'I' for Inactive)
REMARK    1  A    between atoms: C_3  and  O_21
REMARK    2  A    between atoms: C_4  and  O_20
REMARK    3  A    between atoms: C_6  and  C_7
REMARK    4  A    between atoms: C_8  and  C_9
REMARK    5  A    between atoms: C_8  and  O_19
REMARK    6  A    between atoms: C_9  and  O_18
REMARK    7  A    between atoms: C_16  and  O_17
REMARK                            x       y       z     vdW  Elec       q    Type
REMARK                         _______ _______ _______ _____ _____    ______ ____
ROOT
ATOM      1  C   UNL     1      -1.320  -2.400  -0.313  0.00  0.00    -0.421 C 
ATOM      2  C   UNL     1      -2.670  -2.510  -0.375  0.00  0.00    -0.021 C 
ENDROOT
BRANCH   2   3
ATOM      3  C   UNL     1      -3.580  -1.336  -0.558  0.00  0.00    +0.099 C 
ATOM      4  C   UNL     1      -4.672  -1.142   0.228  0.00  0.00    -0.122 C 
ATOM      5  C   UNL     1      -5.560   0.066   0.085  0.00  0.00    +0.097 C 
ATOM      6  C   UNL     1      -6.541   0.292   0.983  0.00  0.00    +0.091 C 
ATOM      7  C   UNL     1      -6.766  -0.637   2.108  0.00  0.00    +0.149 C 
ATOM      8  O   UNL     1      -7.638  -0.406   2.930  0.00  0.00    -0.291 OA
ATOM      9  C   UNL     1      -5.935  -1.850   2.229  0.00  0.00    -0.171 C 
ATOM     10  C   UNL     1      -4.959  -2.086   1.344  0.00  0.00    -0.458 C 
BRANCH   3  11
ATOM     11  O   UNL     1      -3.273  -0.426  -1.513  0.00  0.00    -0.508 OA
ATOM     12  H   UNL     1      -2.527  -0.540  -2.119  0.00  0.00    +0.292 HD
ENDBRANCH   3  11
BRANCH   5  13
ATOM     13  O   UNL     1      -5.376   0.943  -0.932  0.00  0.00    -0.509 OA
ATOM     14  H   UNL     1      -5.929   1.727  -1.055  0.00  0.00    +0.292 HD
ENDBRANCH   5  13
ENDBRANCH   2   3
BRANCH   1  16
ATOM     15  C   UNL     1      -1.014   0.048   0.287  0.00  0.00    -0.026 A 
ATOM     16  C   UNL     1      -0.496  -1.161  -0.212  0.00  0.00    -0.200 A 
ATOM     17  C   UNL     1       0.861  -1.208  -0.579  0.00  0.00    +0.020 A 
ATOM     18  C   UNL     1       1.667  -0.061  -0.493  0.00  0.00    +0.156 A 
ATOM     19  C   UNL     1       1.117   1.150  -0.034  0.00  0.00    +0.158 A 
ATOM     20  C   UNL     1      -0.224   1.190   0.364  0.00  0.00    +0.047 A 
BRANCH  18  21
ATOM     21  O   UNL     1       2.965  -0.138  -0.855  0.00  0.00    -0.503 OA
ATOM     22  H   UNL     1       3.570   0.616  -0.798  0.00  0.00    +0.292 HD
ENDBRANCH  18  21
BRANCH  19  23
ATOM     23  O   UNL     1       1.870   2.266   0.031  0.00  0.00    -0.503 OA
ATOM     24  H   UNL     1       1.501   3.118   0.306  0.00  0.00    +0.292 HD
ENDBRANCH  19  23
ENDBRANCH   1  16
BRANCH   2  25
ATOM     25  O   UNL     1      -3.226  -3.740  -0.289  0.00  0.00    -0.540 OA
ATOM     26  H   UNL     1      -2.695  -4.547  -0.218  0.00  0.00    +0.288 HD
ENDBRANCH   2  25
TORSDOF 7
REMARK  Name = 
REMARK  7 active torsions:
REMARK  status: ('A' for Active; 'I' for Inactive)
REMARK    1  A    between atoms: C_3  and  O_21
REMARK    2  A    between atoms: C_4  and  O_20
REMARK    3  A    between atoms: C_6  and  C_7
REMARK    4  A    between atoms: C_8  and  C_9
REMARK    5  A    between atoms: C_8  and  O_19
REMARK    6  A    between atoms: C_9  and  O_18
REMARK    7  A    between atoms: C_16  and  O_17
REMARK                            x       y       z     vdW  Elec       q    Type
REMARK                         _______ _______ _______ _____ _____    ______ ____
ROOT
ATOM      1 CO   UNL     1       0.716  -0.295   2.612  0.00  0.00    +0.000 Co
ENDROOT
TORSDOF 0
