REMARK  Name = 
REMARK  15 active torsions:
REMARK  status: ('A' for Active; 'I' for Inactive)
REMARK    1  A    between atoms: C_1  and  C_2
REMARK    2  A    between atoms: C_2  and  C_3
REMARK    3  A    between atoms: C_3  and  C_4
REMARK    4  A    between atoms: C_4  and  C_5
REMARK    5  A    between atoms: C_5  and  C_6
REMARK    6  A    between atoms: C_6  and  C_7
REMARK    7  A    between atoms: C_7  and  C_8
REMARK    8  A    between atoms: C_8  and  O_10
REMARK    9  A    between atoms: O_10  and  C_11
REMARK   10  A    between atoms: C_12  and  O_32
REMARK   11  A    between atoms: C_16  and  O_17
REMARK   12  A    between atoms: C_19  and  C_24
REMARK   13  A    between atoms: C_20  and  O_23
REMARK   14  A    between atoms: C_26  and  O_31
REMARK   15  A    between atoms: C_27  and  O_30
REMARK                            x       y       z     vdW  Elec       q    Type
REMARK                         _______ _______ _______ _____ _____    ______ ____
ROOT
ATOM      1  C   UNL     1      10.813  -0.489   5.447  0.00  0.00    +0.215 A 
ATOM      2  C   UNL     1      11.596   0.667   5.495  0.00  0.00    +0.166 A 
ATOM      3  C   UNL     1      12.981   0.573   5.441  0.00  0.00    +0.096 A 
ATOM      4  C   UNL     1      13.590  -0.684   5.390  0.00  0.00    +0.147 A 
ATOM      5  O   UNL     1      14.963  -0.670   5.358  0.00  0.00    -0.451 OA
ATOM      6  C   UNL     1      15.648  -1.871   5.320  0.00  0.00    +0.181 A 
ATOM      7  C   UNL     1      15.044  -3.070   5.395  0.00  0.00    +0.208 A 
ATOM      8  C   UNL     1      13.558  -3.140   5.491  0.00  0.00    +0.238 A 
ATOM      9  O   UNL     1      13.030  -4.235   5.673  0.00  0.00    -0.283 OA
ATOM     10  C   UNL     1      12.827  -1.856   5.418  0.00  0.00    +0.113 A 
ATOM     11  C   UNL     1      11.425  -1.754   5.434  0.00  0.00    +0.178 A 
ENDROOT
BRANCH   6  12
ATOM     12  C   UNL     1      17.128  -1.725   5.302  0.00  0.00    +0.025 A 
ATOM     13  C   UNL     1      17.748  -0.655   5.975  0.00  0.00    +0.015 A 
ATOM     14  C   UNL     1      19.143  -0.540   6.017  0.00  0.00    +0.050 A 
ATOM     15  C   UNL     1      19.924  -1.503   5.397  0.00  0.00    +0.158 A 
ATOM     16  C   UNL     1      19.334  -2.558   4.716  0.00  0.00    +0.159 A 
ATOM     17  C   UNL     1      17.949  -2.656   4.638  0.00  0.00    +0.060 A 
BRANCH  15  18
ATOM     18  O   UNL     1      21.283  -1.417   5.471  0.00  0.00    -0.503 OA
ATOM     19  H   UNL     1      21.603  -2.207   4.989  0.00  0.00    +0.292 HD
ENDBRANCH  15  18
BRANCH  16  20
ATOM     20  O   UNL     1      20.153  -3.495   4.148  0.00  0.00    -0.503 OA
ATOM     21  H   UNL     1      19.593  -4.216   3.809  0.00  0.00    +0.292 HD
ENDBRANCH  16  20
ENDBRANCH   6  12
BRANCH   2  22
ATOM     22  O   UNL     1      10.999   1.885   5.646  0.00  0.00    -0.503 OA
ATOM     23  H   UNL     1      11.635   2.582   5.411  0.00  0.00    +0.292 HD
ENDBRANCH   2  22
BRANCH   7  24
ATOM     24  O   UNL     1      15.761  -4.252   5.494  0.00  0.00    -0.501 OA
ATOM     25  H   UNL     1      15.286  -4.796   6.150  0.00  0.00    +0.292 HD
ENDBRANCH   7  24
BRANCH  11  26
ATOM     26  O   UNL     1      10.632  -2.867   5.430  0.00  0.00    -0.503 OA
ATOM     27  H   UNL     1       9.698  -2.587   5.421  0.00  0.00    +0.292 HD
ENDBRANCH  11  26
BRANCH   1  28
ATOM     28  O   UNL     1       9.418  -0.437   5.589  0.00  0.00    -0.418 OA
BRANCH  28  29
ATOM     29  C   UNL     1       8.799   0.543   4.816  0.00  0.00    +0.313 C 
ATOM     30  O   UNL     1       8.994   0.723   3.609  0.00  0.00    -0.250 OA
BRANCH  29  31
ATOM     31  C   UNL     1       7.867   1.334   5.697  0.00  0.00    +0.121 C 
BRANCH  31  32
ATOM     32  C   UNL     1       6.447   1.425   5.164  0.00  0.00    +0.011 C 
BRANCH  32  33
ATOM     33  C   UNL     1       5.788   0.052   5.055  0.00  0.00    +0.001 C 
BRANCH  33  34
ATOM     34  C   UNL     1       4.357   0.176   4.546  0.00  0.00    +0.000 C 
BRANCH  34  35
ATOM     35  C   UNL     1       3.710  -1.197   4.391  0.00  0.00    -0.000 C 
BRANCH  35  37
ATOM     36  C   UNL     1       1.627  -2.432   3.716  0.00  0.00    +0.004 C 
ATOM     37  C   UNL     1       2.280  -1.070   3.874  0.00  0.00    -0.003 C 
ENDBRANCH  35  37
ENDBRANCH  34  35
ENDBRANCH  33  34
ENDBRANCH  32  33
ENDBRANCH  31  32
ENDBRANCH  29  31
ENDBRANCH  28  29
ENDBRANCH   1  28
TORSDOF 14
