REMARK  Name = 
REMARK  11 active torsions:
REMARK  status: ('A' for Active; 'I' for Inactive)
REMARK    1  A    between atoms: C_2  and  O_35
REMARK    2  A    between atoms: C_4  and  O_34
REMARK    3  A    between atoms: C_6  and  O_33
REMARK    4  A    between atoms: C_8  and  C_10
REMARK    5  A    between atoms: C_8  and  O_32
REMARK    6  A    between atoms: C_11  and  O_31
REMARK    7  A    between atoms: C_15  and  O_16
REMARK    8  A    between atoms: C_18  and  C_23
REMARK    9  A    between atoms: C_19  and  O_22
REMARK   10  A    between atoms: C_25  and  O_30
REMARK   11  A    between atoms: C_26  and  O_29
REMARK                            x       y       z     vdW  Elec       q    Type
REMARK                         _______ _______ _______ _____ _____    ______ ____
ROOT
ATOM      1  C   UNL     1       1.569  -2.273   0.234  0.00  0.00    +0.097 A 
ATOM      2  C   UNL     1       1.777  -3.522  -0.373  0.00  0.00    +0.132 A 
ATOM      3  C   UNL     1       2.788  -4.388   0.067  0.00  0.00    +0.093 A 
ATOM      4  C   UNL     1       3.595  -4.029   1.152  0.00  0.00    +0.147 A 
ATOM      5  O   UNL     1       4.647  -4.861   1.450  0.00  0.00    -0.451 OA
ATOM      6  C   UNL     1       5.515  -4.483   2.459  0.00  0.00    +0.181 A 
ATOM      7  C   UNL     1       5.362  -3.406   3.251  0.00  0.00    +0.208 A 
ATOM      8  C   UNL     1       4.210  -2.503   2.990  0.00  0.00    +0.238 A 
ATOM      9  O   UNL     1       4.068  -1.482   3.658  0.00  0.00    -0.283 OA
ATOM     10  C   UNL     1       3.321  -2.867   1.863  0.00  0.00    +0.110 A 
ATOM     11  C   UNL     1       2.286  -2.029   1.428  0.00  0.00    +0.143 A 
ENDROOT
BRANCH   1  14
ATOM     12  C   UNL     1       0.599   1.239  -0.380  0.00  0.00    +0.197 C 
ATOM     13  O   UNL     1       1.291   0.071   0.026  0.00  0.00    -0.340 OA
ATOM     14  C   UNL     1       0.685  -1.175  -0.379  0.00  0.00    +0.230 C 
ATOM     15  C   UNL     1      -0.804  -1.277   0.089  0.00  0.00    +0.209 C 
ATOM     16  C   UNL     1      -1.571   0.015  -0.258  0.00  0.00    +0.179 C 
ATOM     17  C   UNL     1      -0.810   1.265   0.186  0.00  0.00    +0.171 C 
BRANCH  14  18
ATOM     18  O   UNL     1       0.798  -1.233  -1.802  0.00  0.00    -0.359 OA
ATOM     19  H   UNL     1       0.004  -0.845  -2.197  0.00  0.00    +0.213 HD
ENDBRANCH  14  18
BRANCH  15  20
ATOM     20  O   UNL     1      -1.489  -2.381  -0.538  0.00  0.00    -0.383 OA
ATOM     21  H   UNL     1      -0.867  -2.814  -1.155  0.00  0.00    +0.210 HD
ENDBRANCH  15  20
BRANCH  16  22
ATOM     22  O   UNL     1      -2.865   0.037   0.367  0.00  0.00    -0.386 OA
ATOM     23  H   UNL     1      -3.254   0.901   0.127  0.00  0.00    +0.210 HD
ENDBRANCH  16  22
BRANCH  17  24
ATOM     24  O   UNL     1      -1.512   2.423  -0.274  0.00  0.00    -0.387 OA
ATOM     25  H   UNL     1      -1.103   3.199   0.152  0.00  0.00    +0.210 HD
ENDBRANCH  17  24
ENDBRANCH   1  14
BRANCH   6  26
ATOM     26  C   UNL     1       6.691  -5.356   2.591  0.00  0.00    +0.025 A 
ATOM     27  C   UNL     1       6.685  -6.420   3.507  0.00  0.00    +0.015 A 
ATOM     28  C   UNL     1       7.834  -7.191   3.700  0.00  0.00    +0.050 A 
ATOM     29  C   UNL     1       8.981  -6.894   2.978  0.00  0.00    +0.158 A 
ATOM     30  C   UNL     1       8.998  -5.840   2.067  0.00  0.00    +0.159 A 
ATOM     31  C   UNL     1       7.860  -5.067   1.866  0.00  0.00    +0.060 A 
BRANCH  29  32
ATOM     32  O   UNL     1      10.104  -7.643   3.177  0.00  0.00    -0.503 OA
ATOM     33  H   UNL     1      10.771  -7.260   2.573  0.00  0.00    +0.292 HD
ENDBRANCH  29  32
BRANCH  30  34
ATOM     34  O   UNL     1      10.169  -5.597   1.404  0.00  0.00    -0.503 OA
ATOM     35  H   UNL     1      10.046  -4.823   0.828  0.00  0.00    +0.292 HD
ENDBRANCH  30  34
ENDBRANCH   6  26
BRANCH   2  36
ATOM     36  O   UNL     1       0.967  -3.914  -1.406  0.00  0.00    -0.506 OA
ATOM     37  H   UNL     1       1.229  -4.804  -1.700  0.00  0.00    +0.292 HD
ENDBRANCH   2  36
BRANCH   7  38
ATOM     38  O   UNL     1       6.226  -3.054   4.277  0.00  0.00    -0.501 OA
ATOM     39  H   UNL     1       6.858  -3.773   4.436  0.00  0.00    +0.292 HD
ENDBRANCH   7  38
BRANCH  11  40
ATOM     40  O   UNL     1       1.952  -0.942   2.192  0.00  0.00    -0.505 OA
ATOM     41  H   UNL     1       1.940  -0.176   1.585  0.00  0.00    +0.292 HD
ENDBRANCH  11  40
TORSDOF 11
