REMARK  Name = 
REMARK  19 active torsions:
REMARK  status: ('A' for Active; 'I' for Inactive)
REMARK    1  A    between atoms: C_1  and  C_2
REMARK    2  A    between atoms: C_4  and  O_51
REMARK    3  A    between atoms: C_6  and  O_50
REMARK    4  A    between atoms: C_8  and  C_12
REMARK    5  A    between atoms: C_8  and  O_49
REMARK    6  A    between atoms: C_9  and  O_11
REMARK    7  A    between atoms: C_12  and  O_48
REMARK    8  A    between atoms: C_13  and  O_47
REMARK    9  A    between atoms: C_15  and  O_46
REMARK   10  A    between atoms: C_17  and  C_44
REMARK   11  A    between atoms: C_20  and  C_21
REMARK   12  A    between atoms: C_20  and  O_43
REMARK   13  A    between atoms: C_22  and  O_42
REMARK   14  A    between atoms: C_26  and  O_27
REMARK   15  A    between atoms: C_29  and  C_34
REMARK   16  A    between atoms: C_30  and  O_33
REMARK   17  A    between atoms: C_36  and  O_41
REMARK   18  A    between atoms: C_37  and  O_40
REMARK   19  A    between atoms: C_44  and  O_45
REMARK                            x       y       z     vdW  Elec       q    Type
REMARK                         _______ _______ _______ _____ _____    ______ ____
ROOT
ATOM      1  C   UNL     1       4.777  -0.752  -2.714  0.00  0.00    +0.188 C 
ATOM      2  C   UNL     1       4.922   0.466  -1.602  0.00  0.00    +0.237 C 
ATOM      3  O   UNL     1       4.424   1.704  -2.161  0.00  0.00    -0.334 OA
ATOM      4  C   UNL     1       5.043   2.141  -3.388  0.00  0.00    +0.178 C 
ATOM      5  C   UNL     1       4.764   1.143  -4.505  0.00  0.00    +0.177 C 
ATOM      6  C   UNL     1       5.313  -0.234  -4.102  0.00  0.00    +0.186 C 
ENDROOT
BRANCH   2   7
ATOM      7  C   UNL     1       4.203   0.418  -0.212  0.00  0.00    +0.098 A 
ATOM      8  C   UNL     1       2.977  -0.229   0.016  0.00  0.00    +0.132 A 
ATOM      9  C   UNL     1       2.474  -0.482   1.298  0.00  0.00    +0.093 A 
ATOM     10  C   UNL     1       3.092   0.057   2.413  0.00  0.00    +0.147 A 
ATOM     11  O   UNL     1       2.574  -0.315   3.625  0.00  0.00    -0.451 OA
ATOM     12  C   UNL     1       2.890   0.447   4.733  0.00  0.00    +0.181 A 
ATOM     13  C   UNL     1       3.791   1.446   4.709  0.00  0.00    +0.208 A 
ATOM     14  C   UNL     1       4.598   1.679   3.457  0.00  0.00    +0.238 A 
ATOM     15  O   UNL     1       5.559   2.430   3.500  0.00  0.00    -0.283 OA
ATOM     16  C   UNL     1       4.152   0.937   2.243  0.00  0.00    +0.110 A 
ATOM     17  C   UNL     1       4.711   1.097   0.944  0.00  0.00    +0.143 A 
BRANCH  12  18
ATOM     18  C   UNL     1       2.208   0.017   5.979  0.00  0.00    +0.025 A 
ATOM     19  C   UNL     1       2.068  -1.357   6.274  0.00  0.00    +0.015 A 
ATOM     20  C   UNL     1       1.528  -1.774   7.501  0.00  0.00    +0.050 A 
ATOM     21  C   UNL     1       1.151  -0.827   8.425  0.00  0.00    +0.158 A 
ATOM     22  C   UNL     1       1.288   0.520   8.169  0.00  0.00    +0.159 A 
ATOM     23  C   UNL     1       1.764   0.948   6.932  0.00  0.00    +0.060 A 
BRANCH  22  24
ATOM     24  O   UNL     1       0.918   1.399   9.142  0.00  0.00    -0.503 OA
ATOM     25  H   UNL     1       1.191   2.290   8.856  0.00  0.00    +0.292 HD
ENDBRANCH  22  24
BRANCH  21  26
ATOM     26  O   UNL     1       0.660  -1.247   9.647  0.00  0.00    -0.503 OA
ATOM     27  H   UNL     1       0.467  -0.416  10.124  0.00  0.00    +0.292 HD
ENDBRANCH  21  26
ENDBRANCH  12  18
BRANCH  17  28
ATOM     28  O   UNL     1       5.751   1.986   0.822  0.00  0.00    -0.505 OA
ATOM     29  H   UNL     1       6.134   1.885  -0.068  0.00  0.00    +0.292 HD
ENDBRANCH  17  28
BRANCH  13  30
ATOM     30  O   UNL     1       4.039   2.241   5.813  0.00  0.00    -0.501 OA
ATOM     31  H   UNL     1       4.923   1.991   6.136  0.00  0.00    +0.292 HD
ENDBRANCH  13  30
BRANCH   8  32
ATOM     32  O   UNL     1       2.216  -0.659  -1.030  0.00  0.00    -0.506 OA
ATOM     33  H   UNL     1       1.394  -1.070  -0.699  0.00  0.00    +0.292 HD
ENDBRANCH   8  32
ENDBRANCH   2   7
BRANCH   1  38
ATOM     34  C   UNL     1       8.596  -3.607  -0.359  0.00  0.00    +0.041 C 
ATOM     35  C   UNL     1       7.895  -2.326  -0.788  0.00  0.00    +0.149 C 
ATOM     36  O   UNL     1       6.572  -2.127  -0.264  0.00  0.00    -0.343 OA
ATOM     37  C   UNL     1       5.512  -2.771  -0.966  0.00  0.00    +0.285 C 
ATOM     38  C   UNL     1       5.372  -2.267  -2.436  0.00  0.00    +0.181 C 
ATOM     39  C   UNL     1       6.752  -2.638  -3.073  0.00  0.00    +0.185 C 
ATOM     40  C   UNL     1       7.943  -2.054  -2.304  0.00  0.00    +0.174 C 
BRANCH  40  41
ATOM     41  O   UNL     1       7.915  -0.633  -2.454  0.00  0.00    -0.387 OA
ATOM     42  H   UNL     1       7.665  -0.299  -1.562  0.00  0.00    +0.210 HD
ENDBRANCH  40  41
BRANCH  39  43
ATOM     43  O   UNL     1       6.811  -4.085  -3.181  0.00  0.00    -0.386 OA
ATOM     44  H   UNL     1       7.383  -4.468  -2.496  0.00  0.00    +0.210 HD
ENDBRANCH  39  43
BRANCH  38  45
ATOM     45  O   UNL     1       4.418  -3.186  -3.093  0.00  0.00    -0.378 OA
ATOM     46  H   UNL     1       4.906  -4.022  -3.256  0.00  0.00    +0.211 HD
ENDBRANCH  38  45
BRANCH  37  47
ATOM     47  O   UNL     1       4.299  -2.665  -0.249  0.00  0.00    -0.365 OA
ATOM     48  H   UNL     1       3.615  -2.411  -0.898  0.00  0.00    +0.213 HD
ENDBRANCH  37  47
ENDBRANCH   1  38
BRANCH   6  49
ATOM     49  O   UNL     1       5.004  -1.142  -5.189  0.00  0.00    -0.386 OA
ATOM     50  H   UNL     1       4.440  -1.854  -4.814  0.00  0.00    +0.210 HD
ENDBRANCH   6  49
BRANCH   5  51
ATOM     51  O   UNL     1       5.423   1.548  -5.711  0.00  0.00    -0.386 OA
ATOM     52  H   UNL     1       5.286   0.802  -6.332  0.00  0.00    +0.210 HD
ENDBRANCH   5  51
BRANCH   2  53
ATOM     53  O   UNL     1       6.298   0.716  -1.295  0.00  0.00    -0.359 OA
ATOM     54  H   UNL     1       6.729   0.963  -2.134  0.00  0.00    +0.213 HD
ENDBRANCH   2  53
BRANCH   1  55
ATOM     55  O   UNL     1       3.367  -0.920  -3.085  0.00  0.00    -0.378 OA
ATOM     56  H   UNL     1       2.829  -0.302  -2.547  0.00  0.00    +0.211 HD
ENDBRANCH   1  55
BRANCH   4  57
ATOM     57  C   UNL     1       4.541   3.562  -3.700  0.00  0.00    +0.190 C 
BRANCH  57  58
ATOM     58  O   UNL     1       3.122   3.583  -3.740  0.00  0.00    -0.392 OA
ATOM     59  H   UNL     1       2.831   3.152  -2.914  0.00  0.00    +0.210 HD
ENDBRANCH  57  58
ENDBRANCH   4  57
TORSDOF 18
