REMARK  Name = 
REMARK  12 active torsions:
REMARK  status: ('A' for Active; 'I' for Inactive)
REMARK    1  A    between atoms: C_1  and  O_2
REMARK    2  A    between atoms: O_2  and  C_3
REMARK    3  A    between atoms: C_4  and  O_30
REMARK    4  A    between atoms: C_6  and  C_9
REMARK    5  A    between atoms: C_10  and  O_28
REMARK    6  A    between atoms: C_16  and  C_24
REMARK    7  A    between atoms: C_17  and  O_22
REMARK    8  A    between atoms: C_19  and  O_20
REMARK    9  A    between atoms: O_20  and  C_21
REMARK   10  A    between atoms: O_22  and  C_23
REMARK   11  A    between atoms: O_28  and  C_29
REMARK   12  A    between atoms: O_30  and  C_31
REMARK                            x       y       z     vdW  Elec       q    Type
REMARK                         _______ _______ _______ _____ _____    ______ ____
ROOT
ATOM      1  C   UNL     1       4.351  -4.571  -2.596  0.00  0.00    +0.181 A 
ATOM      2  O   UNL     1       4.902  -4.507  -3.863  0.00  0.00    -0.450 OA
ATOM      3  C   UNL     1       5.138  -5.655  -4.590  0.00  0.00    +0.158 A 
ATOM      4  C   UNL     1       5.709  -5.472  -5.874  0.00  0.00    +0.139 A 
ATOM      5  C   UNL     1       5.910  -6.595  -6.687  0.00  0.00    +0.139 A 
ATOM      6  C   UNL     1       5.538  -7.850  -6.214  0.00  0.00    +0.092 A 
ATOM      7  C   UNL     1       4.990  -8.054  -4.933  0.00  0.00    +0.138 A 
ATOM      8  C   UNL     1       4.801  -6.937  -4.098  0.00  0.00    +0.110 A 
ATOM      9  C   UNL     1       4.285  -6.981  -2.711  0.00  0.00    +0.238 A 
ATOM     10  O   UNL     1       3.955  -8.021  -2.156  0.00  0.00    -0.283 OA
ATOM     11  C   UNL     1       4.095  -5.721  -1.939  0.00  0.00    +0.211 A 
ENDROOT
BRANCH   1  15
ATOM     12  C   UNL     1       2.724  -0.880  -1.195  0.00  0.00    +0.162 A 
ATOM     13  C   UNL     1       1.980  -1.758  -1.982  0.00  0.00    +0.050 A 
ATOM     14  C   UNL     1       2.561  -2.925  -2.467  0.00  0.00    +0.015 A 
ATOM     15  C   UNL     1       3.881  -3.257  -2.137  0.00  0.00    +0.025 A 
ATOM     16  C   UNL     1       4.649  -2.366  -1.376  0.00  0.00    +0.061 A 
ATOM     17  C   UNL     1       4.072  -1.172  -0.913  0.00  0.00    +0.162 A 
BRANCH  12  19
ATOM     18  C   UNL     1       1.058   0.802  -1.310  0.00  0.00    +0.277 C 
ATOM     19  O   UNL     1       2.200   0.267  -0.649  0.00  0.00    -0.491 OA
ENDBRANCH  12  19
BRANCH  17  20
ATOM     20  O   UNL     1       4.750  -0.271  -0.129  0.00  0.00    -0.491 OA
ATOM     21  C   UNL     1       6.127  -0.103  -0.449  0.00  0.00    +0.277 C 
ENDBRANCH  17  20
ENDBRANCH   1  15
BRANCH   4  22
ATOM     22  C   UNL     1       6.131  -4.120  -6.403  0.00  0.00    +0.424 C 
ATOM     23  F   UNL     1       5.498  -3.783  -7.564  0.00  0.00    -0.166 F 
ATOM     24  F   UNL     1       7.468  -4.060  -6.671  0.00  0.00    -0.166 F 
ATOM     25  F   UNL     1       5.900  -3.070  -5.564  0.00  0.00    -0.166 F 
ENDBRANCH   4  22
BRANCH   5  26
ATOM     26  O   UNL     1       6.468  -6.383  -7.920  0.00  0.00    -0.494 OA
ATOM     27  C   UNL     1       6.683  -7.519  -8.756  0.00  0.00    +0.277 C 
ENDBRANCH   5  26
BRANCH   7  28
ATOM     28  O   UNL     1       4.762  -9.393  -4.803  0.00  0.00    -0.494 OA
ATOM     29  C   UNL     1       4.153 -10.007  -3.688  0.00  0.00    +0.277 C 
ENDBRANCH   7  28
BRANCH  11  30
ATOM     30  O   UNL     1       3.594  -5.961  -0.688  0.00  0.00    -0.488 OA
ATOM     31  C   UNL     1       3.299  -5.009   0.307  0.00  0.00    +0.277 C 
ENDBRANCH  11  30
TORSDOF 7
