REMARK  Name = 
REMARK  8 active torsions:
REMARK  status: ('A' for Active; 'I' for Inactive)
REMARK    1  A    between atoms: C_2  and  C_4
REMARK    2  A    between atoms: C_4  and  C_5
REMARK    3  A    between atoms: C_6  and  O_26
REMARK    4  A    between atoms: C_10  and  O_11
REMARK    5  A    between atoms: C_13  and  C_18
REMARK    6  A    between atoms: C_14  and  O_17
REMARK    7  A    between atoms: C_20  and  O_25
REMARK    8  A    between atoms: C_21  and  O_24
REMARK                            x       y       z     vdW  Elec       q    Type
REMARK                         _______ _______ _______ _____ _____    ______ ____
ROOT
ATOM      1  C   UNL     1      -3.006  -0.864  -0.935  0.00  0.00    +0.039 A 
ATOM      2  C   UNL     1      -3.763   0.315  -0.846  0.00  0.00    +0.127 A 
ATOM      3  C   UNL     1      -5.133   0.286  -0.563  0.00  0.00    +0.093 A 
ATOM      4  C   UNL     1      -5.781  -0.942  -0.399  0.00  0.00    +0.147 A 
ATOM      5  O   UNL     1      -7.126  -0.884  -0.097  0.00  0.00    -0.451 OA
ATOM      6  C   UNL     1      -7.832  -2.073   0.037  0.00  0.00    +0.181 A 
ATOM      7  C   UNL     1      -7.285  -3.288  -0.159  0.00  0.00    +0.208 A 
ATOM      8  C   UNL     1      -5.841  -3.400  -0.489  0.00  0.00    +0.238 A 
ATOM      9  O   UNL     1      -5.383  -4.502  -0.765  0.00  0.00    -0.283 OA
ATOM     10  C   UNL     1      -5.071  -2.132  -0.534  0.00  0.00    +0.109 A 
ATOM     11  C   UNL     1      -3.679  -2.092  -0.766  0.00  0.00    +0.138 A 
ENDROOT
BRANCH   6  12
ATOM     12  C   UNL     1      -9.298  -1.912   0.260  0.00  0.00    +0.025 A 
ATOM     13  C   UNL     1      -9.999  -0.824  -0.283  0.00  0.00    +0.015 A 
ATOM     14  C   UNL     1     -11.398  -0.753  -0.207  0.00  0.00    +0.050 A 
ATOM     15  C   UNL     1     -12.104  -1.780   0.391  0.00  0.00    +0.158 A 
ATOM     16  C   UNL     1     -11.428  -2.841   0.966  0.00  0.00    +0.159 A 
ATOM     17  C   UNL     1     -10.037  -2.896   0.956  0.00  0.00    +0.060 A 
BRANCH  15  18
ATOM     18  O   UNL     1     -13.470  -1.753   0.394  0.00  0.00    -0.503 OA
ATOM     19  H   UNL     1     -13.728  -2.589   0.833  0.00  0.00    +0.292 HD
ENDBRANCH  15  18
BRANCH  16  20
ATOM     20  O   UNL     1     -12.178  -3.865   1.500  0.00  0.00    -0.503 OA
ATOM     21  H   UNL     1     -11.577  -4.608   1.690  0.00  0.00    +0.292 HD
ENDBRANCH  16  20
ENDBRANCH   6  12
BRANCH   2  22
ATOM     22  O   UNL     1      -3.130   1.510  -1.048  0.00  0.00    -0.506 OA
ATOM     23  H   UNL     1      -3.764   2.235  -0.919  0.00  0.00    +0.292 HD
ENDBRANCH   2  22
BRANCH   7  24
ATOM     24  O   UNL     1      -8.044  -4.445  -0.178  0.00  0.00    -0.501 OA
ATOM     25  H   UNL     1      -7.812  -4.900  -1.007  0.00  0.00    +0.292 HD
ENDBRANCH   7  24
BRANCH  11  26
ATOM     26  O   UNL     1      -2.997  -3.277  -0.811  0.00  0.00    -0.506 OA
ATOM     27  H   UNL     1      -2.052  -3.160  -0.988  0.00  0.00    +0.292 HD
ENDBRANCH  11  26
BRANCH   1  28
ATOM     28  C   UNL     1      -1.525  -0.784  -1.242  0.00  0.00    +0.076 C 
BRANCH  28  31
ATOM     29  C   UNL     1      -1.605  -2.012  -3.609  0.00  0.00    +0.192 C 
ATOM     30  O   UNL     1      -0.286  -1.819  -3.091  0.00  0.00    -0.371 OA
ATOM     31  C   UNL     1      -1.266  -0.837  -2.717  0.00  0.00    +0.148 C 
ENDBRANCH  28  31
ENDBRANCH   1  28
TORSDOF 8
