REMARK  Name = 
REMARK  10 active torsions:
REMARK  status: ('A' for Active; 'I' for Inactive)
REMARK    1  A    between atoms: C_3  and  O_30
REMARK    2  A    between atoms: C_4  and  O_29
REMARK    3  A    between atoms: C_6  and  C_7
REMARK    4  A    between atoms: C_8  and  O_24
REMARK    5  A    between atoms: C_12  and  O_23
REMARK    6  A    between atoms: C_14  and  O_18
REMARK    7  A    between atoms: O_18  and  S_19
REMARK    8  A    between atoms: S_19  and  O_22
REMARK    9  A    between atoms: O_24  and  S_25
REMARK   10  A    between atoms: S_25  and  O_28
REMARK                            x       y       z     vdW  Elec       q    Type
REMARK                         _______ _______ _______ _____ _____    ______ ____
ROOT
ATOM      1  C   UNL     1      -1.340  -2.496  -0.189  0.00  0.00    +0.184 A 
ATOM      2  O   UNL     1      -0.621  -3.692  -0.121  0.00  0.00    -0.451 OA
ATOM      3  C   UNL     1      -1.280  -4.887  -0.234  0.00  0.00    +0.147 A 
ATOM      4  C   UNL     1      -2.630  -4.960  -0.536  0.00  0.00    +0.109 A 
ATOM      5  C   UNL     1      -3.243  -6.209  -0.680  0.00  0.00    +0.135 A 
ATOM      6  C   UNL     1      -2.516  -7.384  -0.495  0.00  0.00    +0.095 A 
ATOM      7  C   UNL     1      -1.165  -7.315  -0.154  0.00  0.00    +0.166 A 
ATOM      8  C   UNL     1      -3.378  -3.710  -0.683  0.00  0.00    +0.241 A 
ATOM      9  O   UNL     1      -4.566  -3.745  -0.998  0.00  0.00    -0.283 OA
ATOM     10  C   UNL     1      -0.543  -6.062  -0.045  0.00  0.00    +0.096 A 
ATOM     11  C   UNL     1      -2.668  -2.427  -0.433  0.00  0.00    +0.248 A 
ENDROOT
BRANCH   1  13
ATOM     12  C   UNL     1       0.403  -0.965  -1.039  0.00  0.00    +0.015 A 
ATOM     13  C   UNL     1      -0.422  -1.361   0.031  0.00  0.00    +0.025 A 
ATOM     14  C   UNL     1      -0.195  -0.823   1.303  0.00  0.00    +0.060 A 
ATOM     15  C   UNL     1       0.888   0.032   1.495  0.00  0.00    +0.159 A 
ATOM     16  C   UNL     1       1.757   0.339   0.450  0.00  0.00    +0.158 A 
ATOM     17  C   UNL     1       1.500  -0.124  -0.832  0.00  0.00    +0.050 A 
BRANCH  15  18
ATOM     18  O   UNL     1       1.136   0.532   2.743  0.00  0.00    -0.503 OA
ATOM     19  H   UNL     1       1.908   1.123   2.622  0.00  0.00    +0.292 HD
ENDBRANCH  15  18
BRANCH  16  20
ATOM     20  O   UNL     1       2.878   1.067   0.738  0.00  0.00    -0.503 OA
ATOM     21  H   UNL     1       3.515   0.928   0.015  0.00  0.00    +0.292 HD
ENDBRANCH  16  20
ENDBRANCH   1  13
BRANCH   5  22
ATOM     22  O   UNL     1      -4.564  -6.358  -1.004  0.00  0.00    -0.506 OA
ATOM     23  H   UNL     1      -4.959  -5.464  -1.120  0.00  0.00    +0.292 HD
ENDBRANCH   5  22
BRANCH   7  24
ATOM     24  O   UNL     1      -0.361  -8.410   0.047  0.00  0.00    -0.325 OA
BRANCH  24  25
ATOM     25  S   UNL     1      -0.967  -9.842   0.545  0.00  0.00    +0.251 S 
ATOM     26  O   UNL     1      -1.672 -10.477  -0.547  0.00  0.00    -0.108 OA
ATOM     27  O   UNL     1      -1.562  -9.665   1.849  0.00  0.00    -0.108 OA
BRANCH  25  28
ATOM     28  O   UNL     1       0.365 -10.709   0.822  0.00  0.00    -0.222 OA
ATOM     29  H   UNL     1       0.561 -10.650   1.779  0.00  0.00    +0.248 HD
ENDBRANCH  25  28
ENDBRANCH  24  25
ENDBRANCH   7  24
BRANCH  11  30
ATOM     30  O   UNL     1      -3.497  -1.328  -0.387  0.00  0.00    -0.317 OA
BRANCH  30  31
ATOM     31  S   UNL     1      -3.242   0.082  -1.140  0.00  0.00    +0.252 S 
ATOM     32  O   UNL     1      -2.446  -0.118  -2.328  0.00  0.00    -0.108 OA
ATOM     33  O   UNL     1      -2.906   1.067  -0.135  0.00  0.00    -0.108 OA
BRANCH  31  34
ATOM     34  O   UNL     1      -4.724   0.496  -1.626  0.00  0.00    -0.222 OA
ATOM     35  H   UNL     1      -5.094   1.115  -0.964  0.00  0.00    +0.248 HD
ENDBRANCH  31  34
ENDBRANCH  30  31
ENDBRANCH  11  30
TORSDOF 10
