REMARK  Name = 
REMARK  12 active torsions:
REMARK  status: ('A' for Active; 'I' for Inactive)
REMARK    1  A    between atoms: C_3  and  O_34
REMARK    2  A    between atoms: C_4  and  O_33
REMARK    3  A    between atoms: C_6  and  C_7
REMARK    4  A    between atoms: C_8  and  O_32
REMARK    5  A    between atoms: C_15  and  O_31
REMARK    6  A    between atoms: C_16  and  C_19
REMARK    7  A    between atoms: C_17  and  O_18
REMARK    8  A    between atoms: C_19  and  C_21
REMARK    9  A    between atoms: C_22  and  O_30
REMARK   10  A    between atoms: C_23  and  O_29
REMARK   11  A    between atoms: C_24  and  O_28
REMARK   12  A    between atoms: C_25  and  O_27
REMARK                            x       y       z     vdW  Elec       q    Type
REMARK                         _______ _______ _______ _____ _____    ______ ____
ROOT
ATOM      1  C   UNL     1      -1.424  -2.527  -0.086  0.00  0.00    +0.181 A 
ATOM      2  O   UNL     1      -0.631  -3.653   0.113  0.00  0.00    -0.451 OA
ATOM      3  C   UNL     1      -1.203  -4.897  -0.001  0.00  0.00    +0.147 A 
ATOM      4  C   UNL     1      -0.359  -6.002  -0.038  0.00  0.00    +0.093 A 
ATOM      5  C   UNL     1      -0.893  -7.294  -0.194  0.00  0.00    +0.134 A 
ATOM      6  C   UNL     1      -2.282  -7.523  -0.242  0.00  0.00    +0.104 A 
ATOM      7  C   UNL     1      -3.117  -6.390  -0.138  0.00  0.00    +0.145 A 
ATOM      8  C   UNL     1      -2.572  -5.092  -0.090  0.00  0.00    +0.110 A 
ATOM      9  C   UNL     1      -3.424  -3.906  -0.243  0.00  0.00    +0.238 A 
ATOM     10  O   UNL     1      -4.641  -4.035  -0.352  0.00  0.00    -0.283 OA
ATOM     11  C   UNL     1      -2.754  -2.590  -0.343  0.00  0.00    +0.208 A 
ENDROOT
BRANCH   1  13
ATOM     12  C   UNL     1      -1.273  -0.059   0.482  0.00  0.00    +0.015 A 
ATOM     13  C   UNL     1      -0.673  -1.237  -0.018  0.00  0.00    +0.025 A 
ATOM     14  C   UNL     1       0.665  -1.161  -0.427  0.00  0.00    +0.060 A 
ATOM     15  C   UNL     1       1.340   0.060  -0.392  0.00  0.00    +0.159 A 
ATOM     16  C   UNL     1       0.707   1.221   0.037  0.00  0.00    +0.158 A 
ATOM     17  C   UNL     1      -0.603   1.170   0.486  0.00  0.00    +0.050 A 
BRANCH  15  18
ATOM     18  O   UNL     1       2.645   0.112  -0.795  0.00  0.00    -0.503 OA
ATOM     19  H   UNL     1       2.902   1.049  -0.678  0.00  0.00    +0.292 HD
ENDBRANCH  15  18
BRANCH  16  20
ATOM     20  O   UNL     1       1.417   2.388   0.003  0.00  0.00    -0.503 OA
ATOM     21  H   UNL     1       0.818   3.118   0.243  0.00  0.00    +0.292 HD
ENDBRANCH  16  20
ENDBRANCH   1  13
BRANCH   5  22
ATOM     22  O   UNL     1       0.005  -8.314  -0.327  0.00  0.00    -0.506 OA
ATOM     23  H   UNL     1       0.794  -8.131   0.213  0.00  0.00    +0.292 HD
ENDBRANCH   5  22
BRANCH   6  24
ATOM     24  C   UNL     1      -2.917  -8.891  -0.425  0.00  0.00    +0.201 C 
ATOM     25  O   UNL     1      -4.104  -9.063  -0.134  0.00  0.00    -0.289 OA
BRANCH  24  26
ATOM     26  C   UNL     1      -2.117 -10.097  -0.961  0.00  0.00    +0.223 C 
ATOM     27  O   UNL     1      -2.793 -10.896  -1.957  0.00  0.00    -0.335 OA
ATOM     28  C   UNL     1      -3.956 -11.599  -1.515  0.00  0.00    +0.279 C 
ATOM     29  C   UNL     1      -3.612 -12.535  -0.342  0.00  0.00    +0.201 C 
ATOM     30  C   UNL     1      -2.903 -11.762   0.770  0.00  0.00    +0.179 C 
ATOM     31  C   UNL     1      -1.694 -11.002   0.208  0.00  0.00    +0.182 C 
BRANCH  28  32
ATOM     32  O   UNL     1      -4.430 -12.379  -2.614  0.00  0.00    -0.365 OA
ATOM     33  H   UNL     1      -4.058 -13.272  -2.514  0.00  0.00    +0.213 HD
ENDBRANCH  28  32
BRANCH  29  34
ATOM     34  O   UNL     1      -2.723 -13.584  -0.810  0.00  0.00    -0.384 OA
ATOM     35  H   UNL     1      -2.159 -13.189  -1.507  0.00  0.00    +0.210 HD
ENDBRANCH  29  34
BRANCH  30  36
ATOM     36  O   UNL     1      -2.419 -12.652   1.790  0.00  0.00    -0.386 OA
ATOM     37  H   UNL     1      -2.114 -13.457   1.326  0.00  0.00    +0.210 HD
ENDBRANCH  30  36
BRANCH  31  38
ATOM     38  O   UNL     1      -1.033 -10.323   1.279  0.00  0.00    -0.386 OA
ATOM     39  H   UNL     1      -1.096 -10.934   2.043  0.00  0.00    +0.210 HD
ENDBRANCH  31  38
ENDBRANCH  24  26
ENDBRANCH   6  24
BRANCH   7  40
ATOM     40  O   UNL     1      -4.480  -6.549  -0.098  0.00  0.00    -0.505 OA
ATOM     41  H   UNL     1      -4.932  -5.677  -0.132  0.00  0.00    +0.292 HD
ENDBRANCH   7  40
BRANCH  11  42
ATOM     42  O   UNL     1      -3.542  -1.519  -0.719  0.00  0.00    -0.501 OA
ATOM     43  H   UNL     1      -2.986  -0.879  -1.196  0.00  0.00    +0.292 HD
ENDBRANCH  11  42
TORSDOF 12
