REMARK  Name = 
REMARK  12 active torsions:
REMARK  status: ('A' for Active; 'I' for Inactive)
REMARK    1  A    between atoms: C_3  and  O_34
REMARK    2  A    between atoms: C_4  and  O_33
REMARK    3  A    between atoms: C_6  and  C_7
REMARK    4  A    between atoms: C_8  and  O_20
REMARK    5  A    between atoms: C_12  and  O_19
REMARK    6  A    between atoms: C_14  and  O_18
REMARK    7  A    between atoms: O_20  and  C_21
REMARK    8  A    between atoms: C_21  and  C_23
REMARK    9  A    between atoms: C_24  and  O_32
REMARK   10  A    between atoms: C_25  and  O_31
REMARK   11  A    between atoms: C_26  and  O_30
REMARK   12  A    between atoms: C_27  and  O_29
REMARK                            x       y       z     vdW  Elec       q    Type
REMARK                         _______ _______ _______ _____ _____    ______ ____
ROOT
ATOM      1  C   UNL     1      -1.200  -2.524  -0.431  0.00  0.00    +0.182 A 
ATOM      2  O   UNL     1      -0.490  -3.713  -0.253  0.00  0.00    -0.451 OA
ATOM      3  C   UNL     1      -1.148  -4.910  -0.355  0.00  0.00    +0.147 A 
ATOM      4  C   UNL     1      -2.483  -5.004  -0.729  0.00  0.00    +0.109 A 
ATOM      5  C   UNL     1      -3.104  -6.258  -0.783  0.00  0.00    +0.135 A 
ATOM      6  C   UNL     1      -2.382  -7.417  -0.503  0.00  0.00    +0.091 A 
ATOM      7  C   UNL     1      -1.041  -7.309  -0.145  0.00  0.00    +0.124 A 
ATOM      8  C   UNL     1      -3.215  -3.766  -1.023  0.00  0.00    +0.239 A 
ATOM      9  O   UNL     1      -4.413  -3.809  -1.295  0.00  0.00    -0.283 OA
ATOM     10  C   UNL     1      -0.423  -6.065  -0.054  0.00  0.00    +0.092 A 
ATOM     11  C   UNL     1      -2.490  -2.477  -0.856  0.00  0.00    +0.221 A 
ENDROOT
BRANCH   1  13
ATOM     12  C   UNL     1       0.382  -1.428   1.166  0.00  0.00    +0.015 A 
ATOM     13  C   UNL     1      -0.440  -1.337   0.020  0.00  0.00    +0.025 A 
ATOM     14  C   UNL     1      -0.529  -0.101  -0.634  0.00  0.00    +0.060 A 
ATOM     15  C   UNL     1       0.078   1.021  -0.082  0.00  0.00    +0.159 A 
ATOM     16  C   UNL     1       0.813   0.932   1.096  0.00  0.00    +0.158 A 
ATOM     17  C   UNL     1       1.007  -0.297   1.707  0.00  0.00    +0.050 A 
BRANCH  15  18
ATOM     18  O   UNL     1      -0.088   2.231  -0.694  0.00  0.00    -0.503 OA
ATOM     19  H   UNL     1       0.441   2.851  -0.151  0.00  0.00    +0.292 HD
ENDBRANCH  15  18
BRANCH  16  20
ATOM     20  O   UNL     1       1.308   2.088   1.629  0.00  0.00    -0.503 OA
ATOM     21  H   UNL     1       1.526   1.916   2.562  0.00  0.00    +0.292 HD
ENDBRANCH  16  20
ENDBRANCH   1  13
BRANCH   5  22
ATOM     22  O   UNL     1      -4.427  -6.423  -1.093  0.00  0.00    -0.506 OA
ATOM     23  H   UNL     1      -4.820  -5.534  -1.248  0.00  0.00    +0.292 HD
ENDBRANCH   5  22
BRANCH   7  24
ATOM     24  O   UNL     1      -0.290  -8.414   0.125  0.00  0.00    -0.507 OA
ATOM     25  H   UNL     1      -0.817  -9.208  -0.068  0.00  0.00    +0.292 HD
ENDBRANCH   7  24
BRANCH  11  26
ATOM     26  O   UNL     1      -3.270  -1.306  -0.840  0.00  0.00    -0.416 OA
BRANCH  26  27
ATOM     27  C   UNL     1      -4.022  -0.923  -1.934  0.00  0.00    +0.345 C 
ATOM     28  O   UNL     1      -3.796  -1.224  -3.100  0.00  0.00    -0.247 OA
BRANCH  27  29
ATOM     29  C   UNL     1      -5.242  -0.087  -1.416  0.00  0.00    +0.261 C 
ATOM     30  O   UNL     1      -6.409   0.099  -2.224  0.00  0.00    -0.332 OA
ATOM     31  C   UNL     1      -6.534   1.289  -2.997  0.00  0.00    +0.280 C 
ATOM     32  C   UNL     1      -6.308   2.545  -2.143  0.00  0.00    +0.201 C 
ATOM     33  C   UNL     1      -4.922   2.449  -1.525  0.00  0.00    +0.179 C 
ATOM     34  C   UNL     1      -4.825   1.193  -0.657  0.00  0.00    +0.185 C 
BRANCH  31  35
ATOM     35  O   UNL     1      -7.869   1.333  -3.498  0.00  0.00    -0.365 OA
ATOM     36  H   UNL     1      -8.393   1.846  -2.856  0.00  0.00    +0.213 HD
ENDBRANCH  31  35
BRANCH  32  37
ATOM     37  O   UNL     1      -7.311   2.628  -1.100  0.00  0.00    -0.384 OA
ATOM     38  H   UNL     1      -7.560   1.717  -0.846  0.00  0.00    +0.210 HD
ENDBRANCH  32  37
BRANCH  33  39
ATOM     39  O   UNL     1      -4.646   3.597  -0.713  0.00  0.00    -0.386 OA
ATOM     40  H   UNL     1      -5.381   3.678  -0.073  0.00  0.00    +0.210 HD
ENDBRANCH  33  39
BRANCH  34  41
ATOM     41  O   UNL     1      -3.547   1.108  -0.034  0.00  0.00    -0.386 OA
ATOM     42  H   UNL     1      -2.998   1.864  -0.325  0.00  0.00    +0.210 HD
ENDBRANCH  34  41
ENDBRANCH  27  29
ENDBRANCH  26  27
ENDBRANCH  11  26
TORSDOF 12
