REMARK  Name = 
REMARK  26 active torsions:
REMARK  status: ('A' for Active; 'I' for Inactive)
REMARK    1  A    between atoms: C_1  and  C_2
REMARK    2  A    between atoms: C_4  and  O_66
REMARK    3  A    between atoms: C_6  and  O_65
REMARK    4  A    between atoms: C_8  and  O_64
REMARK    5  A    between atoms: C_10  and  C_12
REMARK    6  A    between atoms: C_10  and  O_63
REMARK    7  A    between atoms: C_12  and  O_62
REMARK    8  A    between atoms: C_13  and  O_61
REMARK    9  A    between atoms: C_14  and  O_60
REMARK   10  A    between atoms: C_15  and  C_58
REMARK   11  A    between atoms: C_17  and  O_18
REMARK   12  A    between atoms: C_17  and  O_19
REMARK   13  A    between atoms: O_19  and  C_20
REMARK   14  A    between atoms: C_21  and  C_50
REMARK   15  A    between atoms: C_27  and  O_37
REMARK   16  A    between atoms: C_29  and  O_36
REMARK   17  A    between atoms: O_37  and  C_38
REMARK   18  A    between atoms: C_38  and  O_49
REMARK   19  A    between atoms: C_39  and  O_48
REMARK   20  A    between atoms: C_40  and  O_47
REMARK   21  A    between atoms: C_41  and  O_46
REMARK   22  A    between atoms: C_42  and  C_44
REMARK   23  A    between atoms: C_44  and  O_45
REMARK   24  A    between atoms: C_52  and  O_57
REMARK   25  A    between atoms: C_53  and  O_56
REMARK   26  A    between atoms: C_58  and  O_59
REMARK                            x       y       z     vdW  Elec       q    Type
REMARK                         _______ _______ _______ _____ _____    ______ ____
ROOT
ATOM      1  C   UNL     1      -1.514  -0.911  -2.611  0.00  0.00    +0.216 A 
ATOM      2  C   UNL     1      -1.314  -2.412  -2.621  0.00  0.00    +0.239 A 
ATOM      3  O   UNL     1      -0.651  -3.052  -3.421  0.00  0.00    -0.283 OA
ATOM      4  C   UNL     1      -2.091  -3.144  -1.609  0.00  0.00    +0.117 A 
ATOM      5  C   UNL     1      -2.522  -4.477  -1.737  0.00  0.00    +0.190 A 
ATOM      6  C   UNL     1      -3.372  -4.948  -0.716  0.00  0.00    +0.247 A 
ATOM      7  O   UNL     1      -2.864  -6.078  -0.040  0.00  0.00    -0.309 OA
ATOM      8  S   UNL     1      -2.053  -5.669   1.347  0.00  0.00    +0.300 S 
ATOM      9  O   UNL     1      -0.726  -6.244   1.252  0.00  0.00    -0.097 OA
ATOM     10  O   UNL     1      -2.918  -5.980   2.473  0.00  0.00    -0.097 OA
ATOM     11  O   UNL     1      -1.915  -3.993   1.303  0.00  0.00    -0.309 OA
ATOM     12  C   UNL     1      -2.976  -3.196   0.605  0.00  0.00    +0.247 A 
ATOM     13  C   UNL     1      -3.942  -4.068   0.186  0.00  0.00    +0.215 A 
ATOM     14  C   UNL     1      -2.384  -2.460  -0.433  0.00  0.00    +0.191 A 
ATOM     15  O   UNL     1      -2.289  -1.088  -0.316  0.00  0.00    -0.447 OA
ATOM     16  C   UNL     1      -2.035  -0.360  -1.477  0.00  0.00    +0.181 A 
ENDROOT
BRANCH  16  17
ATOM     17  C   UNL     1      -2.546   1.062  -1.516  0.00  0.00    +0.025 A 
ATOM     18  C   UNL     1      -1.860   2.082  -2.224  0.00  0.00    +0.015 A 
ATOM     19  C   UNL     1      -2.474   3.295  -2.569  0.00  0.00    +0.050 A 
ATOM     20  C   UNL     1      -3.760   3.542  -2.137  0.00  0.00    +0.158 A 
ATOM     21  C   UNL     1      -4.430   2.600  -1.361  0.00  0.00    +0.159 A 
ATOM     22  C   UNL     1      -3.839   1.366  -1.049  0.00  0.00    +0.060 A 
BRANCH  21  23
ATOM     23  O   UNL     1      -5.702   2.923  -0.968  0.00  0.00    -0.503 OA
ATOM     24  H   UNL     1      -6.085   2.162  -0.500  0.00  0.00    +0.292 HD
ENDBRANCH  21  23
BRANCH  20  25
ATOM     25  O   UNL     1      -4.371   4.709  -2.498  0.00  0.00    -0.503 OA
ATOM     26  H   UNL     1      -5.255   4.671  -2.083  0.00  0.00    +0.292 HD
ENDBRANCH  20  25
ENDBRANCH  16  17
BRANCH  13  27
ATOM     27  O   UNL     1      -4.882  -4.562   1.049  0.00  0.00    -0.501 OA
ATOM     28  H   UNL     1      -4.541  -4.632   1.963  0.00  0.00    +0.292 HD
ENDBRANCH  13  27
BRANCH   5  29
ATOM     29  O   UNL     1      -2.041  -5.276  -2.736  0.00  0.00    -0.432 OA
BRANCH  29  30
ATOM     30  C   UNL     1      -2.799  -6.453  -3.104  0.00  0.00    +0.358 C 
ATOM     31  O   UNL     1      -2.428  -7.607  -2.335  0.00  0.00    -0.307 OA
ATOM     32  C   UNL     1      -1.041  -7.970  -2.478  0.00  0.00    +0.181 C 
ATOM     33  C   UNL     1      -0.744  -8.336  -3.945  0.00  0.00    +0.177 C 
ATOM     34  C   UNL     1      -1.079  -7.141  -4.843  0.00  0.00    +0.183 C 
ATOM     35  C   UNL     1      -2.542  -6.739  -4.616  0.00  0.00    +0.249 C 
BRANCH  35  36
ATOM     36  O   UNL     1      -2.933  -5.606  -5.415  0.00  0.00    -0.380 OA
ATOM     37  H   UNL     1      -2.151  -5.028  -5.487  0.00  0.00    +0.210 HD
ENDBRANCH  35  36
BRANCH  34  38
ATOM     38  O   UNL     1      -0.880  -7.507  -6.217  0.00  0.00    -0.386 OA
ATOM     39  H   UNL     1      -1.225  -8.421  -6.297  0.00  0.00    +0.210 HD
ENDBRANCH  34  38
BRANCH  33  40
ATOM     40  O   UNL     1      -1.552  -9.422  -4.438  0.00  0.00    -0.386 OA
ATOM     41  H   UNL     1      -2.092  -9.757  -3.694  0.00  0.00    +0.210 HD
ENDBRANCH  33  40
BRANCH  30  42
ATOM     42  O   UNL     1      -4.206  -6.248  -2.963  0.00  0.00    -0.331 OA
ATOM     43  H   UNL     1      -4.534  -6.034  -3.855  0.00  0.00    +0.216 HD
ENDBRANCH  30  42
BRANCH  32  44
ATOM     44  C   UNL     1      -0.761  -9.124  -1.505  0.00  0.00    +0.190 C 
BRANCH  44  45
ATOM     45  O   UNL     1      -1.576 -10.254  -1.814  0.00  0.00    -0.392 OA
ATOM     46  H   UNL     1      -2.488 -10.004  -1.572  0.00  0.00    +0.210 HD
ENDBRANCH  44  45
ENDBRANCH  32  44
ENDBRANCH  29  30
ENDBRANCH   5  29
BRANCH   1  47
ATOM     47  O   UNL     1      -1.421  -0.101  -3.737  0.00  0.00    -0.428 OA
BRANCH  47  49
ATOM     48  C   UNL     1      -1.028   0.478  -6.116  0.00  0.00    +0.244 C 
ATOM     49  C   UNL     1      -1.055  -0.628  -5.003  0.00  0.00    +0.367 C 
ATOM     50  O   UNL     1      -1.999  -1.630  -5.403  0.00  0.00    -0.306 OA
ATOM     51  C   UNL     1      -3.384  -1.188  -5.490  0.00  0.00    +0.181 C 
ATOM     52  C   UNL     1      -3.554   0.037  -6.413  0.00  0.00    +0.177 C 
ATOM     53  C   UNL     1      -2.450   1.078  -6.191  0.00  0.00    +0.192 C 
BRANCH  48  57
ATOM     54  C   UNL     1       0.762  -3.170  -6.474  0.00  0.00    +0.041 C 
ATOM     55  C   UNL     1       0.800  -2.241  -7.690  0.00  0.00    +0.150 C 
ATOM     56  O   UNL     1       0.832  -0.836  -7.344  0.00  0.00    -0.338 OA
ATOM     57  C   UNL     1      -0.300   0.035  -7.521  0.00  0.00    +0.238 C 
ATOM     58  C   UNL     1      -1.100  -0.389  -8.780  0.00  0.00    +0.208 C 
ATOM     59  C   UNL     1      -1.470  -1.868  -8.840  0.00  0.00    +0.179 C 
ATOM     60  C   UNL     1      -0.204  -2.711  -8.768  0.00  0.00    +0.174 C 
BRANCH  60  61
ATOM     61  O   UNL     1       0.406  -2.680 -10.067  0.00  0.00    -0.387 OA
ATOM     62  H   UNL     1       1.080  -1.979 -10.101  0.00  0.00    +0.210 HD
ENDBRANCH  60  61
BRANCH  59  63
ATOM     63  O   UNL     1      -2.408  -2.243  -7.859  0.00  0.00    -0.386 OA
ATOM     64  H   UNL     1      -1.952  -2.508  -7.033  0.00  0.00    +0.210 HD
ENDBRANCH  59  63
BRANCH  58  65
ATOM     65  O   UNL     1      -2.162   0.525  -9.062  0.00  0.00    -0.384 OA
ATOM     66  H   UNL     1      -2.943   0.017  -9.354  0.00  0.00    +0.210 HD
ENDBRANCH  58  65
BRANCH  57  67
ATOM     67  O   UNL     1       0.299   1.322  -7.929  0.00  0.00    -0.360 OA
ATOM     68  H   UNL     1       0.433   1.328  -8.891  0.00  0.00    +0.213 HD
ENDBRANCH  57  67
ENDBRANCH  48  57
BRANCH  53  69
ATOM     69  O   UNL     1      -2.575   2.163  -7.123  0.00  0.00    -0.386 OA
ATOM     70  H   UNL     1      -2.234   1.866  -7.995  0.00  0.00    +0.210 HD
ENDBRANCH  53  69
BRANCH  52  71
ATOM     71  O   UNL     1      -4.841   0.652  -6.251  0.00  0.00    -0.386 OA
ATOM     72  H   UNL     1      -4.737   1.580  -6.549  0.00  0.00    +0.210 HD
ENDBRANCH  52  71
BRANCH  49  73
ATOM     73  O   UNL     1       0.278  -1.071  -4.836  0.00  0.00    -0.330 OA
ATOM     74  H   UNL     1       0.863  -0.351  -5.158  0.00  0.00    +0.216 HD
ENDBRANCH  49  73
BRANCH  48  75
ATOM     75  O   UNL     1      -0.192   1.565  -5.550  0.00  0.00    -0.374 OA
ATOM     76  H   UNL     1      -0.235   2.277  -6.225  0.00  0.00    +0.211 HD
ENDBRANCH  48  75
BRANCH  51  77
ATOM     77  C   UNL     1      -4.127  -1.002  -4.157  0.00  0.00    +0.190 C 
BRANCH  77  78
ATOM     78  O   UNL     1      -5.540  -0.985  -4.330  0.00  0.00    -0.392 OA
ATOM     79  H   UNL     1      -5.708  -0.332  -5.046  0.00  0.00    +0.210 HD
ENDBRANCH  77  78
ENDBRANCH  51  77
ENDBRANCH  47  49
ENDBRANCH   1  47
TORSDOF 25
