REMARK  Name = 
REMARK  18 active torsions:
REMARK  status: ('A' for Active; 'I' for Inactive)
REMARK    1  A    between atoms: C_2  and  C_42
REMARK    2  A    between atoms: C_4  and  O_9
REMARK    3  A    between atoms: C_5  and  O_8
REMARK    4  A    between atoms: C_6  and  O_7
REMARK    5  A    between atoms: O_9  and  C_10
REMARK    6  A    between atoms: C_12  and  O_41
REMARK    7  A    between atoms: C_14  and  O_40
REMARK    8  A    between atoms: C_16  and  O_39
REMARK    9  A    between atoms: C_18  and  C_21
REMARK   10  A    between atoms: C_21  and  O_22
REMARK   11  A    between atoms: O_22  and  C_23
REMARK   12  A    between atoms: C_25  and  O_38
REMARK   13  A    between atoms: C_27  and  O_37
REMARK   14  A    between atoms: C_29  and  O_36
REMARK   15  A    between atoms: C_31  and  C_34
REMARK   16  A    between atoms: C_34  and  O_35
REMARK   17  A    between atoms: C_47  and  O_54
REMARK   18  A    between atoms: C_49  and  O_53
REMARK                            x       y       z     vdW  Elec       q    Type
REMARK                         _______ _______ _______ _____ _____    ______ ____
ROOT
ATOM      1  C   UNL     1      -0.174  -3.253   0.011  0.00  0.00    +0.339 C 
ATOM      2  O   UNL     1      -0.247  -4.620   0.367  0.00  0.00    -0.331 OA
ATOM      3  C   UNL     1       0.233  -5.615  -0.511  0.00  0.00    +0.179 C 
ATOM      4  C   UNL     1      -0.043  -5.356  -2.008  0.00  0.00    +0.177 C 
ATOM      5  C   UNL     1       0.221  -3.919  -2.434  0.00  0.00    +0.180 C 
ATOM      6  C   UNL     1      -0.472  -2.948  -1.473  0.00  0.00    +0.214 C 
ENDROOT
BRANCH   6   7
ATOM      7  O   UNL     1      -1.909  -2.993  -1.632  0.00  0.00    -0.383 OA
ATOM      8  H   UNL     1      -2.161  -3.935  -1.490  0.00  0.00    +0.210 HD
ENDBRANCH   6   7
BRANCH   5   9
ATOM      9  O   UNL     1       1.626  -3.734  -2.554  0.00  0.00    -0.386 OA
ATOM     10  H   UNL     1       1.856  -2.808  -2.359  0.00  0.00    +0.210 HD
ENDBRANCH   5   9
BRANCH   4  11
ATOM     11  O   UNL     1      -1.456  -5.600  -2.230  0.00  0.00    -0.386 OA
ATOM     12  H   UNL     1      -1.628  -5.509  -3.188  0.00  0.00    +0.210 HD
ENDBRANCH   4  11
BRANCH   3  13
ATOM     13  C   UNL     1       1.630  -5.890   0.025  0.00  0.00    +0.197 C 
BRANCH  13  14
ATOM     14  O   UNL     1       1.593  -6.153   1.480  0.00  0.00    -0.346 OA
BRANCH  14  15
ATOM     15  C   UNL     1       0.774  -7.271   1.903  0.00  0.00    +0.282 C 
ATOM     16  O   UNL     1       0.709  -7.404   3.335  0.00  0.00    -0.341 OA
ATOM     17  C   UNL     1       1.786  -8.015   4.064  0.00  0.00    +0.178 C 
ATOM     18  C   UNL     1       2.653  -9.048   3.304  0.00  0.00    +0.177 C 
ATOM     19  C   UNL     1       2.727  -8.759   1.806  0.00  0.00    +0.179 C 
ATOM     20  C   UNL     1       1.301  -8.558   1.265  0.00  0.00    +0.201 C 
BRANCH  20  21
ATOM     21  O   UNL     1       0.442  -9.679   1.502  0.00  0.00    -0.384 OA
ATOM     22  H   UNL     1       0.551  -9.951   2.438  0.00  0.00    +0.210 HD
ENDBRANCH  20  21
BRANCH  19  23
ATOM     23  O   UNL     1       3.618  -7.657   1.579  0.00  0.00    -0.386 OA
ATOM     24  H   UNL     1       3.148  -6.815   1.810  0.00  0.00    +0.210 HD
ENDBRANCH  19  23
BRANCH  18  25
ATOM     25  O   UNL     1       2.062 -10.353   3.474  0.00  0.00    -0.386 OA
ATOM     26  H   UNL     1       2.618 -10.986   2.978  0.00  0.00    +0.210 HD
ENDBRANCH  18  25
BRANCH  17  27
ATOM     27  C   UNL     1       2.638  -6.943   4.763  0.00  0.00    +0.190 C 
BRANCH  27  28
ATOM     28  O   UNL     1       1.864  -6.113   5.631  0.00  0.00    -0.392 OA
ATOM     29  H   UNL     1       1.099  -6.624   5.947  0.00  0.00    +0.210 HD
ENDBRANCH  27  28
ENDBRANCH  17  27
ENDBRANCH  14  15
ENDBRANCH  13  14
ENDBRANCH   3  13
BRANCH   1  30
ATOM     30  O   UNL     1       0.795  -2.335   0.559  0.00  0.00    -0.457 OA
BRANCH  30  34
ATOM     31  C   UNL     1      -0.592   1.592   0.012  0.00  0.00    +0.061 A 
ATOM     32  C   UNL     1      -1.512   0.596   0.193  0.00  0.00    +0.163 A 
ATOM     33  C   UNL     1      -1.089  -0.673   0.536  0.00  0.00    +0.201 A 
ATOM     34  C   UNL     1       0.277  -1.031   0.561  0.00  0.00    +0.170 A 
ATOM     35  C   UNL     1       1.224   0.032   0.443  0.00  0.00    +0.061 A 
ATOM     36  C   UNL     1       0.775   1.356   0.228  0.00  0.00    +0.025 A 
BRANCH  36  37
ATOM     37  C   UNL     1       1.672   2.535   0.185  0.00  0.00    +0.139 A 
ATOM     38  O   UNL     1       2.929   2.337  -0.361  0.00  0.00    -0.454 OA
ATOM     39  C   UNL     1       3.740   3.437  -0.520  0.00  0.00    +0.146 A 
ATOM     40  C   UNL     1       3.355   4.725  -0.152  0.00  0.00    +0.105 A 
ATOM     41  C   UNL     1       4.206   5.816  -0.380  0.00  0.00    +0.135 A 
ATOM     42  C   UNL     1       5.454   5.612  -0.958  0.00  0.00    +0.091 A 
ATOM     43  C   UNL     1       5.840   4.320  -1.299  0.00  0.00    +0.124 A 
ATOM     44  C   UNL     1       2.051   4.915   0.478  0.00  0.00    +0.197 A 
ATOM     45  O   UNL     1       1.658   6.022   0.827  0.00  0.00    -0.287 OA
ATOM     46  C   UNL     1       4.993   3.230  -1.089  0.00  0.00    +0.092 A 
ATOM     47  C   UNL     1       1.227   3.720   0.637  0.00  0.00    +0.098 A 
BRANCH  43  48
ATOM     48  O   UNL     1       7.062   4.074  -1.853  0.00  0.00    -0.507 OA
ATOM     49  H   UNL     1       7.554   4.912  -1.907  0.00  0.00    +0.292 HD
ENDBRANCH  43  48
BRANCH  41  50
ATOM     50  O   UNL     1       3.870   7.106  -0.067  0.00  0.00    -0.506 OA
ATOM     51  H   UNL     1       2.967   7.103   0.327  0.00  0.00    +0.292 HD
ENDBRANCH  41  50
ENDBRANCH  36  37
BRANCH  33  52
ATOM     52  O   UNL     1      -2.164  -1.509   0.766  0.00  0.00    -0.501 OA
ATOM     53  H   UNL     1      -2.364  -1.945  -0.090  0.00  0.00    +0.292 HD
ENDBRANCH  33  52
BRANCH  32  54
ATOM     54  O   UNL     1      -2.846   0.840  -0.002  0.00  0.00    -0.503 OA
ATOM     55  H   UNL     1      -3.282  -0.006   0.239  0.00  0.00    +0.292 HD
ENDBRANCH  32  54
ENDBRANCH  30  34
ENDBRANCH   1  30
TORSDOF 18
