REMARK  Name = 
REMARK  24 active torsions:
REMARK  status: ('A' for Active; 'I' for Inactive)
REMARK    1  A    between atoms: C_3  and  O_70
REMARK    2  A    between atoms: C_4  and  O_69
REMARK    3  A    between atoms: C_6  and  C_7
REMARK    4  A    between atoms: C_8  and  O_52
REMARK    5  A    between atoms: C_12  and  O_51
REMARK    6  A    between atoms: C_14  and  O_18
REMARK    7  A    between atoms: O_18  and  C_19
REMARK    8  A    between atoms: C_21  and  O_50
REMARK    9  A    between atoms: C_23  and  O_49
REMARK   10  A    between atoms: C_25  and  O_48
REMARK   11  A    between atoms: C_27  and  C_30
REMARK   12  A    between atoms: C_30  and  O_31
REMARK   13  A    between atoms: O_31  and  C_32
REMARK   14  A    between atoms: C_34  and  O_47
REMARK   15  A    between atoms: C_36  and  O_46
REMARK   16  A    between atoms: C_38  and  O_45
REMARK   17  A    between atoms: C_40  and  C_43
REMARK   18  A    between atoms: C_43  and  O_44
REMARK   19  A    between atoms: O_52  and  C_53
REMARK   20  A    between atoms: C_55  and  O_68
REMARK   21  A    between atoms: C_57  and  O_67
REMARK   22  A    between atoms: C_59  and  O_66
REMARK   23  A    between atoms: C_61  and  C_64
REMARK   24  A    between atoms: C_64  and  O_65
REMARK                            x       y       z     vdW  Elec       q    Type
REMARK                         _______ _______ _______ _____ _____    ______ ____
ROOT
ATOM      1  C   UNL     1      -1.370  -2.616   0.906  0.00  0.00    +0.181 A 
ATOM      2  O   UNL     1      -0.771  -3.871   1.034  0.00  0.00    -0.451 OA
ATOM      3  C   UNL     1      -1.380  -4.974   0.493  0.00  0.00    +0.147 A 
ATOM      4  C   UNL     1      -2.700  -4.951   0.071  0.00  0.00    +0.109 A 
ATOM      5  C   UNL     1      -3.302  -6.141  -0.372  0.00  0.00    +0.135 A 
ATOM      6  C   UNL     1      -2.551  -7.331  -0.461  0.00  0.00    +0.092 A 
ATOM      7  C   UNL     1      -1.203  -7.332  -0.103  0.00  0.00    +0.131 A 
ATOM      8  C   UNL     1      -3.407  -3.663   0.085  0.00  0.00    +0.238 A 
ATOM      9  O   UNL     1      -4.612  -3.626  -0.144  0.00  0.00    -0.283 OA
ATOM     10  C   UNL     1      -0.629  -6.156   0.410  0.00  0.00    +0.093 A 
ATOM     11  C   UNL     1      -2.593  -2.432   0.347  0.00  0.00    +0.214 A 
ENDROOT
BRANCH   1  13
ATOM     12  C   UNL     1       0.876  -1.719   1.634  0.00  0.00    +0.015 A 
ATOM     13  C   UNL     1      -0.510  -1.520   1.457  0.00  0.00    +0.025 A 
ATOM     14  C   UNL     1      -1.040  -0.291   1.888  0.00  0.00    +0.060 A 
ATOM     15  C   UNL     1      -0.223   0.694   2.426  0.00  0.00    +0.159 A 
ATOM     16  C   UNL     1       1.126   0.457   2.636  0.00  0.00    +0.158 A 
ATOM     17  C   UNL     1       1.689  -0.747   2.238  0.00  0.00    +0.050 A 
BRANCH  16  18
ATOM     18  O   UNL     1       1.852   1.428   3.264  0.00  0.00    -0.503 OA
ATOM     19  H   UNL     1       2.673   1.022   3.593  0.00  0.00    +0.292 HD
ENDBRANCH  16  18
BRANCH  15  20
ATOM     20  O   UNL     1      -0.772   1.897   2.768  0.00  0.00    -0.503 OA
ATOM     21  H   UNL     1      -0.016   2.427   3.092  0.00  0.00    +0.292 HD
ENDBRANCH  15  20
ENDBRANCH   1  13
BRANCH   5  22
ATOM     22  O   UNL     1      -4.607  -6.211  -0.762  0.00  0.00    -0.506 OA
ATOM     23  H   UNL     1      -5.024  -5.327  -0.612  0.00  0.00    +0.292 HD
ENDBRANCH   5  22
BRANCH  11  24
ATOM     24  O   UNL     1      -3.168  -1.191   0.046  0.00  0.00    -0.453 OA
BRANCH  24  25
ATOM     25  C   UNL     1      -2.449  -0.520  -1.009  0.00  0.00    +0.340 C 
ATOM     26  O   UNL     1      -2.147   0.853  -0.721  0.00  0.00    -0.331 OA
ATOM     27  C   UNL     1      -2.983   1.930  -1.176  0.00  0.00    +0.179 C 
ATOM     28  C   UNL     1      -3.889   1.666  -2.397  0.00  0.00    +0.177 C 
ATOM     29  C   UNL     1      -4.331   0.204  -2.503  0.00  0.00    +0.180 C 
ATOM     30  C   UNL     1      -3.105  -0.701  -2.379  0.00  0.00    +0.214 C 
BRANCH  30  31
ATOM     31  O   UNL     1      -2.146  -0.364  -3.411  0.00  0.00    -0.383 OA
ATOM     32  H   UNL     1      -1.491   0.249  -3.008  0.00  0.00    +0.210 HD
ENDBRANCH  30  31
BRANCH  29  33
ATOM     33  O   UNL     1      -5.348  -0.136  -1.568  0.00  0.00    -0.386 OA
ATOM     34  H   UNL     1      -5.138   0.259  -0.693  0.00  0.00    +0.210 HD
ENDBRANCH  29  33
BRANCH  28  35
ATOM     35  O   UNL     1      -3.155   2.059  -3.578  0.00  0.00    -0.386 OA
ATOM     36  H   UNL     1      -2.916   1.251  -4.076  0.00  0.00    +0.210 HD
ENDBRANCH  28  35
BRANCH  27  37
ATOM     37  C   UNL     1      -3.760   2.545  -0.009  0.00  0.00    +0.190 C 
BRANCH  37  38
ATOM     38  O   UNL     1      -4.769   1.648   0.443  0.00  0.00    -0.392 OA
ATOM     39  H   UNL     1      -4.491   1.354   1.330  0.00  0.00    +0.210 HD
ENDBRANCH  37  38
ENDBRANCH  27  37
ENDBRANCH  24  25
ENDBRANCH  11  24
BRANCH   7  40
ATOM     40  O   UNL     1      -0.530  -8.529  -0.246  0.00  0.00    -0.461 OA
BRANCH  40  41
ATOM     41  C   UNL     1       0.799  -8.391  -0.785  0.00  0.00    +0.339 C 
ATOM     42  O   UNL     1       1.017  -9.243  -1.917  0.00  0.00    -0.331 OA
ATOM     43  C   UNL     1       1.609 -10.535  -1.758  0.00  0.00    +0.179 C 
ATOM     44  C   UNL     1       2.782 -10.537  -0.758  0.00  0.00    +0.177 C 
ATOM     45  C   UNL     1       2.387  -9.903   0.574  0.00  0.00    +0.180 C 
ATOM     46  C   UNL     1       1.849  -8.486   0.352  0.00  0.00    +0.214 C 
BRANCH  46  47
ATOM     47  O   UNL     1       2.948  -7.600   0.065  0.00  0.00    -0.383 OA
ATOM     48  H   UNL     1       3.334  -7.907  -0.784  0.00  0.00    +0.210 HD
ENDBRANCH  46  47
BRANCH  45  49
ATOM     49  O   UNL     1       1.491 -10.753   1.284  0.00  0.00    -0.386 OA
ATOM     50  H   UNL     1       0.589 -10.383   1.254  0.00  0.00    +0.210 HD
ENDBRANCH  45  49
BRANCH  44  51
ATOM     51  O   UNL     1       3.866  -9.775  -1.324  0.00  0.00    -0.386 OA
ATOM     52  H   UNL     1       4.657  -9.944  -0.776  0.00  0.00    +0.210 HD
ENDBRANCH  44  51
BRANCH  43  53
ATOM     53  C   UNL     1       0.577 -11.657  -1.490  0.00  0.00    +0.197 C 
BRANCH  53  54
ATOM     54  O   UNL     1      -0.499 -11.819  -2.432  0.00  0.00    -0.346 OA
BRANCH  54  55
ATOM     55  C   UNL     1      -0.157 -11.965  -3.812  0.00  0.00    +0.282 C 
ATOM     56  O   UNL     1      -1.326 -11.849  -4.635  0.00  0.00    -0.341 OA
ATOM     57  C   UNL     1      -2.268 -12.933  -4.658  0.00  0.00    +0.178 C 
ATOM     58  C   UNL     1      -1.607 -14.320  -4.804  0.00  0.00    +0.177 C 
ATOM     59  C   UNL     1      -0.365 -14.474  -3.913  0.00  0.00    +0.179 C 
ATOM     60  C   UNL     1       0.589 -13.286  -4.112  0.00  0.00    +0.201 C 
BRANCH  60  61
ATOM     61  O   UNL     1       1.122 -13.284  -5.443  0.00  0.00    -0.384 OA
ATOM     62  H   UNL     1       0.353 -13.319  -6.055  0.00  0.00    +0.210 HD
ENDBRANCH  60  61
BRANCH  59  63
ATOM     63  O   UNL     1      -0.736 -14.650  -2.544  0.00  0.00    -0.386 OA
ATOM     64  H   UNL     1      -0.887 -13.767  -2.148  0.00  0.00    +0.210 HD
ENDBRANCH  59  63
BRANCH  58  65
ATOM     65  O   UNL     1      -1.213 -14.483  -6.180  0.00  0.00    -0.386 OA
ATOM     66  H   UNL     1      -1.246 -15.438  -6.377  0.00  0.00    +0.210 HD
ENDBRANCH  58  65
BRANCH  57  67
ATOM     67  C   UNL     1      -3.282 -12.915  -3.499  0.00  0.00    +0.190 C 
BRANCH  67  68
ATOM     68  O   UNL     1      -3.998 -11.686  -3.417  0.00  0.00    -0.392 OA
ATOM     69  H   UNL     1      -4.748 -11.728  -4.033  0.00  0.00    +0.210 HD
ENDBRANCH  67  68
ENDBRANCH  57  67
ENDBRANCH  54  55
ENDBRANCH  53  54
ENDBRANCH  43  53
ENDBRANCH  40  41
ENDBRANCH   7  40
TORSDOF 24
