REMARK  Name = 
REMARK  13 active torsions:
REMARK  status: ('A' for Active; 'I' for Inactive)
REMARK    1  A    between atoms: C_3  and  O_33
REMARK    2  A    between atoms: C_4  and  O_32
REMARK    3  A    between atoms: C_6  and  C_7
REMARK    4  A    between atoms: C_8  and  O_20
REMARK    5  A    between atoms: C_12  and  O_19
REMARK    6  A    between atoms: C_14  and  O_18
REMARK    7  A    between atoms: O_20  and  C_21
REMARK    8  A    between atoms: C_22  and  O_31
REMARK    9  A    between atoms: C_23  and  O_30
REMARK   10  A    between atoms: C_24  and  C_26
REMARK   11  A    between atoms: C_26  and  C_27
REMARK   12  A    between atoms: C_26  and  O_29
REMARK   13  A    between atoms: C_27  and  O_28
REMARK                            x       y       z     vdW  Elec       q    Type
REMARK                         _______ _______ _______ _____ _____    ______ ____
ROOT
ATOM      1  C   UNL     1      -1.208  -2.605  -0.180  0.00  0.00    +0.181 A 
ATOM      2  O   UNL     1      -0.481  -3.804  -0.151  0.00  0.00    -0.451 OA
ATOM      3  C   UNL     1      -1.132  -5.006  -0.218  0.00  0.00    +0.147 A 
ATOM      4  C   UNL     1      -2.488  -5.100  -0.477  0.00  0.00    +0.109 A 
ATOM      5  C   UNL     1      -3.102  -6.356  -0.589  0.00  0.00    +0.135 A 
ATOM      6  C   UNL     1      -2.362  -7.521  -0.422  0.00  0.00    +0.091 A 
ATOM      7  C   UNL     1      -1.003  -7.419  -0.153  0.00  0.00    +0.124 A 
ATOM      8  C   UNL     1      -3.244  -3.862  -0.631  0.00  0.00    +0.238 A 
ATOM      9  O   UNL     1      -4.403  -3.941  -1.038  0.00  0.00    -0.283 OA
ATOM     10  C   UNL     1      -0.381  -6.173  -0.050  0.00  0.00    +0.092 A 
ATOM     11  C   UNL     1      -2.563  -2.568  -0.302  0.00  0.00    +0.214 A 
ENDROOT
BRANCH   1  13
ATOM     12  C   UNL     1      -0.733  -0.099  -0.460  0.00  0.00    +0.015 A 
ATOM     13  C   UNL     1      -0.288  -1.402  -0.151  0.00  0.00    +0.025 A 
ATOM     14  C   UNL     1       1.104  -1.559   0.042  0.00  0.00    +0.060 A 
ATOM     15  C   UNL     1       1.976  -0.481  -0.136  0.00  0.00    +0.159 A 
ATOM     16  C   UNL     1       1.506   0.764  -0.526  0.00  0.00    +0.158 A 
ATOM     17  C   UNL     1       0.148   0.970  -0.666  0.00  0.00    +0.050 A 
BRANCH  15  18
ATOM     18  O   UNL     1       3.316  -0.661   0.052  0.00  0.00    -0.503 OA
ATOM     19  H   UNL     1       3.707   0.225  -0.094  0.00  0.00    +0.292 HD
ENDBRANCH  15  18
BRANCH  16  20
ATOM     20  O   UNL     1       2.414   1.753  -0.780  0.00  0.00    -0.503 OA
ATOM     21  H   UNL     1       1.939   2.496  -1.195  0.00  0.00    +0.292 HD
ENDBRANCH  16  20
ENDBRANCH   1  13
BRANCH   5  22
ATOM     22  O   UNL     1      -4.434  -6.515  -0.869  0.00  0.00    -0.506 OA
ATOM     23  H   UNL     1      -4.805  -5.628  -1.075  0.00  0.00    +0.292 HD
ENDBRANCH   5  22
BRANCH   7  24
ATOM     24  O   UNL     1      -0.233  -8.538   0.010  0.00  0.00    -0.507 OA
ATOM     25  H   UNL     1      -0.792  -9.320  -0.103  0.00  0.00    +0.292 HD
ENDBRANCH   7  24
BRANCH  11  26
ATOM     26  O   UNL     1      -3.287  -1.390  -0.185  0.00  0.00    -0.453 OA
BRANCH  26  27
ATOM     27  C   UNL     1      -4.712  -1.380  -0.280  0.00  0.00    +0.340 C 
ATOM     28  O   UNL     1      -5.198  -0.010  -0.252  0.00  0.00    -0.331 OA
ATOM     29  C   UNL     1      -6.497  -0.009   0.399  0.00  0.00    +0.184 C 
ATOM     30  C   UNL     1      -6.820  -1.466   0.766  0.00  0.00    +0.180 C 
ATOM     31  C   UNL     1      -5.421  -2.041   0.916  0.00  0.00    +0.214 C 
BRANCH  30  32
ATOM     32  O   UNL     1      -7.540  -2.130  -0.270  0.00  0.00    -0.386 OA
ATOM     33  H   UNL     1      -7.308  -3.077  -0.265  0.00  0.00    +0.210 HD
ENDBRANCH  30  32
BRANCH  31  34
ATOM     34  O   UNL     1      -4.856  -1.646   2.175  0.00  0.00    -0.383 OA
ATOM     35  H   UNL     1      -4.432  -0.775   2.049  0.00  0.00    +0.210 HD
ENDBRANCH  31  34
BRANCH  29  36
ATOM     36  C   UNL     1      -7.528   0.783  -0.424  0.00  0.00    +0.171 C 
BRANCH  36  37
ATOM     37  O   UNL     1      -8.790   0.861   0.260  0.00  0.00    -0.387 OA
ATOM     38  H   UNL     1      -9.239   0.003   0.141  0.00  0.00    +0.210 HD
ENDBRANCH  36  37
BRANCH  36  39
ATOM     39  C   UNL     1      -7.770   0.298  -1.861  0.00  0.00    +0.189 C 
BRANCH  39  40
ATOM     40  O   UNL     1      -8.586   1.253  -2.551  0.00  0.00    -0.392 OA
ATOM     41  H   UNL     1      -9.232   1.586  -1.899  0.00  0.00    +0.210 HD
ENDBRANCH  39  40
ENDBRANCH  36  39
ENDBRANCH  29  36
ENDBRANCH  26  27
ENDBRANCH  11  26
TORSDOF 13
