REMARK  Name = 
REMARK  16 active torsions:
REMARK  status: ('A' for Active; 'I' for Inactive)
REMARK    1  A    between atoms: C_3  and  O_44
REMARK    2  A    between atoms: C_6  and  C_7
REMARK    3  A    between atoms: C_8  and  C_9
REMARK    4  A    between atoms: C_9  and  O_11
REMARK    5  A    between atoms: O_11  and  C_12
REMARK    6  A    between atoms: C_13  and  O_43
REMARK    7  A    between atoms: C_14  and  C_41
REMARK    8  A    between atoms: C_16  and  O_19
REMARK    9  A    between atoms: C_17  and  O_18
REMARK   10  A    between atoms: O_19  and  C_20
REMARK   11  A    between atoms: C_21  and  C_33
REMARK   12  A    between atoms: C_25  and  O_32
REMARK   13  A    between atoms: C_27  and  O_31
REMARK   14  A    between atoms: C_35  and  O_40
REMARK   15  A    between atoms: C_36  and  O_39
REMARK   16  A    between atoms: C_41  and  O_42
REMARK                            x       y       z     vdW  Elec       q    Type
REMARK                         _______ _______ _______ _____ _____    ______ ____
ROOT
ATOM      1  C   UNL     1      -7.224   2.221  -0.425  0.00  0.00    +0.242 C 
ATOM      2  C   UNL     1      -7.866   0.911  -0.900  0.00  0.00    +0.226 C 
ATOM      3  C   UNL     1      -7.328   0.538  -2.308  0.00  0.00    +0.341 C 
ATOM      4  O   UNL     1      -7.720   1.592  -3.220  0.00  0.00    -0.331 OA
ATOM      5  C   UNL     1      -7.139   2.865  -2.875  0.00  0.00    +0.180 C 
ATOM      6  C   UNL     1      -7.549   3.313  -1.454  0.00  0.00    +0.189 C 
ENDROOT
BRANCH   6   7
ATOM      7  O   UNL     1      -6.944   4.567  -1.116  0.00  0.00    -0.385 OA
ATOM      8  H   UNL     1      -6.145   4.383  -0.587  0.00  0.00    +0.210 HD
ENDBRANCH   6   7
BRANCH   2   9
ATOM      9  O   UNL     1      -9.301   1.089  -0.955  0.00  0.00    -0.382 OA
ATOM     10  H   UNL     1      -9.578   0.871  -1.867  0.00  0.00    +0.210 HD
ENDBRANCH   2   9
BRANCH   3  11
ATOM     11  O   UNL     1      -7.961  -0.675  -2.761  0.00  0.00    -0.453 OA
BRANCH  11  12
ATOM     12  C   UNL     1      -7.415  -1.911  -2.421  0.00  0.00    +0.214 A 
ATOM     13  C   UNL     1      -6.232  -2.009  -1.521  0.00  0.00    +0.238 A 
ATOM     14  O   UNL     1      -5.859  -1.071  -0.828  0.00  0.00    -0.283 OA
ATOM     15  C   UNL     1      -5.585  -3.308  -1.379  0.00  0.00    +0.109 A 
ATOM     16  C   UNL     1      -6.338  -4.428  -1.692  0.00  0.00    +0.147 A 
ATOM     17  C   UNL     1      -5.898  -5.683  -1.260  0.00  0.00    +0.092 A 
ATOM     18  C   UNL     1      -4.690  -5.780  -0.561  0.00  0.00    +0.124 A 
ATOM     19  C   UNL     1      -3.875  -4.670  -0.362  0.00  0.00    +0.091 A 
ATOM     20  O   UNL     1      -7.518  -4.339  -2.390  0.00  0.00    -0.451 OA
ATOM     21  C   UNL     1      -4.325  -3.428  -0.782  0.00  0.00    +0.135 A 
ATOM     22  C   UNL     1      -7.969  -3.082  -2.823  0.00  0.00    +0.181 A 
BRANCH  22  23
ATOM     23  C   UNL     1      -9.187  -3.167  -3.697  0.00  0.00    +0.025 A 
ATOM     24  C   UNL     1     -10.084  -4.249  -3.567  0.00  0.00    +0.015 A 
ATOM     25  C   UNL     1     -11.265  -4.322  -4.325  0.00  0.00    +0.050 A 
ATOM     26  C   UNL     1     -11.560  -3.309  -5.221  0.00  0.00    +0.158 A 
ATOM     27  C   UNL     1     -10.675  -2.255  -5.402  0.00  0.00    +0.159 A 
ATOM     28  C   UNL     1      -9.486  -2.193  -4.672  0.00  0.00    +0.060 A 
BRANCH  27  29
ATOM     29  O   UNL     1     -11.022  -1.284  -6.302  0.00  0.00    -0.503 OA
ATOM     30  H   UNL     1     -10.338  -0.592  -6.283  0.00  0.00    +0.292 HD
ENDBRANCH  27  29
BRANCH  26  31
ATOM     31  O   UNL     1     -12.732  -3.348  -5.919  0.00  0.00    -0.503 OA
ATOM     32  H   UNL     1     -12.736  -2.521  -6.442  0.00  0.00    +0.292 HD
ENDBRANCH  26  31
ENDBRANCH  22  23
BRANCH  18  33
ATOM     33  O   UNL     1      -4.258  -6.959  -0.030  0.00  0.00    -0.507 OA
ATOM     34  H   UNL     1      -4.994  -7.593  -0.017  0.00  0.00    +0.292 HD
ENDBRANCH  18  33
BRANCH  21  35
ATOM     35  O   UNL     1      -3.528  -2.329  -0.625  0.00  0.00    -0.506 OA
ATOM     36  H   UNL     1      -2.833  -2.513   0.027  0.00  0.00    +0.292 HD
ENDBRANCH  21  35
ENDBRANCH  11  12
ENDBRANCH   3  11
BRANCH   5  37
ATOM     37  C   UNL     1      -7.606   3.901  -3.911  0.00  0.00    +0.190 C 
BRANCH  37  38
ATOM     38  O   UNL     1      -7.020   5.182  -3.710  0.00  0.00    -0.392 OA
ATOM     39  H   UNL     1      -7.115   5.394  -2.755  0.00  0.00    +0.210 HD
ENDBRANCH  37  38
ENDBRANCH   5  37
BRANCH   1  40
ATOM     40  O   UNL     1      -5.778   2.084  -0.322  0.00  0.00    -0.453 OA
BRANCH  40  41
ATOM     41  C   UNL     1      -5.226   2.296   0.903  0.00  0.00    +0.332 C 
ATOM     42  O   UNL     1      -5.827   2.654   1.903  0.00  0.00    -0.246 OA
BRANCH  41  44
ATOM     43  C   UNL     1      -3.029   2.220   1.966  0.00  0.00    +0.015 C 
ATOM     44  C   UNL     1      -3.758   2.093   0.838  0.00  0.00    +0.092 C 
BRANCH  43  46
ATOM     45  C   UNL     1      -1.052   1.652   3.333  0.00  0.00    +0.011 A 
ATOM     46  C   UNL     1      -1.572   2.043   2.086  0.00  0.00    -0.025 A 
ATOM     47  C   UNL     1      -0.675   2.302   1.046  0.00  0.00    +0.011 A 
ATOM     48  C   UNL     1       0.706   2.161   1.237  0.00  0.00    +0.046 A 
ATOM     49  C   UNL     1       1.198   1.766   2.481  0.00  0.00    +0.117 A 
ATOM     50  C   UNL     1       0.328   1.509   3.530  0.00  0.00    +0.046 A 
BRANCH  49  51
ATOM     51  O   UNL     1       2.546   1.652   2.626  0.00  0.00    -0.507 OA
ATOM     52  H   UNL     1       2.742   1.452   3.556  0.00  0.00    +0.292 HD
ENDBRANCH  49  51
ENDBRANCH  43  46
ENDBRANCH  41  44
ENDBRANCH  40  41
ENDBRANCH   1  40
TORSDOF 16
