REMARK  Name = 
REMARK  27 active torsions:
REMARK  status: ('A' for Active; 'I' for Inactive)
REMARK    1  A    between atoms: C_1  and  C_2
REMARK    2  A    between atoms: C_3  and  O_65
REMARK    3  A    between atoms: C_4  and  O_64
REMARK    4  A    between atoms: C_5  and  O_41
REMARK    5  A    between atoms: C_6  and  O_8
REMARK    6  A    between atoms: O_8  and  C_9
REMARK    7  A    between atoms: C_10  and  C_33
REMARK    8  A    between atoms: C_14  and  O_21
REMARK    9  A    between atoms: C_16  and  O_20
REMARK   10  A    between atoms: O_21  and  C_22
REMARK   11  A    between atoms: C_23  and  O_32
REMARK   12  A    between atoms: C_24  and  O_31
REMARK   13  A    between atoms: C_25  and  O_30
REMARK   14  A    between atoms: C_26  and  C_28
REMARK   15  A    between atoms: C_28  and  O_29
REMARK   16  A    between atoms: C_35  and  O_40
REMARK   17  A    between atoms: C_36  and  O_39
REMARK   18  A    between atoms: O_41  and  C_42
REMARK   19  A    between atoms: C_43  and  O_63
REMARK   20  A    between atoms: C_44  and  O_62
REMARK   21  A    between atoms: C_45  and  O_61
REMARK   22  A    between atoms: C_46  and  C_48
REMARK   23  A    between atoms: C_48  and  O_49
REMARK   24  A    between atoms: O_49  and  C_50
REMARK   25  A    between atoms: C_50  and  C_52
REMARK   26  A    between atoms: C_53  and  C_54
REMARK   27  A    between atoms: C_57  and  O_60
REMARK                            x       y       z     vdW  Elec       q    Type
REMARK                         _______ _______ _______ _____ _____    ______ ____
ROOT
ATOM      1  O   UNL     1       3.327   2.155  -2.271  0.00  0.00    -0.453 OA
ENDROOT
BRANCH   1   2
ATOM      2  C   UNL     1       2.659   3.217  -2.922  0.00  0.00    +0.214 A 
ATOM      3  C   UNL     1       1.479   2.858  -3.789  0.00  0.00    +0.238 A 
ATOM      4  O   UNL     1       1.190   1.683  -3.987  0.00  0.00    -0.283 OA
ATOM      5  C   UNL     1       0.644   3.947  -4.342  0.00  0.00    +0.109 A 
ATOM      6  C   UNL     1       1.030   5.248  -4.108  0.00  0.00    +0.147 A 
ATOM      7  C   UNL     1       0.189   6.312  -4.494  0.00  0.00    +0.093 A 
ATOM      8  C   UNL     1      -1.096   6.053  -4.991  0.00  0.00    +0.131 A 
ATOM      9  C   UNL     1      -1.450   4.753  -5.287  0.00  0.00    +0.092 A 
ATOM     10  O   UNL     1       2.256   5.540  -3.585  0.00  0.00    -0.451 OA
ATOM     11  C   UNL     1      -0.529   3.735  -5.071  0.00  0.00    +0.135 A 
ATOM     12  C   UNL     1       3.067   4.538  -3.005  0.00  0.00    +0.181 A 
BRANCH  12  13
ATOM     13  C   UNL     1       4.376   5.194  -2.557  0.00  0.00    +0.025 A 
ATOM     14  C   UNL     1       5.360   4.526  -1.815  0.00  0.00    +0.015 A 
ATOM     15  C   UNL     1       6.577   5.136  -1.461  0.00  0.00    +0.050 A 
ATOM     16  C   UNL     1       6.858   6.442  -1.879  0.00  0.00    +0.158 A 
ATOM     17  C   UNL     1       5.929   7.152  -2.593  0.00  0.00    +0.159 A 
ATOM     18  C   UNL     1       4.700   6.548  -2.932  0.00  0.00    +0.060 A 
BRANCH  17  19
ATOM     19  O   UNL     1       6.284   8.421  -2.967  0.00  0.00    -0.503 OA
ATOM     20  H   UNL     1       5.631   8.777  -3.589  0.00  0.00    +0.292 HD
ENDBRANCH  17  19
BRANCH  16  21
ATOM     21  O   UNL     1       8.065   6.987  -1.534  0.00  0.00    -0.503 OA
ATOM     22  H   UNL     1       8.070   7.869  -1.953  0.00  0.00    +0.292 HD
ENDBRANCH  16  21
ENDBRANCH  12  13
BRANCH  11  23
ATOM     23  O   UNL     1      -0.747   2.560  -5.724  0.00  0.00    -0.506 OA
ATOM     24  H   UNL     1      -1.656   2.533  -6.072  0.00  0.00    +0.292 HD
ENDBRANCH  11  23
BRANCH   8  25
ATOM     25  O   UNL     1      -2.069   6.950  -5.335  0.00  0.00    -0.461 OA
BRANCH  25  26
ATOM     26  C   UNL     1      -1.994   8.243  -4.746  0.00  0.00    +0.339 C 
ATOM     27  O   UNL     1      -3.156   8.492  -3.945  0.00  0.00    -0.331 OA
ATOM     28  C   UNL     1      -4.374   8.691  -4.686  0.00  0.00    +0.179 C 
ATOM     29  C   UNL     1      -4.173   9.940  -5.547  0.00  0.00    +0.177 C 
ATOM     30  C   UNL     1      -3.069   9.655  -6.572  0.00  0.00    +0.180 C 
ATOM     31  C   UNL     1      -1.764   9.284  -5.860  0.00  0.00    +0.214 C 
BRANCH  31  32
ATOM     32  O   UNL     1      -0.766   8.829  -6.798  0.00  0.00    -0.383 OA
ATOM     33  H   UNL     1      -1.174   8.122  -7.334  0.00  0.00    +0.210 HD
ENDBRANCH  31  32
BRANCH  30  34
ATOM     34  O   UNL     1      -2.862  10.814  -7.388  0.00  0.00    -0.386 OA
ATOM     35  H   UNL     1      -2.672  11.553  -6.777  0.00  0.00    +0.210 HD
ENDBRANCH  30  34
BRANCH  29  36
ATOM     36  O   UNL     1      -3.749  11.041  -4.720  0.00  0.00    -0.386 OA
ATOM     37  H   UNL     1      -3.319  10.661  -3.926  0.00  0.00    +0.210 HD
ENDBRANCH  29  36
BRANCH  28  38
ATOM     38  C   UNL     1      -5.513   8.870  -3.669  0.00  0.00    +0.190 C 
BRANCH  38  39
ATOM     39  O   UNL     1      -5.757   7.655  -2.956  0.00  0.00    -0.392 OA
ATOM     40  H   UNL     1      -6.039   6.979  -3.593  0.00  0.00    +0.210 HD
ENDBRANCH  38  39
ENDBRANCH  28  38
ENDBRANCH  25  26
ENDBRANCH   8  25
ENDBRANCH   1   2
BRANCH   1  44
ATOM     41  C   UNL     1       0.722  -0.055   0.646  0.00  0.00    +0.041 C 
ATOM     42  C   UNL     1       2.254  -0.062   0.536  0.00  0.00    +0.150 C 
ATOM     43  O   UNL     1       2.784   1.034  -0.234  0.00  0.00    -0.334 OA
ATOM     44  C   UNL     1       2.563   1.018  -1.663  0.00  0.00    +0.340 C 
ATOM     45  C   UNL     1       2.920  -0.414  -2.260  0.00  0.00    +0.221 C 
ATOM     46  C   UNL     1       2.353  -1.594  -1.412  0.00  0.00    +0.180 C 
ATOM     47  C   UNL     1       2.777  -1.417   0.054  0.00  0.00    +0.174 C 
BRANCH  47  48
ATOM     48  O   UNL     1       2.316  -2.473   0.908  0.00  0.00    -0.387 OA
ATOM     49  H   UNL     1       1.671  -3.016   0.421  0.00  0.00    +0.210 HD
ENDBRANCH  47  48
BRANCH  46  50
ATOM     50  O   UNL     1       2.854  -2.870  -1.874  0.00  0.00    -0.386 OA
ATOM     51  H   UNL     1       3.826  -2.806  -1.795  0.00  0.00    +0.210 HD
ENDBRANCH  46  50
BRANCH  45  52
ATOM     52  O   UNL     1       4.321  -0.755  -2.283  0.00  0.00    -0.337 OA
BRANCH  52  53
ATOM     53  C   UNL     1       5.083  -0.201  -3.347  0.00  0.00    +0.282 C 
ATOM     54  O   UNL     1       4.454  -0.362  -4.618  0.00  0.00    -0.339 OA
ATOM     55  C   UNL     1       4.222  -1.743  -4.978  0.00  0.00    +0.190 C 
ATOM     56  C   UNL     1       5.572  -2.461  -5.136  0.00  0.00    +0.178 C 
ATOM     57  C   UNL     1       6.399  -2.324  -3.841  0.00  0.00    +0.179 C 
ATOM     58  C   UNL     1       6.475  -0.872  -3.334  0.00  0.00    +0.201 C 
BRANCH  58  59
ATOM     59  O   UNL     1       7.051  -0.860  -2.013  0.00  0.00    -0.384 OA
ATOM     60  H   UNL     1       7.692  -1.595  -1.979  0.00  0.00    +0.210 HD
ENDBRANCH  58  59
BRANCH  57  61
ATOM     61  O   UNL     1       7.754  -2.771  -4.065  0.00  0.00    -0.386 OA
ATOM     62  H   UNL     1       7.724  -3.591  -4.590  0.00  0.00    +0.210 HD
ENDBRANCH  57  61
BRANCH  56  63
ATOM     63  O   UNL     1       6.325  -1.940  -6.239  0.00  0.00    -0.386 OA
ATOM     64  H   UNL     1       7.251  -1.828  -5.944  0.00  0.00    +0.210 HD
ENDBRANCH  56  63
BRANCH  55  65
ATOM     65  C   UNL     1       3.284  -1.790  -6.196  0.00  0.00    +0.266 C 
BRANCH  65  66
ATOM     66  O   UNL     1       1.994  -1.163  -5.892  0.00  0.00    -0.459 OA
BRANCH  66  67
ATOM     67  C   UNL     1       0.922  -1.919  -5.576  0.00  0.00    +0.332 C 
ATOM     68  O   UNL     1       0.916  -3.132  -5.555  0.00  0.00    -0.246 OA
BRANCH  67  69
ATOM     69  C   UNL     1      -0.245  -1.040  -5.245  0.00  0.00    +0.092 C 
ATOM     70  C   UNL     1      -1.467  -1.449  -4.819  0.00  0.00    +0.015 C 
BRANCH  70  71
ATOM     71  C   UNL     1      -2.573  -0.530  -4.383  0.00  0.00    -0.025 A 
ATOM     72  C   UNL     1      -3.894  -0.928  -4.122  0.00  0.00    +0.011 A 
ATOM     73  C   UNL     1      -4.873   0.011  -3.716  0.00  0.00    +0.046 A 
ATOM     74  C   UNL     1      -4.550   1.356  -3.579  0.00  0.00    +0.117 A 
ATOM     75  C   UNL     1      -3.249   1.770  -3.807  0.00  0.00    +0.046 A 
ATOM     76  C   UNL     1      -2.285   0.812  -4.137  0.00  0.00    +0.011 A 
BRANCH  74  77
ATOM     77  O   UNL     1      -5.522   2.269  -3.193  0.00  0.00    -0.507 OA
ATOM     78  H   UNL     1      -5.072   3.116  -3.023  0.00  0.00    +0.292 HD
ENDBRANCH  74  77
ENDBRANCH  70  71
ENDBRANCH  67  69
ENDBRANCH  66  67
ENDBRANCH  65  66
ENDBRANCH  55  65
ENDBRANCH  52  53
ENDBRANCH  45  52
ENDBRANCH   1  44
TORSDOF 26
