REMARK  Name = 
REMARK  29 active torsions:
REMARK  status: ('A' for Active; 'I' for Inactive)
REMARK    1  A    between atoms: C_1  and  C_2
REMARK    2  A    between atoms: C_3  and  O_65
REMARK    3  A    between atoms: C_4  and  O_64
REMARK    4  A    between atoms: C_5  and  O_63
REMARK    5  A    between atoms: C_6  and  O_8
REMARK    6  A    between atoms: O_8  and  C_9
REMARK    7  A    between atoms: C_11  and  O_62
REMARK    8  A    between atoms: C_16  and  C_54
REMARK    9  A    between atoms: C_17  and  O_20
REMARK   10  A    between atoms: O_20  and  C_21
REMARK   11  A    between atoms: C_22  and  O_31
REMARK   12  A    between atoms: C_23  and  O_30
REMARK   13  A    between atoms: C_24  and  O_29
REMARK   14  A    between atoms: C_25  and  C_27
REMARK   15  A    between atoms: C_27  and  O_28
REMARK   16  A    between atoms: O_31  and  C_32
REMARK   17  A    between atoms: C_33  and  O_42
REMARK   18  A    between atoms: C_34  and  O_41
REMARK   19  A    between atoms: C_35  and  O_40
REMARK   20  A    between atoms: C_36  and  C_38
REMARK   21  A    between atoms: C_38  and  O_39
REMARK   22  A    between atoms: O_42  and  C_43
REMARK   23  A    between atoms: C_44  and  O_53
REMARK   24  A    between atoms: C_45  and  O_52
REMARK   25  A    between atoms: C_46  and  O_51
REMARK   26  A    between atoms: C_47  and  C_49
REMARK   27  A    between atoms: C_49  and  O_50
REMARK   28  A    between atoms: C_56  and  O_61
REMARK   29  A    between atoms: C_57  and  O_60
REMARK                            x       y       z     vdW  Elec       q    Type
REMARK                         _______ _______ _______ _____ _____    ______ ____
ROOT
ATOM      1  C   UNL     1       1.302   9.838  -2.171  0.00  0.00    +0.340 C 
ATOM      2  O   UNL     1       1.613  10.625  -0.997  0.00  0.00    -0.331 OA
ATOM      3  C   UNL     1       0.747  11.733  -0.711  0.00  0.00    +0.179 C 
ATOM      4  C   UNL     1       0.753  12.673  -1.898  0.00  0.00    +0.177 C 
ATOM      5  C   UNL     1       0.172  11.955  -3.110  0.00  0.00    +0.180 C 
ATOM      6  C   UNL     1       0.938  10.655  -3.470  0.00  0.00    +0.221 C 
ENDROOT
BRANCH   5   7
ATOM      7  O   UNL     1       0.200  12.886  -4.203  0.00  0.00    -0.386 OA
ATOM      8  H   UNL     1       0.628  13.709  -3.907  0.00  0.00    +0.210 HD
ENDBRANCH   5   7
BRANCH   4   9
ATOM      9  O   UNL     1       2.081  13.124  -2.208  0.00  0.00    -0.386 OA
ATOM     10  H   UNL     1       2.692  12.376  -2.064  0.00  0.00    +0.210 HD
ENDBRANCH   4   9
BRANCH   6  11
ATOM     11  O   UNL     1       0.258   9.767  -4.407  0.00  0.00    -0.337 OA
BRANCH  11  12
ATOM     12  C   UNL     1      -0.048  10.299  -5.709  0.00  0.00    +0.283 C 
ATOM     13  O   UNL     1      -1.112  11.255  -5.640  0.00  0.00    -0.341 OA
ATOM     14  C   UNL     1      -2.287  10.751  -5.002  0.00  0.00    +0.178 C 
ATOM     15  C   UNL     1      -2.866   9.577  -5.783  0.00  0.00    +0.177 C 
ATOM     16  C   UNL     1      -1.776   8.530  -6.075  0.00  0.00    +0.179 C 
ATOM     17  C   UNL     1      -0.530   9.194  -6.722  0.00  0.00    +0.208 C 
BRANCH  16  18
ATOM     18  O   UNL     1      -2.409   7.541  -6.902  0.00  0.00    -0.386 OA
ATOM     19  H   UNL     1      -2.868   6.928  -6.300  0.00  0.00    +0.210 HD
ENDBRANCH  16  18
BRANCH  15  20
ATOM     20  O   UNL     1      -3.457  10.026  -7.013  0.00  0.00    -0.386 OA
ATOM     21  H   UNL     1      -3.386   9.276  -7.642  0.00  0.00    +0.210 HD
ENDBRANCH  15  20
BRANCH  14  22
ATOM     22  C   UNL     1      -3.272  11.905  -4.802  0.00  0.00    +0.190 C 
BRANCH  22  23
ATOM     23  O   UNL     1      -4.390  11.483  -4.023  0.00  0.00    -0.392 OA
ATOM     24  H   UNL     1      -4.979  11.002  -4.631  0.00  0.00    +0.210 HD
ENDBRANCH  22  23
ENDBRANCH  14  22
BRANCH  17  25
ATOM     25  O   UNL     1       0.532   8.286  -7.119  0.00  0.00    -0.338 OA
BRANCH  25  26
ATOM     26  C   UNL     1       0.180   7.332  -8.143  0.00  0.00    +0.282 C 
ATOM     27  O   UNL     1       1.221   6.336  -8.302  0.00  0.00    -0.341 OA
ATOM     28  C   UNL     1       2.436   6.810  -8.904  0.00  0.00    +0.178 C 
ATOM     29  C   UNL     1       2.159   7.402 -10.295  0.00  0.00    +0.177 C 
ATOM     30  C   UNL     1       1.085   8.488 -10.186  0.00  0.00    +0.179 C 
ATOM     31  C   UNL     1      -0.176   7.906  -9.542  0.00  0.00    +0.201 C 
BRANCH  29  32
ATOM     32  O   UNL     1       1.688   6.402 -11.222  0.00  0.00    -0.386 OA
ATOM     33  H   UNL     1       1.186   5.731 -10.719  0.00  0.00    +0.210 HD
ENDBRANCH  29  32
BRANCH  30  34
ATOM     34  O   UNL     1       0.744   8.991 -11.488  0.00  0.00    -0.386 OA
ATOM     35  H   UNL     1       0.846   8.238 -12.106  0.00  0.00    +0.210 HD
ENDBRANCH  30  34
BRANCH  31  36
ATOM     36  O   UNL     1      -1.228   8.872  -9.577  0.00  0.00    -0.384 OA
ATOM     37  H   UNL     1      -1.093   9.373 -10.409  0.00  0.00    +0.210 HD
ENDBRANCH  31  36
BRANCH  28  38
ATOM     38  C   UNL     1       3.414   5.621  -9.003  0.00  0.00    +0.190 C 
BRANCH  38  39
ATOM     39  O   UNL     1       3.702   5.078  -7.700  0.00  0.00    -0.392 OA
ATOM     40  H   UNL     1       3.886   5.838  -7.123  0.00  0.00    +0.210 HD
ENDBRANCH  38  39
ENDBRANCH  28  38
ENDBRANCH  25  26
ENDBRANCH  17  25
ENDBRANCH  11  12
ENDBRANCH   6  11
BRANCH   3  41
ATOM     41  C   UNL     1       1.303  12.463   0.523  0.00  0.00    +0.190 C 
BRANCH  41  42
ATOM     42  O   UNL     1       1.018  11.714   1.701  0.00  0.00    -0.392 OA
ATOM     43  H   UNL     1       1.299  10.800   1.521  0.00  0.00    +0.210 HD
ENDBRANCH  41  42
ENDBRANCH   3  41
BRANCH   1  44
ATOM     44  O   UNL     1       0.294   8.867  -1.860  0.00  0.00    -0.453 OA
BRANCH  44  50
ATOM     45  C   UNL     1       1.111   2.581  -3.027  0.00  0.00    +0.131 A 
ATOM     46  C   UNL     1       0.509   3.331  -2.015  0.00  0.00    +0.093 A 
ATOM     47  C   UNL     1       0.734   4.704  -1.890  0.00  0.00    +0.147 A 
ATOM     48  O   UNL     1       0.096   5.325  -0.850  0.00  0.00    -0.451 OA
ATOM     49  C   UNL     1      -0.077   6.701  -0.914  0.00  0.00    +0.181 A 
ATOM     50  C   UNL     1       0.618   7.511  -1.750  0.00  0.00    +0.214 A 
ATOM     51  C   UNL     1       1.698   6.834  -2.580  0.00  0.00    +0.238 A 
ATOM     52  O   UNL     1       2.654   7.434  -3.054  0.00  0.00    -0.283 OA
ATOM     53  C   UNL     1       1.559   5.369  -2.779  0.00  0.00    +0.109 A 
ATOM     54  C   UNL     1       2.174   4.626  -3.802  0.00  0.00    +0.135 A 
ATOM     55  C   UNL     1       1.951   3.241  -3.923  0.00  0.00    +0.092 A 
BRANCH  49  56
ATOM     56  C   UNL     1      -1.122   7.185   0.021  0.00  0.00    +0.025 A 
ATOM     57  C   UNL     1      -0.963   8.397   0.723  0.00  0.00    +0.015 A 
ATOM     58  C   UNL     1      -1.951   8.869   1.589  0.00  0.00    +0.050 A 
ATOM     59  C   UNL     1      -3.088   8.109   1.791  0.00  0.00    +0.158 A 
ATOM     60  C   UNL     1      -3.246   6.886   1.147  0.00  0.00    +0.159 A 
ATOM     61  C   UNL     1      -2.272   6.417   0.267  0.00  0.00    +0.060 A 
BRANCH  60  62
ATOM     62  O   UNL     1      -4.389   6.182   1.408  0.00  0.00    -0.503 OA
ATOM     63  H   UNL     1      -4.373   5.363   0.886  0.00  0.00    +0.292 HD
ENDBRANCH  60  62
BRANCH  59  64
ATOM     64  O   UNL     1      -4.054   8.571   2.637  0.00  0.00    -0.503 OA
ATOM     65  H   UNL     1      -4.738   7.873   2.637  0.00  0.00    +0.292 HD
ENDBRANCH  59  64
ENDBRANCH  49  56
BRANCH  54  66
ATOM     66  O   UNL     1       2.980   5.234  -4.727  0.00  0.00    -0.506 OA
ATOM     67  H   UNL     1       3.179   4.613  -5.452  0.00  0.00    +0.292 HD
ENDBRANCH  54  66
BRANCH  45  68
ATOM     68  O   UNL     1       0.949   1.224  -3.221  0.00  0.00    -0.461 OA
BRANCH  68  72
ATOM     69  C   UNL     1      -1.492   1.052   0.251  0.00  0.00    +0.041 C 
ATOM     70  C   UNL     1      -0.281   0.132   0.046  0.00  0.00    +0.150 C 
ATOM     71  O   UNL     1       0.595   0.622  -0.972  0.00  0.00    -0.334 OA
ATOM     72  C   UNL     1       0.060   0.565  -2.302  0.00  0.00    +0.339 C 
ATOM     73  C   UNL     1      -0.154  -0.922  -2.672  0.00  0.00    +0.214 C 
ATOM     74  C   UNL     1      -1.156  -1.517  -1.664  0.00  0.00    +0.180 C 
ATOM     75  C   UNL     1      -0.662  -1.331  -0.215  0.00  0.00    +0.174 C 
BRANCH  73  76
ATOM     76  O   UNL     1       1.061  -1.693  -2.588  0.00  0.00    -0.383 OA
ATOM     77  H   UNL     1       1.728  -1.129  -2.149  0.00  0.00    +0.210 HD
ENDBRANCH  73  76
BRANCH  74  78
ATOM     78  O   UNL     1      -1.367  -2.911  -1.915  0.00  0.00    -0.386 OA
ATOM     79  H   UNL     1      -0.481  -3.292  -2.087  0.00  0.00    +0.210 HD
ENDBRANCH  74  78
BRANCH  75  80
ATOM     80  O   UNL     1      -1.640  -1.740   0.745  0.00  0.00    -0.387 OA
ATOM     81  H   UNL     1      -2.384  -2.144   0.264  0.00  0.00    +0.210 HD
ENDBRANCH  75  80
ENDBRANCH  68  72
ENDBRANCH  45  68
ENDBRANCH  44  50
ENDBRANCH   1  44
TORSDOF 28
