REMARK  Name = 
REMARK  29 active torsions:
REMARK  status: ('A' for Active; 'I' for Inactive)
REMARK    1  A    between atoms: C_3  and  O_67
REMARK    2  A    between atoms: C_4  and  O_66
REMARK    3  A    between atoms: C_6  and  C_7
REMARK    4  A    between atoms: C_8  and  C_9
REMARK    5  A    between atoms: C_9  and  O_11
REMARK    6  A    between atoms: O_11  and  C_12
REMARK    7  A    between atoms: C_12  and  C_13
REMARK    8  A    between atoms: C_14  and  O_65
REMARK    9  A    between atoms: C_15  and  O_64
REMARK   10  A    between atoms: C_16  and  O_63
REMARK   11  A    between atoms: C_17  and  O_19
REMARK   12  A    between atoms: O_19  and  C_20
REMARK   13  A    between atoms: C_21  and  O_62
REMARK   14  A    between atoms: C_22  and  O_61
REMARK   15  A    between atoms: C_23  and  C_59
REMARK   16  A    between atoms: C_25  and  O_26
REMARK   17  A    between atoms: O_26  and  C_27
REMARK   18  A    between atoms: C_28  and  O_58
REMARK   19  A    between atoms: C_29  and  O_57
REMARK   20  A    between atoms: C_30  and  C_55
REMARK   21  A    between atoms: C_32  and  O_33
REMARK   22  A    between atoms: O_33  and  C_34
REMARK   23  A    between atoms: C_35  and  C_47
REMARK   24  A    between atoms: C_39  and  O_46
REMARK   25  A    between atoms: C_41  and  O_45
REMARK   26  A    between atoms: C_49  and  O_54
REMARK   27  A    between atoms: C_50  and  O_53
REMARK   28  A    between atoms: C_55  and  O_56
REMARK   29  A    between atoms: C_59  and  O_60
REMARK                            x       y       z     vdW  Elec       q    Type
REMARK                         _______ _______ _______ _____ _____    ______ ____
ROOT
ATOM      1  C   UNL     1      -6.667  -4.195  -4.610  0.00  0.00    +0.208 C 
ATOM      2  C   UNL     1      -7.719  -5.280  -4.987  0.00  0.00    +0.283 C 
ATOM      3  O   UNL     1      -7.698  -6.391  -4.129  0.00  0.00    -0.341 OA
ATOM      4  C   UNL     1      -6.441  -6.997  -3.859  0.00  0.00    +0.178 C 
ATOM      5  C   UNL     1      -5.336  -6.031  -3.445  0.00  0.00    +0.177 C 
ATOM      6  C   UNL     1      -5.279  -4.808  -4.361  0.00  0.00    +0.179 C 
ENDROOT
BRANCH   5   7
ATOM      7  O   UNL     1      -4.083  -6.715  -3.345  0.00  0.00    -0.386 OA
ATOM      8  H   UNL     1      -3.418  -6.176  -3.809  0.00  0.00    +0.210 HD
ENDBRANCH   5   7
BRANCH   6   9
ATOM      9  O   UNL     1      -4.364  -3.854  -3.802  0.00  0.00    -0.386 OA
ATOM     10  H   UNL     1      -4.619  -2.968  -4.119  0.00  0.00    +0.210 HD
ENDBRANCH   6   9
BRANCH   4  11
ATOM     11  C   UNL     1      -6.050  -8.074  -4.863  0.00  0.00    +0.190 C 
BRANCH  11  12
ATOM     12  O   UNL     1      -5.485  -7.545  -6.042  0.00  0.00    -0.392 OA
ATOM     13  H   UNL     1      -6.112  -6.890  -6.400  0.00  0.00    +0.210 HD
ENDBRANCH  11  12
ENDBRANCH   4  11
BRANCH   2  14
ATOM     14  O   UNL     1      -7.638  -5.750  -6.343  0.00  0.00    -0.337 OA
BRANCH  14  15
ATOM     15  C   UNL     1      -8.711  -6.704  -6.638  0.00  0.00    +0.221 C 
ATOM     16  C   UNL     1      -8.362  -7.566  -7.881  0.00  0.00    +0.340 C 
ATOM     17  O   UNL     1      -8.329  -6.751  -9.066  0.00  0.00    -0.331 OA
ATOM     18  C   UNL     1      -9.441  -5.893  -9.355  0.00  0.00    +0.179 C 
ATOM     19  C   UNL     1      -9.925  -5.106  -8.130  0.00  0.00    +0.177 C 
ATOM     20  C   UNL     1     -10.071  -6.042  -6.933  0.00  0.00    +0.180 C 
BRANCH  19  21
ATOM     21  O   UNL     1     -11.152  -4.418  -8.373  0.00  0.00    -0.386 OA
ATOM     22  H   UNL     1     -11.801  -4.694  -7.697  0.00  0.00    +0.210 HD
ENDBRANCH  19  21
BRANCH  20  23
ATOM     23  O   UNL     1     -10.646  -5.366  -5.819  0.00  0.00    -0.386 OA
ATOM     24  H   UNL     1     -10.495  -4.404  -5.919  0.00  0.00    +0.210 HD
ENDBRANCH  20  23
BRANCH  18  25
ATOM     25  C   UNL     1     -10.547  -6.677 -10.074  0.00  0.00    +0.190 C 
BRANCH  25  26
ATOM     26  O   UNL     1     -10.057  -7.257 -11.284  0.00  0.00    -0.392 OA
ATOM     27  H   UNL     1      -9.080  -7.295 -11.221  0.00  0.00    +0.210 HD
ENDBRANCH  25  26
ENDBRANCH  18  25
BRANCH  16  28
ATOM     28  O   UNL     1      -9.313  -8.654  -7.881  0.00  0.00    -0.453 OA
BRANCH  28  29
ATOM     29  C   UNL     1      -8.943  -9.860  -8.443  0.00  0.00    +0.214 A 
ATOM     30  C   UNL     1      -8.069  -9.894  -9.667  0.00  0.00    +0.238 A 
ATOM     31  O   UNL     1      -7.190  -9.061  -9.885  0.00  0.00    -0.283 OA
ATOM     32  C   UNL     1      -8.289 -11.018 -10.596  0.00  0.00    +0.109 A 
ATOM     33  C   UNL     1      -8.807 -12.168 -10.025  0.00  0.00    +0.147 A 
ATOM     34  C   UNL     1      -9.058 -13.308 -10.782  0.00  0.00    +0.092 A 
ATOM     35  C   UNL     1      -8.776 -13.280 -12.138  0.00  0.00    +0.124 A 
ATOM     36  C   UNL     1      -8.242 -12.138 -12.733  0.00  0.00    +0.091 A 
ATOM     37  O   UNL     1      -9.050 -12.241  -8.689  0.00  0.00    -0.451 OA
ATOM     38  C   UNL     1      -8.001 -11.001 -11.958  0.00  0.00    +0.135 A 
ATOM     39  C   UNL     1      -9.380 -11.069  -8.000  0.00  0.00    +0.181 A 
BRANCH  39  40
ATOM     40  C   UNL     1     -10.259 -11.447  -6.833  0.00  0.00    +0.025 A 
ATOM     41  C   UNL     1     -10.266 -12.819  -6.456  0.00  0.00    +0.015 A 
ATOM     42  C   UNL     1     -11.238 -13.372  -5.622  0.00  0.00    +0.050 A 
ATOM     43  C   UNL     1     -12.191 -12.540  -5.086  0.00  0.00    +0.158 A 
ATOM     44  C   UNL     1     -12.122 -11.169  -5.312  0.00  0.00    +0.159 A 
ATOM     45  C   UNL     1     -11.178 -10.607  -6.187  0.00  0.00    +0.060 A 
BRANCH  43  46
ATOM     46  O   UNL     1     -13.201 -13.085  -4.347  0.00  0.00    -0.503 OA
ATOM     47  H   UNL     1     -13.839 -12.359  -4.208  0.00  0.00    +0.292 HD
ENDBRANCH  43  46
BRANCH  44  48
ATOM     48  O   UNL     1     -13.035 -10.383  -4.658  0.00  0.00    -0.503 OA
ATOM     49  H   UNL     1     -12.511  -9.746  -4.136  0.00  0.00    +0.292 HD
ENDBRANCH  44  48
ENDBRANCH  39  40
BRANCH  38  50
ATOM     50  O   UNL     1      -7.510  -9.874 -12.550  0.00  0.00    -0.506 OA
ATOM     51  H   UNL     1      -7.322 -10.048 -13.486  0.00  0.00    +0.292 HD
ENDBRANCH  38  50
BRANCH  35  52
ATOM     52  O   UNL     1      -9.008 -14.363 -12.933  0.00  0.00    -0.507 OA
ATOM     53  H   UNL     1      -9.430 -15.060 -12.403  0.00  0.00    +0.292 HD
ENDBRANCH  35  52
ENDBRANCH  28  29
ENDBRANCH  16  28
ENDBRANCH  14  15
ENDBRANCH   2  14
BRANCH   1  54
ATOM     54  O   UNL     1      -7.128  -3.277  -3.576  0.00  0.00    -0.338 OA
BRANCH  54  57
ATOM     55  C   UNL     1      -8.515  -5.420  -0.903  0.00  0.00    +0.190 C 
ATOM     56  O   UNL     1      -8.157  -4.872  -2.183  0.00  0.00    -0.339 OA
ATOM     57  C   UNL     1      -7.304  -3.741  -2.225  0.00  0.00    +0.282 C 
ATOM     58  C   UNL     1      -7.928  -2.588  -1.399  0.00  0.00    +0.201 C 
ATOM     59  C   UNL     1      -8.183  -3.084   0.027  0.00  0.00    +0.179 C 
ATOM     60  C   UNL     1      -9.108  -4.321   0.007  0.00  0.00    +0.178 C 
BRANCH  58  61
ATOM     61  O   UNL     1      -9.194  -2.152  -1.940  0.00  0.00    -0.384 OA
ATOM     62  H   UNL     1      -9.323  -2.635  -2.778  0.00  0.00    +0.210 HD
ENDBRANCH  58  61
BRANCH  59  63
ATOM     63  O   UNL     1      -8.771  -2.046   0.816  0.00  0.00    -0.386 OA
ATOM     64  H   UNL     1      -9.494  -1.671   0.272  0.00  0.00    +0.210 HD
ENDBRANCH  59  63
BRANCH  60  65
ATOM     65  O   UNL     1      -9.348  -4.829   1.321  0.00  0.00    -0.386 OA
ATOM     66  H   UNL     1      -8.624  -4.547   1.908  0.00  0.00    +0.210 HD
ENDBRANCH  60  65
BRANCH  55  67
ATOM     67  C   UNL     1      -7.384  -6.180  -0.161  0.00  0.00    +0.266 C 
BRANCH  67  68
ATOM     68  O   UNL     1      -6.784  -7.317  -0.811  0.00  0.00    -0.459 OA
BRANCH  68  69
ATOM     69  C   UNL     1      -7.503  -8.460  -0.969  0.00  0.00    +0.332 C 
ATOM     70  O   UNL     1      -8.702  -8.595  -0.811  0.00  0.00    -0.246 OA
BRANCH  69  72
ATOM     71  C   UNL     1      -6.943 -10.778  -1.629  0.00  0.00    +0.015 C 
ATOM     72  C   UNL     1      -6.547  -9.523  -1.392  0.00  0.00    +0.092 C 
BRANCH  71  74
ATOM     73  C   UNL     1      -4.848 -11.795  -2.642  0.00  0.00    +0.012 A 
ATOM     74  C   UNL     1      -6.042 -11.905  -1.911  0.00  0.00    -0.021 A 
ATOM     75  C   UNL     1      -6.408 -13.160  -1.418  0.00  0.00    +0.057 A 
ATOM     76  C   UNL     1      -5.588 -14.262  -1.621  0.00  0.00    +0.159 A 
ATOM     77  C   UNL     1      -4.402 -14.144  -2.333  0.00  0.00    +0.158 A 
ATOM     78  C   UNL     1      -4.024 -12.916  -2.853  0.00  0.00    +0.050 A 
BRANCH  76  79
ATOM     79  O   UNL     1      -5.958 -15.463  -1.091  0.00  0.00    -0.503 OA
ATOM     80  H   UNL     1      -5.237 -16.068  -1.352  0.00  0.00    +0.292 HD
ENDBRANCH  76  79
BRANCH  77  81
ATOM     81  O   UNL     1      -3.640 -15.273  -2.484  0.00  0.00    -0.503 OA
ATOM     82  H   UNL     1      -2.859 -15.040  -3.014  0.00  0.00    +0.292 HD
ENDBRANCH  77  81
ENDBRANCH  71  74
ENDBRANCH  69  72
ENDBRANCH  68  69
ENDBRANCH  67  68
ENDBRANCH  55  67
ENDBRANCH  54  57
ENDBRANCH   1  54
TORSDOF 29
