REMARK  Name = 
REMARK  29 active torsions:
REMARK  status: ('A' for Active; 'I' for Inactive)
REMARK    1  A    between atoms: C_3  and  O_67
REMARK    2  A    between atoms: C_4  and  O_66
REMARK    3  A    between atoms: C_6  and  C_7
REMARK    4  A    between atoms: C_8  and  C_9
REMARK    5  A    between atoms: C_9  and  O_11
REMARK    6  A    between atoms: O_11  and  C_12
REMARK    7  A    between atoms: C_13  and  O_65
REMARK    8  A    between atoms: C_14  and  O_64
REMARK    9  A    between atoms: C_15  and  C_62
REMARK   10  A    between atoms: C_17  and  O_18
REMARK   11  A    between atoms: O_18  and  C_19
REMARK   12  A    between atoms: C_20  and  O_61
REMARK   13  A    between atoms: C_21  and  O_60
REMARK   14  A    between atoms: C_22  and  C_58
REMARK   15  A    between atoms: C_24  and  O_25
REMARK   16  A    between atoms: O_25  and  C_26
REMARK   17  A    between atoms: C_27  and  C_50
REMARK   18  A    between atoms: C_31  and  O_38
REMARK   19  A    between atoms: C_33  and  O_37
REMARK   20  A    between atoms: O_38  and  C_39
REMARK   21  A    between atoms: C_40  and  O_49
REMARK   22  A    between atoms: C_41  and  O_48
REMARK   23  A    between atoms: C_42  and  O_47
REMARK   24  A    between atoms: C_43  and  C_45
REMARK   25  A    between atoms: C_45  and  O_46
REMARK   26  A    between atoms: C_52  and  O_57
REMARK   27  A    between atoms: C_53  and  O_56
REMARK   28  A    between atoms: C_58  and  O_59
REMARK   29  A    between atoms: C_62  and  O_63
REMARK                            x       y       z     vdW  Elec       q    Type
REMARK                         _______ _______ _______ _____ _____    ______ ____
ROOT
ATOM      1  C   UNL     1      -8.141  -4.535   0.028  0.00  0.00    +0.221 C 
ATOM      2  C   UNL     1      -7.385  -3.347  -0.672  0.00  0.00    +0.340 C 
ATOM      3  O   UNL     1      -6.842  -2.433   0.312  0.00  0.00    -0.331 OA
ATOM      4  C   UNL     1      -7.773  -1.861   1.238  0.00  0.00    +0.179 C 
ATOM      5  C   UNL     1      -8.594  -2.955   1.940  0.00  0.00    +0.177 C 
ATOM      6  C   UNL     1      -9.228  -3.885   0.902  0.00  0.00    +0.180 C 
ENDROOT
BRANCH   6   7
ATOM      7  O   UNL     1     -10.102  -4.814   1.549  0.00  0.00    -0.386 OA
ATOM      8  H   UNL     1      -9.743  -5.024   2.430  0.00  0.00    +0.210 HD
ENDBRANCH   6   7
BRANCH   5   9
ATOM      9  O   UNL     1      -9.615  -2.397   2.780  0.00  0.00    -0.386 OA
ATOM     10  H   UNL     1     -10.436  -2.903   2.616  0.00  0.00    +0.210 HD
ENDBRANCH   5   9
BRANCH   4  11
ATOM     11  C   UNL     1      -8.643  -0.744   0.618  0.00  0.00    +0.190 C 
BRANCH  11  12
ATOM     12  O   UNL     1      -9.391  -0.035   1.603  0.00  0.00    -0.392 OA
ATOM     13  H   UNL     1      -9.719  -0.696   2.248  0.00  0.00    +0.210 HD
ENDBRANCH  11  12
ENDBRANCH   4  11
BRANCH   2  14
ATOM     14  O   UNL     1      -8.229  -2.612  -1.567  0.00  0.00    -0.453 OA
BRANCH  14  15
ATOM     15  C   UNL     1      -8.322  -2.947  -2.904  0.00  0.00    +0.214 A 
ATOM     16  C   UNL     1      -7.920  -4.262  -3.447  0.00  0.00    +0.238 A 
ATOM     17  O   UNL     1      -6.988  -4.879  -2.971  0.00  0.00    -0.283 OA
ATOM     18  C   UNL     1      -8.514  -4.682  -4.713  0.00  0.00    +0.109 A 
ATOM     19  C   UNL     1      -8.758  -3.643  -5.593  0.00  0.00    +0.147 A 
ATOM     20  C   UNL     1      -9.018  -3.919  -6.925  0.00  0.00    +0.093 A 
ATOM     21  C   UNL     1      -9.120  -5.239  -7.373  0.00  0.00    +0.131 A 
ATOM     22  C   UNL     1      -8.958  -6.292  -6.461  0.00  0.00    +0.092 A 
ATOM     23  O   UNL     1      -8.715  -2.328  -5.210  0.00  0.00    -0.451 OA
ATOM     24  C   UNL     1      -8.644  -6.010  -5.128  0.00  0.00    +0.135 A 
ATOM     25  C   UNL     1      -8.663  -2.055  -3.852  0.00  0.00    +0.181 A 
BRANCH  25  26
ATOM     26  C   UNL     1      -8.871  -0.635  -3.546  0.00  0.00    +0.025 A 
ATOM     27  C   UNL     1     -10.131  -0.147  -3.167  0.00  0.00    +0.015 A 
ATOM     28  C   UNL     1     -10.305   1.213  -2.898  0.00  0.00    +0.050 A 
ATOM     29  C   UNL     1      -9.222   2.073  -3.010  0.00  0.00    +0.158 A 
ATOM     30  C   UNL     1      -7.969   1.597  -3.386  0.00  0.00    +0.159 A 
ATOM     31  C   UNL     1      -7.784   0.247  -3.656  0.00  0.00    +0.060 A 
BRANCH  30  32
ATOM     32  O   UNL     1      -6.946   2.500  -3.481  0.00  0.00    -0.503 OA
ATOM     33  H   UNL     1      -6.138   2.020  -3.733  0.00  0.00    +0.292 HD
ENDBRANCH  30  32
BRANCH  29  34
ATOM     34  O   UNL     1      -9.395   3.403  -2.752  0.00  0.00    -0.503 OA
ATOM     35  H   UNL     1      -8.505   3.794  -2.869  0.00  0.00    +0.292 HD
ENDBRANCH  29  34
ENDBRANCH  25  26
BRANCH  24  36
ATOM     36  O   UNL     1      -8.495  -7.029  -4.231  0.00  0.00    -0.506 OA
ATOM     37  H   UNL     1      -8.340  -7.865  -4.703  0.00  0.00    +0.292 HD
ENDBRANCH  24  36
BRANCH  21  38
ATOM     38  O   UNL     1      -9.391  -5.598  -8.674  0.00  0.00    -0.461 OA
BRANCH  38  39
ATOM     39  C   UNL     1      -9.827  -4.524  -9.536  0.00  0.00    +0.339 C 
ATOM     40  O   UNL     1     -11.068  -3.947  -9.101  0.00  0.00    -0.331 OA
ATOM     41  C   UNL     1     -12.123  -4.923  -9.021  0.00  0.00    +0.179 C 
ATOM     42  C   UNL     1     -12.421  -5.461 -10.425  0.00  0.00    +0.177 C 
ATOM     43  C   UNL     1     -11.149  -5.986 -11.115  0.00  0.00    +0.180 C 
ATOM     44  C   UNL     1      -9.977  -4.999 -10.992  0.00  0.00    +0.214 C 
BRANCH  44  45
ATOM     45  O   UNL     1      -8.749  -5.554 -11.479  0.00  0.00    -0.383 OA
ATOM     46  H   UNL     1      -8.592  -6.394 -11.013  0.00  0.00    +0.210 HD
ENDBRANCH  44  45
BRANCH  43  47
ATOM     47  O   UNL     1     -11.448  -6.227 -12.499  0.00  0.00    -0.386 OA
ATOM     48  H   UNL     1     -12.156  -5.593 -12.738  0.00  0.00    +0.210 HD
ENDBRANCH  43  47
BRANCH  42  49
ATOM     49  O   UNL     1     -12.985  -4.437 -11.267  0.00  0.00    -0.386 OA
ATOM     50  H   UNL     1     -12.525  -3.597 -11.075  0.00  0.00    +0.210 HD
ENDBRANCH  42  49
BRANCH  41  51
ATOM     51  C   UNL     1     -13.357  -4.266  -8.381  0.00  0.00    +0.190 C 
BRANCH  51  52
ATOM     52  O   UNL     1     -13.066  -3.738  -7.086  0.00  0.00    -0.392 OA
ATOM     53  H   UNL     1     -12.598  -4.415  -6.572  0.00  0.00    +0.210 HD
ENDBRANCH  51  52
ENDBRANCH  41  51
ENDBRANCH  38  39
ENDBRANCH  21  38
ENDBRANCH  14  15
ENDBRANCH   2  14
BRANCH   1  54
ATOM     54  O   UNL     1      -7.186  -5.337   0.782  0.00  0.00    -0.336 OA
BRANCH  54  56
ATOM     55  C   UNL     1      -6.585  -7.276   2.199  0.00  0.00    +0.263 C 
ATOM     56  C   UNL     1      -7.654  -6.614   1.278  0.00  0.00    +0.295 C 
ATOM     57  O   UNL     1      -8.149  -7.450   0.244  0.00  0.00    -0.340 OA
ATOM     58  C   UNL     1      -7.192  -8.185  -0.523  0.00  0.00    +0.178 C 
ATOM     59  C   UNL     1      -6.335  -9.088   0.356  0.00  0.00    +0.178 C 
ATOM     60  C   UNL     1      -5.671  -8.301   1.499  0.00  0.00    +0.191 C 
BRANCH  59  61
ATOM     61  O   UNL     1      -5.360  -9.787  -0.433  0.00  0.00    -0.386 OA
ATOM     62  H   UNL     1      -4.602  -9.187  -0.567  0.00  0.00    +0.210 HD
ENDBRANCH  59  61
BRANCH  60  63
ATOM     63  O   UNL     1      -5.030  -9.171   2.441  0.00  0.00    -0.385 OA
ATOM     64  H   UNL     1      -5.618  -9.937   2.571  0.00  0.00    +0.210 HD
ENDBRANCH  60  63
BRANCH  58  65
ATOM     65  C   UNL     1      -6.389  -7.297  -1.469  0.00  0.00    +0.190 C 
BRANCH  65  66
ATOM     66  O   UNL     1      -5.418  -6.494  -0.809  0.00  0.00    -0.392 OA
ATOM     67  H   UNL     1      -5.896  -5.728  -0.432  0.00  0.00    +0.210 HD
ENDBRANCH  65  66
ENDBRANCH  58  65
BRANCH  55  68
ATOM     68  O   UNL     1      -7.161  -7.704   3.485  0.00  0.00    -0.450 OA
BRANCH  68  69
ATOM     69  C   UNL     1      -7.926  -8.808   3.608  0.00  0.00    +0.332 C 
ATOM     70  O   UNL     1      -8.191  -9.602   2.724  0.00  0.00    -0.246 OA
BRANCH  69  72
ATOM     71  C   UNL     1      -9.164  -9.933   5.421  0.00  0.00    +0.015 C 
ATOM     72  C   UNL     1      -8.403  -8.898   5.016  0.00  0.00    +0.092 C 
BRANCH  71  74
ATOM     73  C   UNL     1      -9.550  -9.302   7.866  0.00  0.00    +0.012 A 
ATOM     74  C   UNL     1      -9.716 -10.176   6.774  0.00  0.00    -0.021 A 
ATOM     75  C   UNL     1     -10.453 -11.355   6.986  0.00  0.00    +0.057 A 
ATOM     76  C   UNL     1     -10.982 -11.644   8.243  0.00  0.00    +0.159 A 
ATOM     77  C   UNL     1     -10.800 -10.776   9.319  0.00  0.00    +0.158 A 
ATOM     78  C   UNL     1     -10.095  -9.602   9.131  0.00  0.00    +0.050 A 
BRANCH  76  79
ATOM     79  O   UNL     1     -11.683 -12.806   8.416  0.00  0.00    -0.503 OA
ATOM     80  H   UNL     1     -11.949 -12.794   9.357  0.00  0.00    +0.292 HD
ENDBRANCH  76  79
BRANCH  77  81
ATOM     81  O   UNL     1     -11.341 -11.135  10.519  0.00  0.00    -0.503 OA
ATOM     82  H   UNL     1     -11.105 -10.448  11.166  0.00  0.00    +0.292 HD
ENDBRANCH  77  81
ENDBRANCH  71  74
ENDBRANCH  69  72
ENDBRANCH  68  69
ENDBRANCH  55  68
ENDBRANCH  54  56
ENDBRANCH   1  54
TORSDOF 29
