REMARK  Name = 
REMARK  17 active torsions:
REMARK  status: ('A' for Active; 'I' for Inactive)
REMARK    1  A    between atoms: C_3  and  O_46
REMARK    2  A    between atoms: C_4  and  O_45
REMARK    3  A    between atoms: C_6  and  C_7
REMARK    4  A    between atoms: C_8  and  C_9
REMARK    5  A    between atoms: C_9  and  O_11
REMARK    6  A    between atoms: O_11  and  C_12
REMARK    7  A    between atoms: C_13  and  O_44
REMARK    8  A    between atoms: C_14  and  O_43
REMARK    9  A    between atoms: C_15  and  C_40
REMARK   10  A    between atoms: C_17  and  O_18
REMARK   11  A    between atoms: O_18  and  C_19
REMARK   12  A    between atoms: C_20  and  C_32
REMARK   13  A    between atoms: C_24  and  O_31
REMARK   14  A    between atoms: C_26  and  O_30
REMARK   15  A    between atoms: C_34  and  O_39
REMARK   16  A    between atoms: C_35  and  O_38
REMARK   17  A    between atoms: C_40  and  O_42
REMARK                            x       y       z     vdW  Elec       q    Type
REMARK                         _______ _______ _______ _____ _____    ______ ____
ROOT
ATOM      1  C   UNL     1      -5.458  -5.438  -1.234  0.00  0.00    +0.276 C 
ATOM      2  C   UNL     1      -5.826  -5.399   0.279  0.00  0.00    +0.352 C 
ATOM      3  O   UNL     1      -5.189  -6.398   1.101  0.00  0.00    -0.321 OA
ATOM      4  C   UNL     1      -5.302  -7.729   0.626  0.00  0.00    +0.261 C 
ATOM      5  C   UNL     1      -4.684  -7.848  -0.764  0.00  0.00    +0.186 C 
ATOM      6  C   UNL     1      -5.336  -6.877  -1.759  0.00  0.00    +0.193 C 
ENDROOT
BRANCH   6   7
ATOM      7  O   UNL     1      -4.639  -6.899  -3.013  0.00  0.00    -0.385 OA
ATOM      8  H   UNL     1      -3.685  -6.963  -2.826  0.00  0.00    +0.210 HD
ENDBRANCH   6   7
BRANCH   5   9
ATOM      9  O   UNL     1      -4.725  -9.195  -1.244  0.00  0.00    -0.386 OA
ATOM     10  H   UNL     1      -5.663  -9.420  -1.431  0.00  0.00    +0.210 HD
ENDBRANCH   5   9
BRANCH   4  11
ATOM     11  C   UNL     1      -6.701  -8.354   0.711  0.00  0.00    +0.337 C 
ATOM     12  O   UNL     1      -7.314  -8.817  -0.240  0.00  0.00    -0.248 OA
BRANCH  11  13
ATOM     13  O   UNL     1      -7.188  -8.375   1.977  0.00  0.00    -0.479 OA
ATOM     14  H   UNL     1      -6.612  -7.905   2.613  0.00  0.00    +0.295 HD
ENDBRANCH  11  13
ENDBRANCH   4  11
BRANCH   2  15
ATOM     15  O   UNL     1      -7.256  -5.424   0.464  0.00  0.00    -0.452 OA
BRANCH  15  16
ATOM     16  C   UNL     1      -7.693  -5.153   1.765  0.00  0.00    +0.214 A 
ATOM     17  C   UNL     1      -7.010  -4.088   2.573  0.00  0.00    +0.238 A 
ATOM     18  O   UNL     1      -6.272  -3.266   2.047  0.00  0.00    -0.283 OA
ATOM     19  C   UNL     1      -7.300  -4.018   4.009  0.00  0.00    +0.109 A 
ATOM     20  C   UNL     1      -8.356  -4.778   4.483  0.00  0.00    +0.147 A 
ATOM     21  C   UNL     1      -8.699  -4.731   5.839  0.00  0.00    +0.092 A 
ATOM     22  C   UNL     1      -7.982  -3.900   6.694  0.00  0.00    +0.124 A 
ATOM     23  C   UNL     1      -6.934  -3.123   6.231  0.00  0.00    +0.091 A 
ATOM     24  O   UNL     1      -9.127  -5.564   3.668  0.00  0.00    -0.451 OA
ATOM     25  C   UNL     1      -6.585  -3.185   4.884  0.00  0.00    +0.135 A 
ATOM     26  C   UNL     1      -8.779  -5.742   2.325  0.00  0.00    +0.181 A 
BRANCH  26  27
ATOM     27  C   UNL     1      -9.784  -6.610   1.614  0.00  0.00    +0.025 A 
ATOM     28  C   UNL     1     -10.663  -7.431   2.364  0.00  0.00    +0.015 A 
ATOM     29  C   UNL     1     -11.773  -8.058   1.779  0.00  0.00    +0.050 A 
ATOM     30  C   UNL     1     -11.997  -7.906   0.425  0.00  0.00    +0.158 A 
ATOM     31  C   UNL     1     -11.092  -7.200  -0.355  0.00  0.00    +0.159 A 
ATOM     32  C   UNL     1     -10.006  -6.541   0.226  0.00  0.00    +0.060 A 
BRANCH  31  33
ATOM     33  O   UNL     1     -11.320  -7.156  -1.704  0.00  0.00    -0.503 OA
ATOM     34  H   UNL     1     -10.460  -7.007  -2.136  0.00  0.00    +0.292 HD
ENDBRANCH  31  33
BRANCH  30  35
ATOM     35  O   UNL     1     -13.119  -8.441  -0.139  0.00  0.00    -0.503 OA
ATOM     36  H   UNL     1     -13.095  -8.134  -1.068  0.00  0.00    +0.292 HD
ENDBRANCH  30  35
ENDBRANCH  26  27
BRANCH  25  37
ATOM     37  O   UNL     1      -5.528  -2.441   4.449  0.00  0.00    -0.506 OA
ATOM     38  H   UNL     1      -5.264  -1.801   5.129  0.00  0.00    +0.292 HD
ENDBRANCH  25  37
BRANCH  22  39
ATOM     39  O   UNL     1      -8.270  -3.812   8.021  0.00  0.00    -0.507 OA
ATOM     40  H   UNL     1      -9.024  -4.385   8.230  0.00  0.00    +0.292 HD
ENDBRANCH  22  39
ENDBRANCH  15  16
ENDBRANCH   2  15
BRANCH   1  41
ATOM     41  O   UNL     1      -4.210  -4.690  -1.473  0.00  0.00    -0.449 OA
BRANCH  41  42
ATOM     42  C   UNL     1      -4.363  -3.449  -2.046  0.00  0.00    +0.332 C 
ATOM     43  O   UNL     1      -5.426  -2.948  -2.380  0.00  0.00    -0.246 OA
BRANCH  42  45
ATOM     44  C   UNL     1      -2.929  -1.597  -2.863  0.00  0.00    +0.015 C 
ATOM     45  C   UNL     1      -3.044  -2.769  -2.204  0.00  0.00    +0.092 C 
BRANCH  44  47
ATOM     46  C   UNL     1      -0.439  -1.129  -2.575  0.00  0.00    +0.012 A 
ATOM     47  C   UNL     1      -1.703  -0.781  -3.085  0.00  0.00    -0.021 A 
ATOM     48  C   UNL     1      -1.796   0.417  -3.824  0.00  0.00    +0.057 A 
ATOM     49  C   UNL     1      -0.668   1.217  -4.028  0.00  0.00    +0.159 A 
ATOM     50  C   UNL     1       0.570   0.858  -3.509  0.00  0.00    +0.158 A 
ATOM     51  C   UNL     1       0.696  -0.318  -2.784  0.00  0.00    +0.050 A 
BRANCH  50  52
ATOM     52  O   UNL     1       1.626   1.696  -3.738  0.00  0.00    -0.503 OA
ATOM     53  H   UNL     1       2.407   1.342  -3.278  0.00  0.00    +0.292 HD
ENDBRANCH  50  52
BRANCH  49  54
ATOM     54  O   UNL     1      -0.783   2.374  -4.749  0.00  0.00    -0.503 OA
ATOM     55  H   UNL     1       0.121   2.751  -4.755  0.00  0.00    +0.292 HD
ENDBRANCH  49  54
ENDBRANCH  44  47
ENDBRANCH  42  45
ENDBRANCH  41  42
ENDBRANCH   1  41
TORSDOF 17
