REMARK  Name = 
REMARK  12 active torsions:
REMARK  status: ('A' for Active; 'I' for Inactive)
REMARK    1  A    between atoms: C_3  and  O_34
REMARK    2  A    between atoms: C_4  and  O_21
REMARK    3  A    between atoms: C_6  and  C_7
REMARK    4  A    between atoms: C_8  and  O_20
REMARK    5  A    between atoms: C_12  and  O_19
REMARK    6  A    between atoms: C_14  and  O_18
REMARK    7  A    between atoms: O_21  and  C_22
REMARK    8  A    between atoms: C_23  and  O_33
REMARK    9  A    between atoms: C_24  and  O_32
REMARK   10  A    between atoms: C_25  and  O_31
REMARK   11  A    between atoms: C_26  and  C_28
REMARK   12  A    between atoms: C_28  and  O_30
REMARK                            x       y       z     vdW  Elec       q    Type
REMARK                         _______ _______ _______ _____ _____    ______ ____
ROOT
ATOM      1  C   UNL     1      -1.466   0.020  -0.069  0.00  0.00    +0.011 A 
ATOM      2  C   UNL     1      -0.791  -1.209  -0.118  0.00  0.00    -0.001 A 
ATOM      3  C   UNL     1       0.620  -1.216  -0.196  0.00  0.00    +0.057 A 
ATOM      4  C   UNL     1       1.338  -0.028  -0.204  0.00  0.00    +0.166 A 
ATOM      5  C   UNL     1       0.645   1.186  -0.130  0.00  0.00    +0.159 A 
ATOM      6  C   UNL     1      -0.748   1.219  -0.075  0.00  0.00    +0.049 A 
ENDROOT
BRANCH   2   7
ATOM      7  C   UNL     1      -1.521  -2.544  -0.147  0.00  0.00    +0.240 C 
ATOM      8  O   UNL     1      -2.731  -2.496   0.638  0.00  0.00    -0.480 OA
ATOM      9  C   UNL     1      -3.447  -3.671   0.611  0.00  0.00    +0.139 A 
ATOM     10  C   UNL     1      -3.300  -4.645  -0.382  0.00  0.00    +0.103 A 
ATOM     11  C   UNL     1      -4.035  -5.836  -0.324  0.00  0.00    +0.134 A 
ATOM     12  C   UNL     1      -4.953  -6.046   0.702  0.00  0.00    +0.091 A 
ATOM     13  C   UNL     1      -5.119  -5.054   1.669  0.00  0.00    +0.124 A 
ATOM     14  C   UNL     1      -2.360  -4.387  -1.478  0.00  0.00    +0.202 C 
ATOM     15  O   UNL     1      -2.015  -5.297  -2.231  0.00  0.00    -0.289 OA
ATOM     16  C   UNL     1      -4.377  -3.876   1.628  0.00  0.00    +0.092 A 
ATOM     17  C   UNL     1      -1.832  -2.972  -1.586  0.00  0.00    +0.230 C 
BRANCH  11  18
ATOM     18  O   UNL     1      -3.902  -6.839  -1.245  0.00  0.00    -0.506 OA
ATOM     19  H   UNL     1      -3.180  -6.601  -1.869  0.00  0.00    +0.292 HD
ENDBRANCH  11  18
BRANCH  13  20
ATOM     20  O   UNL     1      -6.012  -5.210   2.684  0.00  0.00    -0.507 OA
ATOM     21  H   UNL     1      -6.470  -6.063   2.574  0.00  0.00    +0.292 HD
ENDBRANCH  13  20
BRANCH  17  22
ATOM     22  O   UNL     1      -0.681  -2.951  -2.430  0.00  0.00    -0.380 OA
ATOM     23  H   UNL     1      -0.348  -3.865  -2.501  0.00  0.00    +0.211 HD
ENDBRANCH  17  22
ENDBRANCH   2   7
BRANCH   5  24
ATOM     24  O   UNL     1       1.360   2.357  -0.113  0.00  0.00    -0.503 OA
ATOM     25  H   UNL     1       0.742   3.104  -0.104  0.00  0.00    +0.292 HD
ENDBRANCH   5  24
BRANCH   4  26
ATOM     26  O   UNL     1       2.692   0.045  -0.167  0.00  0.00    -0.457 OA
BRANCH  26  27
ATOM     27  C   UNL     1       3.536  -0.862  -0.867  0.00  0.00    +0.340 C 
ATOM     28  O   UNL     1       3.780  -2.100  -0.158  0.00  0.00    -0.322 OA
ATOM     29  C   UNL     1       5.019  -2.689  -0.613  0.00  0.00    +0.261 C 
ATOM     30  C   UNL     1       4.965  -3.016  -2.115  0.00  0.00    +0.185 C 
ATOM     31  C   UNL     1       4.560  -1.762  -2.917  0.00  0.00    +0.180 C 
ATOM     32  C   UNL     1       3.245  -1.154  -2.361  0.00  0.00    +0.214 C 
BRANCH  29  33
ATOM     33  C   UNL     1       5.372  -3.913   0.230  0.00  0.00    +0.337 C 
ATOM     34  O   UNL     1       6.196  -4.761  -0.079  0.00  0.00    -0.248 OA
BRANCH  33  35
ATOM     35  O   UNL     1       4.716  -3.928   1.417  0.00  0.00    -0.479 OA
ATOM     36  H   UNL     1       4.115  -3.151   1.484  0.00  0.00    +0.295 HD
ENDBRANCH  33  35
ENDBRANCH  29  33
BRANCH  30  37
ATOM     37  O   UNL     1       4.008  -4.039  -2.441  0.00  0.00    -0.386 OA
ATOM     38  H   UNL     1       3.315  -4.072  -1.758  0.00  0.00    +0.210 HD
ENDBRANCH  30  37
BRANCH  31  39
ATOM     39  O   UNL     1       4.452  -2.077  -4.306  0.00  0.00    -0.386 OA
ATOM     40  H   UNL     1       4.065  -2.974  -4.360  0.00  0.00    +0.210 HD
ENDBRANCH  31  39
BRANCH  32  41
ATOM     41  O   UNL     1       2.849   0.004  -3.095  0.00  0.00    -0.383 OA
ATOM     42  H   UNL     1       3.621   0.570  -3.251  0.00  0.00    +0.210 HD
ENDBRANCH  32  41
ENDBRANCH  26  27
ENDBRANCH   4  26
TORSDOF 12
