REMARK  Name = 
REMARK  32 active torsions:
REMARK  status: ('A' for Active; 'I' for Inactive)
REMARK    1  A    between atoms: C_1  and  O_2
REMARK    2  A    between atoms: O_2  and  C_3
REMARK    3  A    between atoms: C_5  and  C_12
REMARK    4  A    between atoms: C_7  and  O_10
REMARK    5  A    between atoms: C_8  and  O_9
REMARK    6  A    between atoms: O_10  and  C_11
REMARK    7  A    between atoms: C_13  and  C_14
REMARK    8  A    between atoms: C_14  and  O_16
REMARK    9  A    between atoms: O_16  and  C_17
REMARK   10  A    between atoms: C_17  and  C_18
REMARK   11  A    between atoms: C_19  and  O_70
REMARK   12  A    between atoms: C_20  and  O_69
REMARK   13  A    between atoms: C_21  and  O_68
REMARK   14  A    between atoms: C_22  and  O_24
REMARK   15  A    between atoms: O_24  and  C_25
REMARK   16  A    between atoms: C_26  and  O_67
REMARK   17  A    between atoms: C_27  and  O_66
REMARK   18  A    between atoms: C_28  and  C_64
REMARK   19  A    between atoms: C_30  and  O_31
REMARK   20  A    between atoms: O_31  and  C_32
REMARK   21  A    between atoms: C_33  and  O_63
REMARK   22  A    between atoms: C_34  and  O_62
REMARK   23  A    between atoms: C_35  and  C_60
REMARK   24  A    between atoms: C_37  and  O_38
REMARK   25  A    between atoms: O_38  and  C_39
REMARK   26  A    between atoms: C_40  and  C_52
REMARK   27  A    between atoms: C_44  and  O_51
REMARK   28  A    between atoms: C_46  and  O_50
REMARK   29  A    between atoms: C_54  and  O_59
REMARK   30  A    between atoms: C_55  and  O_58
REMARK   31  A    between atoms: C_60  and  O_61
REMARK   32  A    between atoms: C_64  and  O_65
REMARK                            x       y       z     vdW  Elec       q    Type
REMARK                         _______ _______ _______ _____ _____    ______ ____
ROOT
ATOM      1  C   UNL     1       7.283  10.977   6.436  0.00  0.00    +0.208 C 
ATOM      2  C   UNL     1       7.697  12.382   5.817  0.00  0.00    +0.283 C 
ATOM      3  O   UNL     1       8.045  13.389   6.764  0.00  0.00    -0.341 OA
ATOM      4  C   UNL     1       7.234  13.518   7.933  0.00  0.00    +0.178 C 
ATOM      5  C   UNL     1       7.332  12.228   8.719  0.00  0.00    +0.177 C 
ATOM      6  C   UNL     1       6.818  11.050   7.906  0.00  0.00    +0.179 C 
ENDROOT
BRANCH   5   7
ATOM      7  O   UNL     1       6.580  12.294   9.936  0.00  0.00    -0.386 OA
ATOM      8  H   UNL     1       6.356  11.369  10.170  0.00  0.00    +0.210 HD
ENDBRANCH   5   7
BRANCH   6   9
ATOM      9  O   UNL     1       7.136   9.890   8.695  0.00  0.00    -0.386 OA
ATOM     10  H   UNL     1       8.112   9.795   8.664  0.00  0.00    +0.210 HD
ENDBRANCH   6   9
BRANCH   2  11
ATOM     11  O   UNL     1       6.654  12.828   4.916  0.00  0.00    -0.337 OA
BRANCH  11  12
ATOM     12  C   UNL     1       6.770  14.178   4.397  0.00  0.00    +0.221 C 
ATOM     13  C   UNL     1       5.367  14.722   3.941  0.00  0.00    +0.340 C 
ATOM     14  O   UNL     1       4.906  14.021   2.773  0.00  0.00    -0.331 OA
ATOM     15  C   UNL     1       5.754  13.979   1.625  0.00  0.00    +0.179 C 
ATOM     16  C   UNL     1       7.178  13.523   1.984  0.00  0.00    +0.177 C 
ATOM     17  C   UNL     1       7.703  14.317   3.179  0.00  0.00    +0.180 C 
BRANCH  17  18
ATOM     18  O   UNL     1       9.064  13.965   3.447  0.00  0.00    -0.386 OA
ATOM     19  H   UNL     1       9.141  12.993   3.397  0.00  0.00    +0.210 HD
ENDBRANCH  17  18
BRANCH  16  20
ATOM     20  O   UNL     1       8.079  13.675   0.874  0.00  0.00    -0.386 OA
ATOM     21  H   UNL     1       8.940  13.958   1.246  0.00  0.00    +0.210 HD
ENDBRANCH  16  20
BRANCH  15  22
ATOM     22  C   UNL     1       5.702  15.277   0.790  0.00  0.00    +0.190 C 
BRANCH  22  23
ATOM     23  O   UNL     1       6.350  15.139  -0.476  0.00  0.00    -0.392 OA
ATOM     24  H   UNL     1       7.144  14.582  -0.330  0.00  0.00    +0.210 HD
ENDBRANCH  22  23
ENDBRANCH  15  22
BRANCH  13  25
ATOM     25  O   UNL     1       5.539  16.133   3.740  0.00  0.00    -0.453 OA
BRANCH  25  26
ATOM     26  C   UNL     1       4.517  17.048   3.872  0.00  0.00    +0.214 A 
ATOM     27  C   UNL     1       3.160  16.755   3.319  0.00  0.00    +0.238 A 
ATOM     28  O   UNL     1       2.709  15.619   3.275  0.00  0.00    -0.283 OA
ATOM     29  C   UNL     1       2.373  17.924   2.892  0.00  0.00    +0.109 A 
ATOM     30  C   UNL     1       2.701  19.145   3.475  0.00  0.00    +0.147 A 
ATOM     31  C   UNL     1       1.982  20.299   3.154  0.00  0.00    +0.092 A 
ATOM     32  C   UNL     1       0.947  20.218   2.227  0.00  0.00    +0.124 A 
ATOM     33  C   UNL     1       0.616  19.008   1.625  0.00  0.00    +0.091 A 
ATOM     34  O   UNL     1       3.722  19.273   4.384  0.00  0.00    -0.451 OA
ATOM     35  C   UNL     1       1.331  17.858   1.959  0.00  0.00    +0.135 A 
ATOM     36  C   UNL     1       4.706  18.283   4.409  0.00  0.00    +0.181 A 
BRANCH  36  37
ATOM     37  C   UNL     1       5.934  18.718   5.163  0.00  0.00    +0.025 A 
ATOM     38  C   UNL     1       7.172  18.071   5.006  0.00  0.00    +0.015 A 
ATOM     39  C   UNL     1       8.247  18.293   5.873  0.00  0.00    +0.050 A 
ATOM     40  C   UNL     1       8.132  19.252   6.856  0.00  0.00    +0.158 A 
ATOM     41  C   UNL     1       6.990  20.037   6.925  0.00  0.00    +0.159 A 
ATOM     42  C   UNL     1       5.885  19.770   6.108  0.00  0.00    +0.060 A 
BRANCH  41  43
ATOM     43  O   UNL     1       6.995  21.073   7.819  0.00  0.00    -0.503 OA
ATOM     44  H   UNL     1       6.687  21.860   7.333  0.00  0.00    +0.292 HD
ENDBRANCH  41  43
BRANCH  40  45
ATOM     45  O   UNL     1       9.158  19.430   7.735  0.00  0.00    -0.503 OA
ATOM     46  H   UNL     1       8.833  20.093   8.376  0.00  0.00    +0.292 HD
ENDBRANCH  40  45
ENDBRANCH  36  37
BRANCH  35  47
ATOM     47  O   UNL     1       1.028  16.684   1.334  0.00  0.00    -0.506 OA
ATOM     48  H   UNL     1       0.250  16.799   0.765  0.00  0.00    +0.292 HD
ENDBRANCH  35  47
BRANCH  32  49
ATOM     49  O   UNL     1       0.225  21.316   1.863  0.00  0.00    -0.507 OA
ATOM     50  H   UNL     1       0.554  22.091   2.348  0.00  0.00    +0.292 HD
ENDBRANCH  32  49
ENDBRANCH  25  26
ENDBRANCH  13  25
ENDBRANCH  11  12
ENDBRANCH   2  11
BRANCH   1  51
ATOM     51  O   UNL     1       8.255   9.908   6.231  0.00  0.00    -0.338 OA
BRANCH  51  54
ATOM     52  C   UNL     1       8.368   6.208   6.154  0.00  0.00    +0.190 C 
ATOM     53  O   UNL     1       8.763   7.603   6.073  0.00  0.00    -0.339 OA
ATOM     54  C   UNL     1       7.707   8.556   6.296  0.00  0.00    +0.282 C 
ATOM     55  C   UNL     1       6.564   8.313   5.290  0.00  0.00    +0.201 C 
ATOM     56  C   UNL     1       6.065   6.875   5.407  0.00  0.00    +0.179 C 
ATOM     57  C   UNL     1       7.222   5.898   5.176  0.00  0.00    +0.178 C 
BRANCH  55  58
ATOM     58  O   UNL     1       6.992   8.559   3.938  0.00  0.00    -0.384 OA
ATOM     59  H   UNL     1       7.955   8.388   3.905  0.00  0.00    +0.210 HD
ENDBRANCH  55  58
BRANCH  56  60
ATOM     60  O   UNL     1       5.016   6.655   4.463  0.00  0.00    -0.386 OA
ATOM     61  H   UNL     1       5.264   7.154   3.657  0.00  0.00    +0.210 HD
ENDBRANCH  56  60
BRANCH  57  62
ATOM     62  O   UNL     1       6.814   4.534   5.283  0.00  0.00    -0.386 OA
ATOM     63  H   UNL     1       6.005   4.480   5.820  0.00  0.00    +0.210 HD
ENDBRANCH  57  62
BRANCH  52  64
ATOM     64  C   UNL     1       8.047   5.719   7.590  0.00  0.00    +0.266 C 
BRANCH  64  65
ATOM     65  O   UNL     1       9.152   5.937   8.476  0.00  0.00    -0.459 OA
BRANCH  65  66
ATOM     66  C   UNL     1      10.143   5.018   8.364  0.00  0.00    +0.332 C 
ATOM     67  O   UNL     1      10.173   4.062   7.609  0.00  0.00    -0.246 OA
BRANCH  66  69
ATOM     68  C   UNL     1      12.351   4.697   9.314  0.00  0.00    +0.015 C 
ATOM     69  C   UNL     1      11.199   5.379   9.324  0.00  0.00    +0.092 C 
BRANCH  68  74
ATOM     70  C   UNL     1      15.228   3.951  11.589  0.00  0.00    +0.166 A 
ATOM     71  C   UNL     1      15.522   5.218  12.136  0.00  0.00    +0.201 A 
ATOM     72  C   UNL     1      14.788   6.344  11.741  0.00  0.00    +0.166 A 
ATOM     73  C   UNL     1      13.746   6.171  10.813  0.00  0.00    +0.057 A 
ATOM     74  C   UNL     1      13.435   4.919  10.274  0.00  0.00    -0.018 A 
ATOM     75  C   UNL     1      14.205   3.820  10.646  0.00  0.00    +0.057 A 
BRANCH  70  77
ATOM     76  C   UNL     1      15.414   1.603  11.866  0.00  0.00    +0.277 C 
ATOM     77  O   UNL     1      16.012   2.892  11.982  0.00  0.00    -0.491 OA
ENDBRANCH  70  77
BRANCH  72  78
ATOM     78  O   UNL     1      14.884   7.652  12.125  0.00  0.00    -0.491 OA
ATOM     79  C   UNL     1      15.854   8.088  13.055  0.00  0.00    +0.277 C 
ENDBRANCH  72  78
BRANCH  71  80
ATOM     80  O   UNL     1      16.517   5.249  13.078  0.00  0.00    -0.501 OA
ATOM     81  H   UNL     1      17.032   6.056  12.959  0.00  0.00    +0.292 HD
ENDBRANCH  71  80
ENDBRANCH  68  74
ENDBRANCH  66  69
ENDBRANCH  65  66
ENDBRANCH  64  65
ENDBRANCH  52  64
ENDBRANCH  51  54
ENDBRANCH   1  51
BRANCH   4  82
ATOM     82  C   UNL     1       5.774  13.955   7.696  0.00  0.00    +0.190 C 
BRANCH  82  83
ATOM     83  O   UNL     1       5.692  15.223   7.051  0.00  0.00    -0.392 OA
ATOM     84  H   UNL     1       6.260  15.846   7.540  0.00  0.00    +0.210 HD
ENDBRANCH  82  83
ENDBRANCH   4  82
TORSDOF 30
