REMARK  Name = 
REMARK  17 active torsions:
REMARK  status: ('A' for Active; 'I' for Inactive)
REMARK    1  A    between atoms: C_1  and  C_2
REMARK    2  A    between atoms: C_3  and  O_44
REMARK    3  A    between atoms: C_4  and  O_43
REMARK    4  A    between atoms: C_5  and  O_42
REMARK    5  A    between atoms: C_6  and  O_8
REMARK    6  A    between atoms: O_8  and  C_9
REMARK    7  A    between atoms: C_10  and  C_34
REMARK    8  A    between atoms: C_14  and  O_21
REMARK    9  A    between atoms: C_16  and  O_20
REMARK   10  A    between atoms: O_21  and  C_22
REMARK   11  A    between atoms: C_23  and  O_33
REMARK   12  A    between atoms: C_24  and  O_32
REMARK   13  A    between atoms: C_25  and  O_31
REMARK   14  A    between atoms: C_26  and  C_28
REMARK   15  A    between atoms: C_28  and  O_30
REMARK   16  A    between atoms: C_36  and  O_41
REMARK   17  A    between atoms: C_37  and  O_40
REMARK                            x       y       z     vdW  Elec       q    Type
REMARK                         _______ _______ _______ _____ _____    ______ ____
ROOT
ATOM      1  C   UNL     1       2.710   2.911  -3.276  0.00  0.00    +0.214 A 
ATOM      2  C   UNL     1       1.311   3.414  -3.087  0.00  0.00    +0.238 A 
ATOM      3  O   UNL     1       0.331   2.705  -3.271  0.00  0.00    -0.283 OA
ATOM      4  C   UNL     1       1.126   4.846  -2.819  0.00  0.00    +0.109 A 
ATOM      5  C   UNL     1       2.197   5.693  -3.068  0.00  0.00    +0.147 A 
ATOM      6  C   UNL     1       2.033   7.081  -2.945  0.00  0.00    +0.093 A 
ATOM      7  C   UNL     1       0.796   7.613  -2.558  0.00  0.00    +0.131 A 
ATOM      8  C   UNL     1      -0.277   6.756  -2.317  0.00  0.00    +0.092 A 
ATOM      9  O   UNL     1       3.431   5.230  -3.463  0.00  0.00    -0.451 OA
ATOM     10  C   UNL     1      -0.110   5.380  -2.428  0.00  0.00    +0.135 A 
ATOM     11  C   UNL     1       3.649   3.856  -3.491  0.00  0.00    +0.181 A 
ENDROOT
BRANCH  11  12
ATOM     12  C   UNL     1       5.032   3.501  -3.884  0.00  0.00    +0.025 A 
ATOM     13  C   UNL     1       6.029   3.267  -2.921  0.00  0.00    +0.015 A 
ATOM     14  C   UNL     1       7.332   2.914  -3.309  0.00  0.00    +0.050 A 
ATOM     15  C   UNL     1       7.638   2.795  -4.655  0.00  0.00    +0.158 A 
ATOM     16  C   UNL     1       6.661   3.028  -5.620  0.00  0.00    +0.159 A 
ATOM     17  C   UNL     1       5.367   3.381  -5.249  0.00  0.00    +0.060 A 
BRANCH  16  18
ATOM     18  O   UNL     1       7.025   2.887  -6.933  0.00  0.00    -0.503 OA
ATOM     19  H   UNL     1       6.248   3.066  -7.489  0.00  0.00    +0.292 HD
ENDBRANCH  16  18
BRANCH  15  20
ATOM     20  O   UNL     1       8.900   2.428  -5.031  0.00  0.00    -0.503 OA
ATOM     21  H   UNL     1       8.857   2.377  -6.007  0.00  0.00    +0.292 HD
ENDBRANCH  15  20
ENDBRANCH  11  12
BRANCH  10  22
ATOM     22  O   UNL     1      -1.166   4.568  -2.124  0.00  0.00    -0.506 OA
ATOM     23  H   UNL     1      -1.978   5.087  -2.008  0.00  0.00    +0.292 HD
ENDBRANCH  10  22
BRANCH   7  24
ATOM     24  O   UNL     1       0.491   8.933  -2.363  0.00  0.00    -0.461 OA
BRANCH  24  25
ATOM     25  C   UNL     1       1.579   9.857  -2.277  0.00  0.00    +0.340 C 
ATOM     26  O   UNL     1       2.408   9.578  -1.128  0.00  0.00    -0.322 OA
ATOM     27  C   UNL     1       1.697   9.819   0.108  0.00  0.00    +0.261 C 
ATOM     28  C   UNL     1       1.439  11.313   0.228  0.00  0.00    +0.185 C 
ATOM     29  C   UNL     1       0.464  11.702  -0.889  0.00  0.00    +0.180 C 
ATOM     30  C   UNL     1       1.038  11.312  -2.265  0.00  0.00    +0.214 C 
BRANCH  29  31
ATOM     31  O   UNL     1       0.232  13.116  -0.857  0.00  0.00    -0.386 OA
ATOM     32  H   UNL     1       1.099  13.533  -0.670  0.00  0.00    +0.210 HD
ENDBRANCH  29  31
BRANCH  30  33
ATOM     33  O   UNL     1       0.087  11.510  -3.320  0.00  0.00    -0.383 OA
ATOM     34  H   UNL     1      -0.784  11.684  -2.917  0.00  0.00    +0.210 HD
ENDBRANCH  30  33
BRANCH  28  35
ATOM     35  O   UNL     1       2.646  12.078   0.022  0.00  0.00    -0.386 OA
ATOM     36  H   UNL     1       3.331  11.495  -0.358  0.00  0.00    +0.210 HD
ENDBRANCH  28  35
BRANCH  27  37
ATOM     37  C   UNL     1       2.516   9.306   1.288  0.00  0.00    +0.337 C 
ATOM     38  O   UNL     1       2.225   9.464   2.462  0.00  0.00    -0.248 OA
BRANCH  37  39
ATOM     39  O   UNL     1       3.609   8.617   0.882  0.00  0.00    -0.479 OA
ATOM     40  H   UNL     1       3.640   8.590  -0.100  0.00  0.00    +0.295 HD
ENDBRANCH  37  39
ENDBRANCH  27  37
ENDBRANCH  24  25
ENDBRANCH   7  24
BRANCH   1  41
ATOM     41  O   UNL     1       3.025   1.552  -3.338  0.00  0.00    -0.453 OA
BRANCH  41  45
ATOM     42  C   UNL     1      -0.882   0.234  -2.045  0.00  0.00    +0.041 C 
ATOM     43  C   UNL     1       0.439  -0.203  -1.401  0.00  0.00    +0.150 C 
ATOM     44  O   UNL     1       1.536   0.671  -1.721  0.00  0.00    -0.334 OA
ATOM     45  C   UNL     1       1.968   0.610  -3.088  0.00  0.00    +0.339 C 
ATOM     46  C   UNL     1       2.483  -0.816  -3.376  0.00  0.00    +0.214 C 
ATOM     47  C   UNL     1       1.334  -1.807  -3.137  0.00  0.00    +0.180 C 
ATOM     48  C   UNL     1       0.794  -1.670  -1.702  0.00  0.00    +0.174 C 
BRANCH  48  49
ATOM     49  O   UNL     1      -0.336  -2.515  -1.464  0.00  0.00    -0.387 OA
ATOM     50  H   UNL     1      -0.578  -2.940  -2.306  0.00  0.00    +0.210 HD
ENDBRANCH  48  49
BRANCH  47  51
ATOM     51  O   UNL     1       1.786  -3.149  -3.354  0.00  0.00    -0.386 OA
ATOM     52  H   UNL     1       2.671  -3.199  -2.936  0.00  0.00    +0.210 HD
ENDBRANCH  47  51
BRANCH  46  53
ATOM     53  O   UNL     1       3.574  -1.188  -2.508  0.00  0.00    -0.383 OA
ATOM     54  H   UNL     1       3.590  -0.531  -1.783  0.00  0.00    +0.210 HD
ENDBRANCH  46  53
ENDBRANCH  41  45
ENDBRANCH   1  41
TORSDOF 16
