REMARK  Name = 
REMARK  28 active torsions:
REMARK  status: ('A' for Active; 'I' for Inactive)
REMARK    1  A    between atoms: C_3  and  O_66
REMARK    2  A    between atoms: C_6  and  C_7
REMARK    3  A    between atoms: C_8  and  C_9
REMARK    4  A    between atoms: C_9  and  O_11
REMARK    5  A    between atoms: O_11  and  C_12
REMARK    6  A    between atoms: C_12  and  C_13
REMARK    7  A    between atoms: C_14  and  O_65
REMARK    8  A    between atoms: C_15  and  O_64
REMARK    9  A    between atoms: C_16  and  O_63
REMARK   10  A    between atoms: C_17  and  O_19
REMARK   11  A    between atoms: O_19  and  C_20
REMARK   12  A    between atoms: C_21  and  O_62
REMARK   13  A    between atoms: C_22  and  O_61
REMARK   14  A    between atoms: C_23  and  C_59
REMARK   15  A    between atoms: C_25  and  O_26
REMARK   16  A    between atoms: O_26  and  C_27
REMARK   17  A    between atoms: C_28  and  O_58
REMARK   18  A    between atoms: C_29  and  O_57
REMARK   19  A    between atoms: C_30  and  C_55
REMARK   20  A    between atoms: C_32  and  O_33
REMARK   21  A    between atoms: O_33  and  C_34
REMARK   22  A    between atoms: C_35  and  C_47
REMARK   23  A    between atoms: C_39  and  O_46
REMARK   24  A    between atoms: C_41  and  O_45
REMARK   25  A    between atoms: C_49  and  O_54
REMARK   26  A    between atoms: C_50  and  O_53
REMARK   27  A    between atoms: C_55  and  O_56
REMARK   28  A    between atoms: C_59  and  O_60
REMARK                            x       y       z     vdW  Elec       q    Type
REMARK                         _______ _______ _______ _____ _____    ______ ____
ROOT
ATOM      1  C   UNL     1      -8.019   0.626  -3.870  0.00  0.00    +0.208 C 
ATOM      2  C   UNL     1      -6.848   1.019  -4.836  0.00  0.00    +0.283 C 
ATOM      3  O   UNL     1      -7.177   0.846  -6.214  0.00  0.00    -0.341 OA
ATOM      4  C   UNL     1      -7.664  -0.442  -6.589  0.00  0.00    +0.178 C 
ATOM      5  C   UNL     1      -8.868  -0.852  -5.739  0.00  0.00    +0.177 C 
ATOM      6  C   UNL     1      -8.521  -0.782  -4.252  0.00  0.00    +0.179 C 
ENDROOT
BRANCH   6   7
ATOM      7  O   UNL     1      -9.625  -1.234  -3.453  0.00  0.00    -0.386 OA
ATOM      8  H   UNL     1     -10.353  -1.488  -4.060  0.00  0.00    +0.210 HD
ENDBRANCH   6   7
BRANCH   5   9
ATOM      9  O   UNL     1      -9.361  -2.150  -6.075  0.00  0.00    -0.386 OA
ATOM     10  H   UNL     1      -8.915  -2.814  -5.516  0.00  0.00    +0.210 HD
ENDBRANCH   5   9
BRANCH   4  11
ATOM     11  C   UNL     1      -6.549  -1.500  -6.614  0.00  0.00    +0.190 C 
BRANCH  11  12
ATOM     12  O   UNL     1      -5.434  -1.110  -7.417  0.00  0.00    -0.392 OA
ATOM     13  H   UNL     1      -5.761  -0.500  -8.100  0.00  0.00    +0.210 HD
ENDBRANCH  11  12
ENDBRANCH   4  11
BRANCH   2  14
ATOM     14  O   UNL     1      -5.624   0.356  -4.475  0.00  0.00    -0.337 OA
BRANCH  14  15
ATOM     15  C   UNL     1      -4.386   0.847  -5.108  0.00  0.00    +0.221 C 
ATOM     16  C   UNL     1      -3.160  -0.020  -4.557  0.00  0.00    +0.340 C 
ATOM     17  O   UNL     1      -3.011   0.197  -3.136  0.00  0.00    -0.331 OA
ATOM     18  C   UNL     1      -3.087   1.541  -2.616  0.00  0.00    +0.179 C 
ATOM     19  C   UNL     1      -4.148   2.460  -3.250  0.00  0.00    +0.177 C 
ATOM     20  C   UNL     1      -4.126   2.325  -4.769  0.00  0.00    +0.180 C 
BRANCH  20  21
ATOM     21  O   UNL     1      -5.067   3.232  -5.371  0.00  0.00    -0.386 OA
ATOM     22  H   UNL     1      -5.496   3.749  -4.666  0.00  0.00    +0.210 HD
ENDBRANCH  20  21
BRANCH  19  23
ATOM     23  O   UNL     1      -4.036   3.837  -2.868  0.00  0.00    -0.386 OA
ATOM     24  H   UNL     1      -3.545   4.303  -3.573  0.00  0.00    +0.210 HD
ENDBRANCH  19  23
BRANCH  18  25
ATOM     25  C   UNL     1      -1.697   2.183  -2.546  0.00  0.00    +0.190 C 
BRANCH  25  26
ATOM     26  O   UNL     1      -1.224   2.601  -3.819  0.00  0.00    -0.392 OA
ATOM     27  H   UNL     1      -0.621   1.909  -4.144  0.00  0.00    +0.210 HD
ENDBRANCH  25  26
ENDBRANCH  18  25
BRANCH  16  28
ATOM     28  O   UNL     1      -1.918   0.194  -5.293  0.00  0.00    -0.453 OA
BRANCH  28  29
ATOM     29  C   UNL     1      -0.831  -0.705  -5.265  0.00  0.00    +0.214 A 
ATOM     30  C   UNL     1      -0.916  -2.128  -4.830  0.00  0.00    +0.238 A 
ATOM     31  O   UNL     1      -1.896  -2.825  -5.076  0.00  0.00    -0.283 OA
ATOM     32  C   UNL     1       0.327  -2.705  -4.274  0.00  0.00    +0.109 A 
ATOM     33  C   UNL     1       1.521  -2.252  -4.803  0.00  0.00    +0.147 A 
ATOM     34  C   UNL     1       2.745  -2.809  -4.396  0.00  0.00    +0.092 A 
ATOM     35  C   UNL     1       2.759  -3.793  -3.400  0.00  0.00    +0.124 A 
ATOM     36  C   UNL     1       1.562  -4.214  -2.824  0.00  0.00    +0.091 A 
ATOM     37  O   UNL     1       1.523  -1.244  -5.738  0.00  0.00    -0.451 OA
ATOM     38  C   UNL     1       0.342  -3.677  -3.265  0.00  0.00    +0.135 A 
ATOM     39  C   UNL     1       0.390  -0.415  -5.808  0.00  0.00    +0.181 A 
BRANCH  39  40
ATOM     40  C   UNL     1       0.659   0.833  -6.562  0.00  0.00    +0.025 A 
ATOM     41  C   UNL     1      -0.345   1.404  -7.366  0.00  0.00    +0.015 A 
ATOM     42  C   UNL     1      -0.165   2.640  -7.980  0.00  0.00    +0.050 A 
ATOM     43  C   UNL     1       1.045   3.291  -7.834  0.00  0.00    +0.158 A 
ATOM     44  C   UNL     1       2.093   2.696  -7.138  0.00  0.00    +0.159 A 
ATOM     45  C   UNL     1       1.918   1.460  -6.519  0.00  0.00    +0.060 A 
BRANCH  44  46
ATOM     46  O   UNL     1       3.273   3.386  -7.067  0.00  0.00    -0.503 OA
ATOM     47  H   UNL     1       3.889   2.890  -6.501  0.00  0.00    +0.292 HD
ENDBRANCH  44  46
BRANCH  43  48
ATOM     48  O   UNL     1       1.197   4.534  -8.375  0.00  0.00    -0.503 OA
ATOM     49  H   UNL     1       2.090   4.816  -8.094  0.00  0.00    +0.292 HD
ENDBRANCH  43  48
ENDBRANCH  39  40
BRANCH  38  50
ATOM     50  O   UNL     1      -0.811  -4.056  -2.668  0.00  0.00    -0.506 OA
ATOM     51  H   UNL     1      -0.613  -4.572  -1.868  0.00  0.00    +0.292 HD
ENDBRANCH  38  50
BRANCH  35  52
ATOM     52  O   UNL     1       3.902  -4.365  -2.933  0.00  0.00    -0.507 OA
ATOM     53  H   UNL     1       4.647  -4.175  -3.528  0.00  0.00    +0.292 HD
ENDBRANCH  35  52
ENDBRANCH  28  29
ENDBRANCH  16  28
ENDBRANCH  14  15
ENDBRANCH   2  14
BRANCH   1  54
ATOM     54  O   UNL     1      -9.027   1.684  -3.920  0.00  0.00    -0.338 OA
BRANCH  54  57
ATOM     55  C   UNL     1     -12.523   2.044  -2.928  0.00  0.00    +0.190 C 
ATOM     56  O   UNL     1     -11.174   2.518  -3.298  0.00  0.00    -0.339 OA
ATOM     57  C   UNL     1     -10.184   1.475  -3.111  0.00  0.00    +0.282 C 
ATOM     58  C   UNL     1      -9.910   1.361  -1.603  0.00  0.00    +0.201 C 
ATOM     59  C   UNL     1     -11.195   0.831  -0.975  0.00  0.00    +0.179 C 
ATOM     60  C   UNL     1     -12.455   1.613  -1.425  0.00  0.00    +0.178 C 
BRANCH  60  61
ATOM     61  O   UNL     1     -13.613   0.935  -0.950  0.00  0.00    -0.386 OA
ATOM     62  H   UNL     1     -13.408   0.731  -0.007  0.00  0.00    +0.210 HD
ENDBRANCH  60  61
BRANCH  59  63
ATOM     63  O   UNL     1     -11.093   0.898   0.463  0.00  0.00    -0.386 OA
ATOM     64  H   UNL     1     -10.440   1.611   0.652  0.00  0.00    +0.210 HD
ENDBRANCH  59  63
BRANCH  58  65
ATOM     65  O   UNL     1      -9.571   2.622  -0.991  0.00  0.00    -0.384 OA
ATOM     66  H   UNL     1      -9.812   3.324  -1.628  0.00  0.00    +0.210 HD
ENDBRANCH  58  65
BRANCH  55  67
ATOM     67  C   UNL     1     -13.079   1.179  -4.135  0.00  0.00    +0.266 C 
BRANCH  67  68
ATOM     68  O   UNL     1     -14.500   0.846  -4.300  0.00  0.00    -0.459 OA
BRANCH  68  69
ATOM     69  C   UNL     1     -14.748  -0.467  -4.606  0.00  0.00    +0.332 C 
ATOM     70  O   UNL     1     -13.924  -1.364  -4.434  0.00  0.00    -0.246 OA
BRANCH  69  72
ATOM     71  C   UNL     1     -16.978  -0.212  -5.980  0.00  0.00    +0.015 C 
ATOM     72  C   UNL     1     -16.081  -0.851  -5.202  0.00  0.00    +0.092 C 
BRANCH  71  74
ATOM     73  C   UNL     1     -18.302  -2.095  -7.176  0.00  0.00    +0.011 A 
ATOM     74  C   UNL     1     -18.225  -0.814  -6.586  0.00  0.00    -0.025 A 
ATOM     75  C   UNL     1     -19.375  -0.018  -6.668  0.00  0.00    +0.011 A 
ATOM     76  C   UNL     1     -20.552  -0.463  -7.303  0.00  0.00    +0.046 A 
ATOM     77  C   UNL     1     -20.596  -1.716  -7.894  0.00  0.00    +0.117 A 
ATOM     78  C   UNL     1     -19.480  -2.543  -7.828  0.00  0.00    +0.046 A 
BRANCH  77  79
ATOM     79  O   UNL     1     -21.744  -2.083  -8.534  0.00  0.00    -0.507 OA
ATOM     80  H   UNL     1     -21.605  -2.917  -9.011  0.00  0.00    +0.292 HD
ENDBRANCH  77  79
ENDBRANCH  71  74
ENDBRANCH  69  72
ENDBRANCH  68  69
ENDBRANCH  67  68
ENDBRANCH  55  67
ENDBRANCH  54  57
ENDBRANCH   1  54
TORSDOF 28
