REMARK  Name = 
REMARK  23 active torsions:
REMARK  status: ('A' for Active; 'I' for Inactive)
REMARK    1  A    between atoms: C_1  and  C_2
REMARK    2  A    between atoms: C_4  and  O_53
REMARK    3  A    between atoms: C_6  and  O_52
REMARK    4  A    between atoms: C_8  and  O_51
REMARK    5  A    between atoms: C_10  and  O_13
REMARK    6  A    between atoms: O_13  and  C_14
REMARK    7  A    between atoms: C_14  and  C_15
REMARK    8  A    between atoms: C_17  and  O_50
REMARK    9  A    between atoms: C_19  and  O_49
REMARK   10  A    between atoms: C_21  and  O_48
REMARK   11  A    between atoms: C_23  and  O_26
REMARK   12  A    between atoms: O_26  and  C_27
REMARK   13  A    between atoms: C_28  and  C_40
REMARK   14  A    between atoms: C_32  and  O_39
REMARK   15  A    between atoms: C_34  and  O_38
REMARK   16  A    between atoms: C_42  and  O_47
REMARK   17  A    between atoms: C_43  and  O_46
REMARK   18  A    between atoms: O_53  and  C_54
REMARK   19  A    between atoms: C_56  and  O_69
REMARK   20  A    between atoms: C_58  and  O_68
REMARK   21  A    between atoms: C_60  and  O_67
REMARK   22  A    between atoms: C_62  and  C_65
REMARK   23  A    between atoms: C_65  and  O_66
REMARK                            x       y       z     vdW  Elec       q    Type
REMARK                         _______ _______ _______ _____ _____    ______ ____
ROOT
ATOM      1  C   UNL     1       3.144   4.425  -4.466  0.00  0.00    +0.179 C 
ATOM      2  O   UNL     1       3.674   5.651  -3.932  0.00  0.00    -0.331 OA
ATOM      3  C   UNL     1       2.713   6.300  -3.097  0.00  0.00    +0.340 C 
ATOM      4  C   UNL     1       1.618   6.867  -4.033  0.00  0.00    +0.214 C 
ATOM      5  C   UNL     1       1.010   5.637  -4.780  0.00  0.00    +0.180 C 
ATOM      6  C   UNL     1       2.080   4.791  -5.499  0.00  0.00    +0.177 C 
ENDROOT
BRANCH   4   7
ATOM      7  O   UNL     1       0.611   7.549  -3.267  0.00  0.00    -0.383 OA
ATOM      8  H   UNL     1      -0.166   6.966  -3.210  0.00  0.00    +0.210 HD
ENDBRANCH   4   7
BRANCH   6   9
ATOM      9  O   UNL     1       1.445   3.627  -6.047  0.00  0.00    -0.386 OA
ATOM     10  H   UNL     1       2.097   3.221  -6.649  0.00  0.00    +0.210 HD
ENDBRANCH   6   9
BRANCH   5  11
ATOM     11  O   UNL     1      -0.010   6.012  -5.711  0.00  0.00    -0.386 OA
ATOM     12  H   UNL     1      -0.205   5.190  -6.208  0.00  0.00    +0.210 HD
ENDBRANCH   5  11
BRANCH   3  13
ATOM     13  O   UNL     1       3.374   7.236  -2.208  0.00  0.00    -0.453 OA
BRANCH  13  14
ATOM     14  C   UNL     1       3.840   6.642  -1.015  0.00  0.00    +0.214 A 
ATOM     15  C   UNL     1       3.910   5.138  -0.882  0.00  0.00    +0.238 A 
ATOM     16  O   UNL     1       4.054   4.373  -1.825  0.00  0.00    -0.283 OA
ATOM     17  C   UNL     1       3.912   4.543   0.435  0.00  0.00    +0.109 A 
ATOM     18  C   UNL     1       4.357   5.346   1.458  0.00  0.00    +0.147 A 
ATOM     19  C   UNL     1       4.555   4.795   2.722  0.00  0.00    +0.092 A 
ATOM     20  C   UNL     1       4.296   3.438   2.920  0.00  0.00    +0.124 A 
ATOM     21  C   UNL     1       3.834   2.624   1.891  0.00  0.00    +0.091 A 
ATOM     22  O   UNL     1       4.678   6.660   1.260  0.00  0.00    -0.451 OA
ATOM     23  C   UNL     1       3.622   3.183   0.644  0.00  0.00    +0.135 A 
ATOM     24  C   UNL     1       4.353   7.316   0.054  0.00  0.00    +0.181 A 
BRANCH  24  25
ATOM     25  C   UNL     1       4.776   8.769   0.134  0.00  0.00    +0.025 A 
ATOM     26  C   UNL     1       5.490   9.201   1.290  0.00  0.00    +0.015 A 
ATOM     27  C   UNL     1       6.139  10.440   1.365  0.00  0.00    +0.050 A 
ATOM     28  C   UNL     1       6.058  11.297   0.292  0.00  0.00    +0.158 A 
ATOM     29  C   UNL     1       5.271  10.964  -0.806  0.00  0.00    +0.159 A 
ATOM     30  C   UNL     1       4.640   9.712  -0.898  0.00  0.00    +0.060 A 
BRANCH  29  31
ATOM     31  O   UNL     1       5.157  11.907  -1.791  0.00  0.00    -0.503 OA
ATOM     32  H   UNL     1       4.323  11.734  -2.263  0.00  0.00    +0.292 HD
ENDBRANCH  29  31
BRANCH  28  33
ATOM     33  O   UNL     1       6.768  12.463   0.314  0.00  0.00    -0.503 OA
ATOM     34  H   UNL     1       6.669  12.830  -0.587  0.00  0.00    +0.292 HD
ENDBRANCH  28  33
ENDBRANCH  24  25
BRANCH  23  35
ATOM     35  O   UNL     1       3.118   2.402  -0.358  0.00  0.00    -0.506 OA
ATOM     36  H   UNL     1       3.224   1.465  -0.128  0.00  0.00    +0.292 HD
ENDBRANCH  23  35
BRANCH  20  37
ATOM     37  O   UNL     1       4.512   2.832   4.123  0.00  0.00    -0.507 OA
ATOM     38  H   UNL     1       4.844   3.474   4.770  0.00  0.00    +0.292 HD
ENDBRANCH  20  37
ENDBRANCH  13  14
ENDBRANCH   3  13
BRANCH   1  39
ATOM     39  C   UNL     1       4.291   3.576  -5.005  0.00  0.00    +0.197 C 
BRANCH  39  40
ATOM     40  O   UNL     1       4.857   4.242  -6.122  0.00  0.00    -0.346 OA
BRANCH  40  44
ATOM     41  C   UNL     1       8.099   1.326  -6.578  0.00  0.00    +0.041 C 
ATOM     42  C   UNL     1       8.206   2.796  -6.179  0.00  0.00    +0.150 C 
ATOM     43  O   UNL     1       6.969   3.315  -5.699  0.00  0.00    -0.343 OA
ATOM     44  C   UNL     1       5.971   3.551  -6.684  0.00  0.00    +0.282 C 
ATOM     45  C   UNL     1       6.451   4.435  -7.851  0.00  0.00    +0.201 C 
ATOM     46  C   UNL     1       7.799   3.962  -8.398  0.00  0.00    +0.179 C 
ATOM     47  C   UNL     1       8.802   3.714  -7.263  0.00  0.00    +0.181 C 
BRANCH  46  48
ATOM     48  O   UNL     1       7.653   2.812  -9.240  0.00  0.00    -0.386 OA
ATOM     49  H   UNL     1       6.840   2.333  -8.999  0.00  0.00    +0.210 HD
ENDBRANCH  46  48
BRANCH  45  50
ATOM     50  O   UNL     1       5.466   4.419  -8.905  0.00  0.00    -0.384 OA
ATOM     51  H   UNL     1       5.920   4.215  -9.742  0.00  0.00    +0.210 HD
ENDBRANCH  45  50
BRANCH  47  52
ATOM     52  O   UNL     1       9.136   5.029  -6.769  0.00  0.00    -0.340 OA
BRANCH  52  53
ATOM     53  C   UNL     1      10.075   5.117  -5.704  0.00  0.00    +0.282 C 
ATOM     54  O   UNL     1      10.194   6.473  -5.238  0.00  0.00    -0.341 OA
ATOM     55  C   UNL     1      10.722   7.426  -6.172  0.00  0.00    +0.178 C 
ATOM     56  C   UNL     1      12.054   6.958  -6.792  0.00  0.00    +0.177 C 
ATOM     57  C   UNL     1      12.046   5.483  -7.213  0.00  0.00    +0.179 C 
ATOM     58  C   UNL     1      11.472   4.598  -6.099  0.00  0.00    +0.201 C 
BRANCH  58  59
ATOM     59  O   UNL     1      12.352   4.584  -4.968  0.00  0.00    -0.384 OA
ATOM     60  H   UNL     1      12.126   5.347  -4.401  0.00  0.00    +0.210 HD
ENDBRANCH  58  59
BRANCH  57  61
ATOM     61  O   UNL     1      11.340   5.358  -8.453  0.00  0.00    -0.386 OA
ATOM     62  H   UNL     1      10.378   5.428  -8.275  0.00  0.00    +0.210 HD
ENDBRANCH  57  61
BRANCH  56  63
ATOM     63  O   UNL     1      12.437   7.780  -7.896  0.00  0.00    -0.386 OA
ATOM     64  H   UNL     1      12.199   7.282  -8.706  0.00  0.00    +0.210 HD
ENDBRANCH  56  63
BRANCH  55  65
ATOM     65  C   UNL     1       9.675   7.931  -7.187  0.00  0.00    +0.190 C 
BRANCH  65  66
ATOM     66  O   UNL     1       8.478   8.376  -6.552  0.00  0.00    -0.392 OA
ATOM     67  H   UNL     1       8.718   8.807  -5.714  0.00  0.00    +0.210 HD
ENDBRANCH  65  66
ENDBRANCH  55  65
ENDBRANCH  52  53
ENDBRANCH  47  52
ENDBRANCH  40  44
ENDBRANCH  39  40
ENDBRANCH   1  39
TORSDOF 22
