REMARK  Name = 
REMARK  12 active torsions:
REMARK  status: ('A' for Active; 'I' for Inactive)
REMARK    1  A    between atoms: C_3  and  O_38
REMARK    2  A    between atoms: C_4  and  O_37
REMARK    3  A    between atoms: C_6  and  C_7
REMARK    4  A    between atoms: C_8  and  O_20
REMARK    5  A    between atoms: C_12  and  O_19
REMARK    6  A    between atoms: C_14  and  O_18
REMARK    7  A    between atoms: O_20  and  C_21
REMARK    8  A    between atoms: C_22  and  O_36
REMARK    9  A    between atoms: C_24  and  O_35
REMARK   10  A    between atoms: C_26  and  O_34
REMARK   11  A    between atoms: C_28  and  C_31
REMARK   12  A    between atoms: C_31  and  O_33
REMARK                            x       y       z     vdW  Elec       q    Type
REMARK                         _______ _______ _______ _____ _____    ______ ____
ROOT
ATOM      1  C   UNL     1      -1.415  -2.684   0.744  0.00  0.00    +0.181 A 
ATOM      2  O   UNL     1      -0.655  -3.833   0.908  0.00  0.00    -0.451 OA
ATOM      3  C   UNL     1      -1.188  -5.025   0.474  0.00  0.00    +0.147 A 
ATOM      4  C   UNL     1      -2.522  -5.153   0.090  0.00  0.00    +0.109 A 
ATOM      5  C   UNL     1      -3.030  -6.381  -0.346  0.00  0.00    +0.135 A 
ATOM      6  C   UNL     1      -2.204  -7.497  -0.402  0.00  0.00    +0.091 A 
ATOM      7  C   UNL     1      -0.875  -7.367  -0.013  0.00  0.00    +0.124 A 
ATOM      8  C   UNL     1      -3.374  -3.964   0.160  0.00  0.00    +0.238 A 
ATOM      9  O   UNL     1      -4.591  -4.091   0.059  0.00  0.00    -0.283 OA
ATOM     10  C   UNL     1      -0.358  -6.143   0.420  0.00  0.00    +0.092 A 
ATOM     11  C   UNL     1      -2.702  -2.654   0.338  0.00  0.00    +0.214 A 
ENDROOT
BRANCH   1  13
ATOM     12  C   UNL     1      -0.980  -0.574   2.047  0.00  0.00    +0.015 A 
ATOM     13  C   UNL     1      -0.683  -1.418   0.958  0.00  0.00    +0.025 A 
ATOM     14  C   UNL     1       0.192  -0.962  -0.032  0.00  0.00    +0.060 A 
ATOM     15  C   UNL     1       0.643   0.351   0.006  0.00  0.00    +0.159 A 
ATOM     16  C   UNL     1       0.264   1.213   1.031  0.00  0.00    +0.158 A 
ATOM     17  C   UNL     1      -0.519   0.746   2.083  0.00  0.00    +0.050 A 
BRANCH  15  18
ATOM     18  O   UNL     1       1.423   0.815  -1.018  0.00  0.00    -0.503 OA
ATOM     19  H   UNL     1       1.576   1.755  -0.808  0.00  0.00    +0.292 HD
ENDBRANCH  15  18
BRANCH  16  20
ATOM     20  O   UNL     1       0.647   2.522   0.937  0.00  0.00    -0.503 OA
ATOM     21  H   UNL     1       0.110   3.042   1.563  0.00  0.00    +0.292 HD
ENDBRANCH  16  20
ENDBRANCH   1  13
BRANCH   5  22
ATOM     22  O   UNL     1      -4.326  -6.559  -0.746  0.00  0.00    -0.506 OA
ATOM     23  H   UNL     1      -4.815  -5.720  -0.600  0.00  0.00    +0.292 HD
ENDBRANCH   5  22
BRANCH   7  24
ATOM     24  O   UNL     1      -0.034  -8.440  -0.043  0.00  0.00    -0.507 OA
ATOM     25  H   UNL     1      -0.538  -9.227  -0.311  0.00  0.00    +0.292 HD
ENDBRANCH   7  24
BRANCH  11  26
ATOM     26  O   UNL     1      -3.342  -1.461   0.060  0.00  0.00    -0.453 OA
BRANCH  26  27
ATOM     27  C   UNL     1      -4.767  -1.360   0.185  0.00  0.00    +0.340 C 
ATOM     28  O   UNL     1      -5.075  -0.089  -0.409  0.00  0.00    -0.322 OA
ATOM     29  C   UNL     1      -6.199   0.648   0.121  0.00  0.00    +0.261 C 
ATOM     30  C   UNL     1      -6.162   0.843   1.650  0.00  0.00    +0.185 C 
ATOM     31  C   UNL     1      -5.053  -0.012   2.273  0.00  0.00    +0.180 C 
ATOM     32  C   UNL     1      -5.151  -1.429   1.678  0.00  0.00    +0.214 C 
BRANCH  29  33
ATOM     33  C   UNL     1      -6.070   2.017  -0.554  0.00  0.00    +0.337 C 
ATOM     34  O   UNL     1      -6.779   2.986  -0.334  0.00  0.00    -0.248 OA
BRANCH  33  35
ATOM     35  O   UNL     1      -5.047   2.058  -1.453  0.00  0.00    -0.479 OA
ATOM     36  H   UNL     1      -4.619   1.171  -1.478  0.00  0.00    +0.295 HD
ENDBRANCH  33  35
ENDBRANCH  29  33
BRANCH  30  37
ATOM     37  O   UNL     1      -7.438   0.474   2.214  0.00  0.00    -0.386 OA
ATOM     38  H   UNL     1      -7.430  -0.497   2.350  0.00  0.00    +0.210 HD
ENDBRANCH  30  37
BRANCH  31  39
ATOM     39  O   UNL     1      -3.774   0.591   2.073  0.00  0.00    -0.386 OA
ATOM     40  H   UNL     1      -3.504   0.503   1.138  0.00  0.00    +0.210 HD
ENDBRANCH  31  39
BRANCH  32  41
ATOM     41  O   UNL     1      -6.496  -1.917   1.840  0.00  0.00    -0.383 OA
ATOM     42  H   UNL     1      -6.605  -2.699   1.263  0.00  0.00    +0.210 HD
ENDBRANCH  32  41
ENDBRANCH  26  27
ENDBRANCH  11  26
TORSDOF 12
