REMARK  Name = 
REMARK  23 active torsions:
REMARK  status: ('A' for Active; 'I' for Inactive)
REMARK    1  A    between atoms: C_1  and  C_2
REMARK    2  A    between atoms: C_3  and  O_11
REMARK    3  A    between atoms: C_4  and  O_10
REMARK    4  A    between atoms: C_5  and  O_9
REMARK    5  A    between atoms: C_6  and  O_8
REMARK    6  A    between atoms: O_11  and  C_12
REMARK    7  A    between atoms: C_13  and  O_54
REMARK    8  A    between atoms: C_14  and  O_53
REMARK    9  A    between atoms: C_15  and  C_51
REMARK   10  A    between atoms: C_17  and  O_18
REMARK   11  A    between atoms: O_18  and  C_19
REMARK   12  A    between atoms: C_20  and  C_43
REMARK   13  A    between atoms: C_24  and  O_31
REMARK   14  A    between atoms: C_26  and  O_30
REMARK   15  A    between atoms: O_31  and  C_32
REMARK   16  A    between atoms: C_33  and  O_42
REMARK   17  A    between atoms: C_34  and  O_41
REMARK   18  A    between atoms: C_35  and  O_40
REMARK   19  A    between atoms: C_36  and  C_38
REMARK   20  A    between atoms: C_38  and  O_39
REMARK   21  A    between atoms: C_45  and  O_50
REMARK   22  A    between atoms: C_46  and  O_49
REMARK   23  A    between atoms: C_51  and  O_52
REMARK                            x       y       z     vdW  Elec       q    Type
REMARK                         _______ _______ _______ _____ _____    ______ ____
ROOT
ATOM      1  C   UNL     1       3.119  -0.422   4.483  0.00  0.00    +0.214 A 
ATOM      2  C   UNL     1       2.964  -1.708   5.206  0.00  0.00    +0.238 A 
ATOM      3  O   UNL     1       3.855  -2.548   5.202  0.00  0.00    -0.283 OA
ATOM      4  C   UNL     1       1.791  -1.853   6.061  0.00  0.00    +0.109 A 
ATOM      5  C   UNL     1       1.369  -0.691   6.674  0.00  0.00    +0.147 A 
ATOM      6  C   UNL     1       0.547  -0.772   7.797  0.00  0.00    +0.093 A 
ATOM      7  C   UNL     1       0.076  -2.012   8.242  0.00  0.00    +0.131 A 
ATOM      8  C   UNL     1       0.355  -3.162   7.491  0.00  0.00    +0.092 A 
ATOM      9  O   UNL     1       1.749   0.547   6.225  0.00  0.00    -0.451 OA
ATOM     10  C   UNL     1       1.233  -3.082   6.412  0.00  0.00    +0.135 A 
ATOM     11  C   UNL     1       2.482   0.643   5.031  0.00  0.00    +0.181 A 
ENDROOT
BRANCH  11  12
ATOM     12  C   UNL     1       2.517   2.031   4.500  0.00  0.00    +0.025 A 
ATOM     13  C   UNL     1       2.481   2.307   3.125  0.00  0.00    +0.015 A 
ATOM     14  C   UNL     1       2.521   3.622   2.631  0.00  0.00    +0.050 A 
ATOM     15  C   UNL     1       2.550   4.678   3.530  0.00  0.00    +0.158 A 
ATOM     16  C   UNL     1       2.534   4.438   4.897  0.00  0.00    +0.159 A 
ATOM     17  C   UNL     1       2.529   3.128   5.386  0.00  0.00    +0.060 A 
BRANCH  16  18
ATOM     18  O   UNL     1       2.524   5.518   5.733  0.00  0.00    -0.503 OA
ATOM     19  H   UNL     1       2.474   5.202   6.651  0.00  0.00    +0.292 HD
ENDBRANCH  16  18
BRANCH  15  20
ATOM     20  O   UNL     1       2.576   5.960   3.060  0.00  0.00    -0.503 OA
ATOM     21  H   UNL     1       2.603   6.512   3.859  0.00  0.00    +0.292 HD
ENDBRANCH  15  20
ENDBRANCH  11  12
BRANCH  10  22
ATOM     22  O   UNL     1       1.525  -4.183   5.668  0.00  0.00    -0.506 OA
ATOM     23  H   UNL     1       1.276  -5.003   6.125  0.00  0.00    +0.292 HD
ENDBRANCH  10  22
BRANCH   7  24
ATOM     24  O   UNL     1      -0.682  -2.212   9.371  0.00  0.00    -0.461 OA
BRANCH  24  25
ATOM     25  C   UNL     1      -0.553  -1.219  10.407  0.00  0.00    +0.339 C 
ATOM     26  O   UNL     1       0.766  -1.156  10.961  0.00  0.00    -0.331 OA
ATOM     27  C   UNL     1       1.161  -2.368  11.633  0.00  0.00    +0.179 C 
ATOM     28  C   UNL     1       0.235  -2.610  12.829  0.00  0.00    +0.177 C 
ATOM     29  C   UNL     1      -1.229  -2.688  12.366  0.00  0.00    +0.180 C 
ATOM     30  C   UNL     1      -1.605  -1.461  11.516  0.00  0.00    +0.214 C 
BRANCH  30  31
ATOM     31  O   UNL     1      -2.931  -1.580  10.982  0.00  0.00    -0.383 OA
ATOM     32  H   UNL     1      -2.880  -1.612  10.011  0.00  0.00    +0.210 HD
ENDBRANCH  30  31
BRANCH  29  33
ATOM     33  O   UNL     1      -2.077  -2.793  13.521  0.00  0.00    -0.386 OA
ATOM     34  H   UNL     1      -1.564  -2.470  14.288  0.00  0.00    +0.210 HD
ENDBRANCH  29  33
BRANCH  28  35
ATOM     35  O   UNL     1       0.351  -1.555  13.801  0.00  0.00    -0.386 OA
ATOM     36  H   UNL     1       0.421  -0.706  13.324  0.00  0.00    +0.210 HD
ENDBRANCH  28  35
BRANCH  27  37
ATOM     37  C   UNL     1       2.625  -2.225  12.077  0.00  0.00    +0.190 C 
BRANCH  37  38
ATOM     38  O   UNL     1       3.498  -2.117  10.952  0.00  0.00    -0.392 OA
ATOM     39  H   UNL     1       3.327  -2.864  10.355  0.00  0.00    +0.210 HD
ENDBRANCH  37  38
ENDBRANCH  27  37
ENDBRANCH  24  25
ENDBRANCH   7  24
BRANCH   1  40
ATOM     40  O   UNL     1       4.024  -0.345   3.434  0.00  0.00    -0.453 OA
BRANCH  40  42
ATOM     41  C   UNL     1       5.025  -2.455   2.453  0.00  0.00    +0.218 C 
ATOM     42  C   UNL     1       3.896  -1.368   2.422  0.00  0.00    +0.340 C 
ATOM     43  O   UNL     1       3.839  -0.738   1.127  0.00  0.00    -0.331 OA
ATOM     44  C   UNL     1       5.045  -0.092   0.689  0.00  0.00    +0.179 C 
ATOM     45  C   UNL     1       6.251  -1.043   0.707  0.00  0.00    +0.177 C 
ATOM     46  C   UNL     1       6.349  -1.790   2.040  0.00  0.00    +0.180 C 
BRANCH  46  47
ATOM     47  O   UNL     1       7.407  -2.760   1.939  0.00  0.00    -0.386 OA
ATOM     48  H   UNL     1       7.032  -3.510   1.433  0.00  0.00    +0.210 HD
ENDBRANCH  46  47
BRANCH  45  49
ATOM     49  O   UNL     1       7.465  -0.311   0.466  0.00  0.00    -0.386 OA
ATOM     50  H   UNL     1       8.156  -0.712   1.030  0.00  0.00    +0.210 HD
ENDBRANCH  45  49
BRANCH  41  51
ATOM     51  O   UNL     1       4.805  -3.617   1.591  0.00  0.00    -0.359 OA
BRANCH  51  58
ATOM     52  C   UNL     1       4.786  -5.897   3.624  0.00  0.00    +0.041 C 
ATOM     53  C   UNL     1       3.558  -5.069   3.246  0.00  0.00    +0.150 C 
ATOM     54  O   UNL     1       2.340  -5.801   3.444  0.00  0.00    -0.343 OA
ATOM     55  C   UNL     1       2.077  -6.817   2.491  0.00  0.00    +0.279 C 
ATOM     56  C   UNL     1       2.048  -6.215   1.079  0.00  0.00    +0.201 C 
ATOM     57  C   UNL     1       3.365  -5.471   0.785  0.00  0.00    +0.179 C 
ATOM     58  C   UNL     1       3.609  -4.384   1.860  0.00  0.00    +0.179 C 
BRANCH  57  59
ATOM     59  O   UNL     1       3.289  -4.882  -0.518  0.00  0.00    -0.386 OA
ATOM     60  H   UNL     1       2.399  -4.487  -0.598  0.00  0.00    +0.210 HD
ENDBRANCH  57  59
BRANCH  56  61
ATOM     61  O   UNL     1       0.942  -5.278   0.985  0.00  0.00    -0.384 OA
ATOM     62  H   UNL     1       0.879  -4.816   1.845  0.00  0.00    +0.210 HD
ENDBRANCH  56  61
BRANCH  55  63
ATOM     63  O   UNL     1       0.810  -7.374   2.820  0.00  0.00    -0.365 OA
ATOM     64  H   UNL     1       0.142  -6.772   2.448  0.00  0.00    +0.213 HD
ENDBRANCH  55  63
ENDBRANCH  51  58
ENDBRANCH  41  51
BRANCH  44  65
ATOM     65  C   UNL     1       5.325   1.242   1.417  0.00  0.00    +0.190 C 
BRANCH  65  66
ATOM     66  O   UNL     1       6.327   2.027   0.778  0.00  0.00    -0.392 OA
ATOM     67  H   UNL     1       7.044   1.408   0.521  0.00  0.00    +0.210 HD
ENDBRANCH  65  66
ENDBRANCH  44  65
ENDBRANCH  40  42
ENDBRANCH   1  40
TORSDOF 22
