REMARK  Name = 
REMARK  16 active torsions:
REMARK  status: ('A' for Active; 'I' for Inactive)
REMARK    1  A    between atoms: C_1  and  C_2
REMARK    2  A    between atoms: C_2  and  O_4
REMARK    3  A    between atoms: O_4  and  C_5
REMARK    4  A    between atoms: C_6  and  O_43
REMARK    5  A    between atoms: C_7  and  O_42
REMARK    6  A    between atoms: C_10  and  O_11
REMARK    7  A    between atoms: O_11  and  C_12
REMARK    8  A    between atoms: C_13  and  O_41
REMARK    9  A    between atoms: C_14  and  O_40
REMARK   10  A    between atoms: C_17  and  O_18
REMARK   11  A    between atoms: O_18  and  C_19
REMARK   12  A    between atoms: C_20  and  C_32
REMARK   13  A    between atoms: C_24  and  O_31
REMARK   14  A    between atoms: C_26  and  O_30
REMARK   15  A    between atoms: C_34  and  O_39
REMARK   16  A    between atoms: C_35  and  O_38
REMARK                            x       y       z     vdW  Elec       q    Type
REMARK                         _______ _______ _______ _____ _____    ______ ____
ROOT
ATOM      1  O   UNL     1       7.767   1.820   2.095  0.00  0.00    -0.453 OA
ENDROOT
BRANCH   1   2
ATOM      2  C   UNL     1       6.677   2.172   2.890  0.00  0.00    +0.214 A 
ATOM      3  C   UNL     1       5.286   1.778   2.531  0.00  0.00    +0.238 A 
ATOM      4  O   UNL     1       5.051   0.967   1.648  0.00  0.00    -0.283 OA
ATOM      5  C   UNL     1       4.184   2.287   3.329  0.00  0.00    +0.109 A 
ATOM      6  C   UNL     1       4.500   2.798   4.578  0.00  0.00    +0.147 A 
ATOM      7  C   UNL     1       3.473   3.052   5.485  0.00  0.00    +0.092 A 
ATOM      8  C   UNL     1       2.150   2.832   5.099  0.00  0.00    +0.124 A 
ATOM      9  C   UNL     1       1.825   2.403   3.816  0.00  0.00    +0.091 A 
ATOM     10  O   UNL     1       5.791   3.053   4.970  0.00  0.00    -0.451 OA
ATOM     11  C   UNL     1       2.848   2.135   2.923  0.00  0.00    +0.135 A 
ATOM     12  C   UNL     1       6.836   2.803   4.079  0.00  0.00    +0.181 A 
BRANCH  12  13
ATOM     13  C   UNL     1       8.169   3.221   4.595  0.00  0.00    +0.025 A 
ATOM     14  C   UNL     1       8.458   3.073   5.966  0.00  0.00    +0.015 A 
ATOM     15  C   UNL     1       9.712   3.424   6.486  0.00  0.00    +0.050 A 
ATOM     16  C   UNL     1      10.678   3.920   5.631  0.00  0.00    +0.158 A 
ATOM     17  C   UNL     1      10.414   4.095   4.282  0.00  0.00    +0.159 A 
ATOM     18  C   UNL     1       9.164   3.770   3.760  0.00  0.00    +0.060 A 
BRANCH  16  19
ATOM     19  O   UNL     1      11.910   4.232   6.135  0.00  0.00    -0.503 OA
ATOM     20  H   UNL     1      12.430   4.529   5.357  0.00  0.00    +0.292 HD
ENDBRANCH  16  19
BRANCH  17  21
ATOM     21  O   UNL     1      11.424   4.582   3.493  0.00  0.00    -0.503 OA
ATOM     22  H   UNL     1      11.110   4.611   2.573  0.00  0.00    +0.292 HD
ENDBRANCH  17  21
ENDBRANCH  12  13
BRANCH   8  23
ATOM     23  O   UNL     1       1.110   3.031   5.958  0.00  0.00    -0.507 OA
ATOM     24  H   UNL     1       1.461   3.286   6.827  0.00  0.00    +0.292 HD
ENDBRANCH   8  23
BRANCH  11  25
ATOM     25  O   UNL     1       2.539   1.744   1.651  0.00  0.00    -0.506 OA
ATOM     26  H   UNL     1       1.590   1.555   1.578  0.00  0.00    +0.292 HD
ENDBRANCH  11  25
ENDBRANCH   1   2
BRANCH   1  28
ATOM     27  C   UNL     1       7.275   0.094   0.383  0.00  0.00    +0.221 C 
ATOM     28  C   UNL     1       7.486   1.610   0.702  0.00  0.00    +0.340 C 
ATOM     29  O   UNL     1       8.542   2.174  -0.108  0.00  0.00    -0.337 OA
ATOM     30  C   UNL     1       9.788   1.498  -0.049  0.00  0.00    +0.198 C 
ATOM     31  C   UNL     1       9.694  -0.003  -0.302  0.00  0.00    +0.171 C 
ATOM     32  C   UNL     1       8.626  -0.604   0.611  0.00  0.00    +0.180 C 
BRANCH  31  33
ATOM     33  O   UNL     1      10.979  -0.591  -0.080  0.00  0.00    -0.387 OA
ATOM     34  H   UNL     1      10.966  -1.020   0.795  0.00  0.00    +0.210 HD
ENDBRANCH  31  33
BRANCH  32  35
ATOM     35  O   UNL     1       8.523  -2.016   0.397  0.00  0.00    -0.386 OA
ATOM     36  H   UNL     1       8.125  -2.135  -0.485  0.00  0.00    +0.210 HD
ENDBRANCH  32  35
BRANCH  27  37
ATOM     37  O   UNL     1       6.821  -0.193  -0.968  0.00  0.00    -0.336 OA
BRANCH  37  39
ATOM     38  C   UNL     1       4.974  -0.286  -2.599  0.00  0.00    +0.263 C 
ATOM     39  C   UNL     1       5.500   0.304  -1.268  0.00  0.00    +0.294 C 
ATOM     40  O   UNL     1       5.495   1.733  -1.386  0.00  0.00    -0.345 OA
ATOM     41  C   UNL     1       6.382   2.215  -2.391  0.00  0.00    +0.197 C 
ATOM     42  C   UNL     1       6.036   1.686  -3.773  0.00  0.00    +0.172 C 
ATOM     43  C   UNL     1       5.918   0.151  -3.727  0.00  0.00    +0.191 C 
BRANCH  42  44
ATOM     44  O   UNL     1       7.033   2.098  -4.710  0.00  0.00    -0.387 OA
ATOM     45  H   UNL     1       7.831   1.562  -4.555  0.00  0.00    +0.210 HD
ENDBRANCH  42  44
BRANCH  43  46
ATOM     46  O   UNL     1       5.470  -0.357  -4.989  0.00  0.00    -0.385 OA
ATOM     47  H   UNL     1       4.745   0.217  -5.293  0.00  0.00    +0.210 HD
ENDBRANCH  43  46
BRANCH  38  48
ATOM     48  O   UNL     1       3.662   0.275  -2.900  0.00  0.00    -0.454 OA
BRANCH  48  50
ATOM     49  C   UNL     1       1.380   0.184  -3.412  0.00  0.00    +0.136 C 
ATOM     50  C   UNL     1       2.607  -0.572  -2.986  0.00  0.00    +0.304 C 
ATOM     51  O   UNL     1       2.639  -1.777  -2.790  0.00  0.00    -0.251 OA
ENDBRANCH  48  50
ENDBRANCH  38  48
ENDBRANCH  37  39
ENDBRANCH  27  37
ENDBRANCH   1  28
TORSDOF 15
