REMARK  Name = 
REMARK  16 active torsions:
REMARK  status: ('A' for Active; 'I' for Inactive)
REMARK    1  A    between atoms: C_2  and  O_42
REMARK    2  A    between atoms: C_3  and  O_41
REMARK    3  A    between atoms: C_4  and  O_40
REMARK    4  A    between atoms: C_6  and  O_7
REMARK    5  A    between atoms: O_7  and  C_8
REMARK    6  A    between atoms: C_9  and  C_32
REMARK    7  A    between atoms: C_13  and  O_20
REMARK    8  A    between atoms: C_15  and  O_19
REMARK    9  A    between atoms: O_20  and  C_21
REMARK   10  A    between atoms: C_22  and  O_31
REMARK   11  A    between atoms: C_23  and  O_30
REMARK   12  A    between atoms: C_24  and  O_29
REMARK   13  A    between atoms: C_25  and  C_27
REMARK   14  A    between atoms: C_27  and  O_28
REMARK   15  A    between atoms: C_34  and  O_39
REMARK   16  A    between atoms: C_35  and  O_38
REMARK                            x       y       z     vdW  Elec       q    Type
REMARK                         _______ _______ _______ _____ _____    ______ ____
ROOT
ATOM      1  C   UNL     1       1.926   0.972   2.323  0.00  0.00    +0.214 A 
ATOM      2  C   UNL     1       1.342   2.338   2.161  0.00  0.00    +0.238 A 
ATOM      3  O   UNL     1       0.260   2.496   1.609  0.00  0.00    -0.283 OA
ATOM      4  C   UNL     1       2.071   3.462   2.765  0.00  0.00    +0.109 A 
ATOM      5  C   UNL     1       3.033   3.169   3.722  0.00  0.00    +0.147 A 
ATOM      6  C   UNL     1       3.624   4.193   4.476  0.00  0.00    +0.093 A 
ATOM      7  C   UNL     1       3.286   5.525   4.227  0.00  0.00    +0.131 A 
ATOM      8  C   UNL     1       2.363   5.825   3.218  0.00  0.00    +0.092 A 
ATOM      9  O   UNL     1       3.450   1.888   3.971  0.00  0.00    -0.451 OA
ATOM     10  C   UNL     1       1.767   4.798   2.485  0.00  0.00    +0.135 A 
ATOM     11  C   UNL     1       2.938   0.836   3.211  0.00  0.00    +0.181 A 
ENDROOT
BRANCH  11  12
ATOM     12  C   UNL     1       3.550  -0.470   3.584  0.00  0.00    +0.025 A 
ATOM     13  C   UNL     1       3.948  -0.701   4.918  0.00  0.00    +0.015 A 
ATOM     14  C   UNL     1       4.413  -1.954   5.335  0.00  0.00    +0.050 A 
ATOM     15  C   UNL     1       4.469  -2.993   4.422  0.00  0.00    +0.158 A 
ATOM     16  C   UNL     1       4.143  -2.772   3.091  0.00  0.00    +0.159 A 
ATOM     17  C   UNL     1       3.745  -1.506   2.660  0.00  0.00    +0.060 A 
BRANCH  16  18
ATOM     18  O   UNL     1       4.171  -3.839   2.234  0.00  0.00    -0.503 OA
ATOM     19  H   UNL     1       3.621  -3.605   1.460  0.00  0.00    +0.292 HD
ENDBRANCH  16  18
BRANCH  15  20
ATOM     20  O   UNL     1       4.814  -4.240   4.851  0.00  0.00    -0.503 OA
ATOM     21  H   UNL     1       4.718  -4.811   4.062  0.00  0.00    +0.292 HD
ENDBRANCH  15  20
ENDBRANCH  11  12
BRANCH  10  22
ATOM     22  O   UNL     1       0.916   5.112   1.463  0.00  0.00    -0.506 OA
ATOM     23  H   UNL     1       0.596   6.025   1.550  0.00  0.00    +0.292 HD
ENDBRANCH  10  22
BRANCH   7  24
ATOM     24  O   UNL     1       3.746   6.606   4.926  0.00  0.00    -0.461 OA
BRANCH  24  25
ATOM     25  C   UNL     1       5.047   6.528   5.531  0.00  0.00    +0.339 C 
ATOM     26  O   UNL     1       5.017   6.034   6.875  0.00  0.00    -0.331 OA
ATOM     27  C   UNL     1       4.261   6.849   7.795  0.00  0.00    +0.179 C 
ATOM     28  C   UNL     1       4.779   8.301   7.816  0.00  0.00    +0.177 C 
ATOM     29  C   UNL     1       4.849   8.874   6.393  0.00  0.00    +0.180 C 
ATOM     30  C   UNL     1       5.686   7.938   5.504  0.00  0.00    +0.214 C 
BRANCH  29  31
ATOM     31  O   UNL     1       5.410  10.191   6.440  0.00  0.00    -0.386 OA
ATOM     32  H   UNL     1       6.219  10.134   6.979  0.00  0.00    +0.210 HD
ENDBRANCH  29  31
BRANCH  30  33
ATOM     33  O   UNL     1       5.813   8.478   4.183  0.00  0.00    -0.383 OA
ATOM     34  H   UNL     1       5.561   7.802   3.533  0.00  0.00    +0.210 HD
ENDBRANCH  30  33
BRANCH  28  35
ATOM     35  O   UNL     1       6.093   8.390   8.401  0.00  0.00    -0.386 OA
ATOM     36  H   UNL     1       6.602   7.596   8.153  0.00  0.00    +0.210 HD
ENDBRANCH  28  35
BRANCH  27  37
ATOM     37  C   UNL     1       4.367   6.213   9.190  0.00  0.00    +0.190 C 
BRANCH  37  38
ATOM     38  O   UNL     1       3.861   4.877   9.200  0.00  0.00    -0.392 OA
ATOM     39  H   UNL     1       2.982   4.885   8.796  0.00  0.00    +0.210 HD
ENDBRANCH  37  38
ENDBRANCH  27  37
ENDBRANCH  24  25
ENDBRANCH   7  24
BRANCH   1  40
ATOM     40  O   UNL     1       1.321  -0.112   1.691  0.00  0.00    -0.456 OA
BRANCH  40  42
ATOM     41  C   UNL     1      -0.546   0.009   0.109  0.00  0.00    +0.109 C 
ATOM     42  C   UNL     1       0.969   0.084   0.308  0.00  0.00    +0.313 C 
ATOM     43  O   UNL     1       1.633  -0.906  -0.496  0.00  0.00    -0.310 OA
ATOM     44  C   UNL     1       1.184  -2.238  -0.301  0.00  0.00    +0.282 C 
ATOM     45  C   UNL     1      -0.335  -2.414  -0.434  0.00  0.00    +0.199 C 
ATOM     46  C   UNL     1      -1.074  -1.381   0.415  0.00  0.00    +0.154 C 
BRANCH  46  47
ATOM     47  O   UNL     1      -2.477  -1.406   0.128  0.00  0.00    -0.389 OA
ATOM     48  H   UNL     1      -2.672  -2.250  -0.320  0.00  0.00    +0.210 HD
ENDBRANCH  46  47
BRANCH  45  49
ATOM     49  O   UNL     1      -0.751  -3.728  -0.042  0.00  0.00    -0.384 OA
ATOM     50  H   UNL     1      -0.246  -3.952   0.766  0.00  0.00    +0.210 HD
ENDBRANCH  45  49
BRANCH  44  51
ATOM     51  O   UNL     1       1.650  -2.764   0.940  0.00  0.00    -0.365 OA
ATOM     52  H   UNL     1       1.328  -2.150   1.628  0.00  0.00    +0.213 HD
ENDBRANCH  44  51
ENDBRANCH  40  42
ENDBRANCH   1  40
TORSDOF 16
