REMARK  Name = 
REMARK  18 active torsions:
REMARK  status: ('A' for Active; 'I' for Inactive)
REMARK    1  A    between atoms: C_3  and  O_52
REMARK    2  A    between atoms: C_4  and  O_51
REMARK    3  A    between atoms: C_6  and  C_7
REMARK    4  A    between atoms: C_8  and  O_35
REMARK    5  A    between atoms: C_12  and  O_34
REMARK    6  A    between atoms: C_14  and  O_18
REMARK    7  A    between atoms: O_18  and  C_19
REMARK    8  A    between atoms: C_20  and  O_33
REMARK    9  A    between atoms: C_22  and  O_32
REMARK   10  A    between atoms: C_24  and  O_31
REMARK   11  A    between atoms: C_26  and  C_29
REMARK   12  A    between atoms: C_29  and  O_30
REMARK   13  A    between atoms: O_35  and  C_36
REMARK   14  A    between atoms: C_37  and  O_50
REMARK   15  A    between atoms: C_39  and  O_49
REMARK   16  A    between atoms: C_41  and  O_48
REMARK   17  A    between atoms: C_43  and  C_46
REMARK   18  A    between atoms: C_46  and  O_47
REMARK                            x       y       z     vdW  Elec       q    Type
REMARK                         _______ _______ _______ _____ _____    ______ ____
ROOT
ATOM      1  C   UNL     1      -1.332  -2.675   0.890  0.00  0.00    +0.181 A 
ATOM      2  O   UNL     1      -0.711  -3.933   0.972  0.00  0.00    -0.451 OA
ATOM      3  C   UNL     1      -1.310  -5.036   0.405  0.00  0.00    +0.147 A 
ATOM      4  C   UNL     1      -2.607  -4.975  -0.085  0.00  0.00    +0.109 A 
ATOM      5  C   UNL     1      -3.224  -6.130  -0.556  0.00  0.00    +0.135 A 
ATOM      6  C   UNL     1      -2.535  -7.338  -0.587  0.00  0.00    +0.092 A 
ATOM      7  C   UNL     1      -1.222  -7.435  -0.106  0.00  0.00    +0.131 A 
ATOM      8  C   UNL     1      -3.290  -3.680  -0.138  0.00  0.00    +0.238 A 
ATOM      9  O   UNL     1      -4.454  -3.620  -0.518  0.00  0.00    -0.283 OA
ATOM     10  C   UNL     1      -0.603  -6.261   0.369  0.00  0.00    +0.093 A 
ATOM     11  C   UNL     1      -2.512  -2.470   0.237  0.00  0.00    +0.214 A 
ENDROOT
BRANCH   1  13
ATOM     12  C   UNL     1       0.799  -1.718   1.841  0.00  0.00    +0.015 A 
ATOM     13  C   UNL     1      -0.579  -1.586   1.588  0.00  0.00    +0.025 A 
ATOM     14  C   UNL     1      -1.202  -0.400   2.034  0.00  0.00    +0.060 A 
ATOM     15  C   UNL     1      -0.461   0.630   2.602  0.00  0.00    +0.159 A 
ATOM     16  C   UNL     1       0.888   0.467   2.862  0.00  0.00    +0.158 A 
ATOM     17  C   UNL     1       1.528  -0.709   2.494  0.00  0.00    +0.050 A 
BRANCH  16  18
ATOM     18  O   UNL     1       1.540   1.483   3.499  0.00  0.00    -0.503 OA
ATOM     19  H   UNL     1       2.343   1.113   3.906  0.00  0.00    +0.292 HD
ENDBRANCH  16  18
BRANCH  15  20
ATOM     20  O   UNL     1      -1.082   1.811   2.896  0.00  0.00    -0.503 OA
ATOM     21  H   UNL     1      -0.369   2.403   3.205  0.00  0.00    +0.292 HD
ENDBRANCH  15  20
ENDBRANCH   1  13
BRANCH   5  22
ATOM     22  O   UNL     1      -4.524  -6.172  -0.989  0.00  0.00    -0.506 OA
ATOM     23  H   UNL     1      -4.930  -5.293  -0.825  0.00  0.00    +0.292 HD
ENDBRANCH   5  22
BRANCH  11  24
ATOM     24  O   UNL     1      -3.114  -1.251  -0.071  0.00  0.00    -0.453 OA
BRANCH  24  25
ATOM     25  C   UNL     1      -2.304  -0.370  -0.876  0.00  0.00    +0.340 C 
ATOM     26  O   UNL     1      -2.682   0.996  -0.696  0.00  0.00    -0.331 OA
ATOM     27  C   UNL     1      -3.518   1.680  -1.636  0.00  0.00    +0.179 C 
ATOM     28  C   UNL     1      -3.673   1.056  -3.038  0.00  0.00    +0.177 C 
ATOM     29  C   UNL     1      -3.558  -0.462  -2.993  0.00  0.00    +0.180 C 
ATOM     30  C   UNL     1      -2.234  -0.826  -2.337  0.00  0.00    +0.214 C 
BRANCH  30  31
ATOM     31  O   UNL     1      -1.135  -0.198  -3.026  0.00  0.00    -0.383 OA
ATOM     32  H   UNL     1      -0.471   0.124  -2.386  0.00  0.00    +0.210 HD
ENDBRANCH  30  31
BRANCH  29  33
ATOM     33  O   UNL     1      -3.660  -0.958  -4.335  0.00  0.00    -0.386 OA
ATOM     34  H   UNL     1      -3.474  -1.917  -4.303  0.00  0.00    +0.210 HD
ENDBRANCH  29  33
BRANCH  28  35
ATOM     35  O   UNL     1      -4.914   1.410  -3.676  0.00  0.00    -0.386 OA
ATOM     36  H   UNL     1      -4.980   0.794  -4.437  0.00  0.00    +0.210 HD
ENDBRANCH  28  35
BRANCH  27  37
ATOM     37  C   UNL     1      -4.857   2.078  -0.988  0.00  0.00    +0.190 C 
BRANCH  37  38
ATOM     38  O   UNL     1      -5.526   3.085  -1.747  0.00  0.00    -0.392 OA
ATOM     39  H   UNL     1      -5.569   2.741  -2.668  0.00  0.00    +0.210 HD
ENDBRANCH  37  38
ENDBRANCH  27  37
ENDBRANCH  24  25
ENDBRANCH  11  24
BRANCH   7  40
ATOM     40  O   UNL     1      -0.509  -8.633  -0.037  0.00  0.00    -0.461 OA
BRANCH  40  41
ATOM     41  C   UNL     1      -1.341  -9.807  -0.122  0.00  0.00    +0.339 C 
ATOM     42  O   UNL     1      -2.324  -9.845   0.926  0.00  0.00    -0.331 OA
ATOM     43  C   UNL     1      -1.874 -10.332   2.197  0.00  0.00    +0.179 C 
ATOM     44  C   UNL     1      -1.475 -11.796   2.036  0.00  0.00    +0.177 C 
ATOM     45  C   UNL     1      -0.308 -11.896   1.044  0.00  0.00    +0.180 C 
ATOM     46  C   UNL     1      -0.627 -11.180  -0.275  0.00  0.00    +0.214 C 
BRANCH  46  47
ATOM     47  O   UNL     1      -1.506 -12.095  -1.002  0.00  0.00    -0.383 OA
ATOM     48  H   UNL     1      -2.418 -11.960  -0.680  0.00  0.00    +0.210 HD
ENDBRANCH  46  47
BRANCH  45  49
ATOM     49  O   UNL     1      -0.019 -13.293   0.837  0.00  0.00    -0.386 OA
ATOM     50  H   UNL     1      -0.285 -13.497  -0.085  0.00  0.00    +0.210 HD
ENDBRANCH  45  49
BRANCH  44  51
ATOM     51  O   UNL     1      -1.109 -12.376   3.286  0.00  0.00    -0.386 OA
ATOM     52  H   UNL     1      -0.652 -13.213   3.063  0.00  0.00    +0.210 HD
ENDBRANCH  44  51
BRANCH  43  53
ATOM     53  C   UNL     1      -0.758  -9.506   2.884  0.00  0.00    +0.190 C 
BRANCH  53  54
ATOM     54  O   UNL     1      -1.064  -8.122   3.005  0.00  0.00    -0.392 OA
ATOM     55  H   UNL     1      -2.012  -8.039   3.187  0.00  0.00    +0.210 HD
ENDBRANCH  53  54
ENDBRANCH  43  53
ENDBRANCH  40  41
ENDBRANCH   7  40
TORSDOF 18
