REMARK  Name = 
REMARK  16 active torsions:
REMARK  status: ('A' for Active; 'I' for Inactive)
REMARK    1  A    between atoms: C_1  and  C_2
REMARK    2  A    between atoms: C_4  and  O_52
REMARK    3  A    between atoms: C_6  and  O_51
REMARK    4  A    between atoms: C_8  and  O_50
REMARK    5  A    between atoms: C_10  and  O_13
REMARK    6  A    between atoms: O_13  and  C_14
REMARK    7  A    between atoms: C_16  and  O_49
REMARK    8  A    between atoms: C_21  and  C_41
REMARK    9  A    between atoms: C_22  and  O_25
REMARK   10  A    between atoms: O_25  and  C_26
REMARK   11  A    between atoms: C_28  and  O_40
REMARK   12  A    between atoms: C_30  and  O_39
REMARK   13  A    between atoms: C_32  and  O_38
REMARK   14  A    between atoms: C_34  and  C_37
REMARK   15  A    between atoms: C_43  and  O_48
REMARK   16  A    between atoms: C_44  and  O_47
REMARK                            x       y       z     vdW  Elec       q    Type
REMARK                         _______ _______ _______ _____ _____    ______ ____
ROOT
ATOM      1  C   UNL     1      -0.623   1.056  -4.152  0.00  0.00    +0.131 A 
ATOM      2  C   UNL     1      -1.689   1.739  -3.578  0.00  0.00    +0.093 A 
ATOM      3  C   UNL     1      -1.711   3.135  -3.556  0.00  0.00    +0.147 A 
ATOM      4  O   UNL     1      -2.787   3.688  -2.933  0.00  0.00    -0.451 OA
ATOM      5  C   UNL     1      -2.824   5.052  -2.714  0.00  0.00    +0.181 A 
ATOM      6  C   UNL     1      -1.911   5.927  -3.192  0.00  0.00    +0.214 A 
ATOM      7  C   UNL     1      -0.821   5.361  -4.067  0.00  0.00    +0.238 A 
ATOM      8  O   UNL     1      -0.098   6.110  -4.716  0.00  0.00    -0.283 OA
ATOM      9  C   UNL     1      -0.693   3.884  -4.126  0.00  0.00    +0.109 A 
ATOM     10  C   UNL     1       0.373   3.197  -4.721  0.00  0.00    +0.135 A 
ATOM     11  C   UNL     1       0.412   1.790  -4.729  0.00  0.00    +0.092 A 
ENDROOT
BRANCH   5  12
ATOM     12  C   UNL     1      -4.056   5.353  -1.964  0.00  0.00    +0.025 A 
ATOM     13  C   UNL     1      -5.272   5.499  -2.653  0.00  0.00    +0.015 A 
ATOM     14  C   UNL     1      -6.480   5.531  -1.953  0.00  0.00    +0.050 A 
ATOM     15  C   UNL     1      -6.466   5.389  -0.574  0.00  0.00    +0.158 A 
ATOM     16  C   UNL     1      -5.266   5.294   0.123  0.00  0.00    +0.159 A 
ATOM     17  C   UNL     1      -4.057   5.266  -0.562  0.00  0.00    +0.060 A 
BRANCH  15  18
ATOM     18  O   UNL     1      -7.653   5.282   0.092  0.00  0.00    -0.503 OA
ATOM     19  H   UNL     1      -7.405   4.965   0.984  0.00  0.00    +0.292 HD
ENDBRANCH  15  18
BRANCH  16  20
ATOM     20  O   UNL     1      -5.326   5.189   1.484  0.00  0.00    -0.503 OA
ATOM     21  H   UNL     1      -4.469   5.475   1.846  0.00  0.00    +0.292 HD
ENDBRANCH  16  20
ENDBRANCH   5  12
BRANCH  10  22
ATOM     22  O   UNL     1       1.420   3.875  -5.277  0.00  0.00    -0.506 OA
ATOM     23  H   UNL     1       2.075   3.256  -5.636  0.00  0.00    +0.292 HD
ENDBRANCH  10  22
BRANCH   1  24
ATOM     24  O   UNL     1      -0.705  -0.302  -4.041  0.00  0.00    -0.461 OA
BRANCH  24  28
ATOM     25  C   UNL     1       3.063  -0.727  -2.066  0.00  0.00    +0.041 C 
ATOM     26  C   UNL     1       1.677  -1.130  -2.554  0.00  0.00    +0.150 C 
ATOM     27  O   UNL     1       1.630  -0.827  -3.951  0.00  0.00    -0.334 OA
ATOM     28  C   UNL     1       0.360  -1.109  -4.566  0.00  0.00    +0.339 C 
ATOM     29  C   UNL     1      -0.020  -2.592  -4.395  0.00  0.00    +0.214 C 
ATOM     30  C   UNL     1       0.035  -2.991  -2.916  0.00  0.00    +0.180 C 
ATOM     31  C   UNL     1       1.399  -2.617  -2.305  0.00  0.00    +0.174 C 
BRANCH  29  32
ATOM     32  O   UNL     1       0.874  -3.441  -5.137  0.00  0.00    -0.383 OA
ATOM     33  H   UNL     1       0.702  -4.343  -4.795  0.00  0.00    +0.210 HD
ENDBRANCH  29  32
BRANCH  30  34
ATOM     34  O   UNL     1      -0.155  -4.408  -2.801  0.00  0.00    -0.386 OA
ATOM     35  H   UNL     1       0.007  -4.603  -1.855  0.00  0.00    +0.210 HD
ENDBRANCH  30  34
BRANCH  31  36
ATOM     36  O   UNL     1       1.343  -2.937  -0.908  0.00  0.00    -0.387 OA
ATOM     37  H   UNL     1       2.253  -2.889  -0.565  0.00  0.00    +0.210 HD
ENDBRANCH  31  36
ENDBRANCH  24  28
ENDBRANCH   1  24
BRANCH   6  38
ATOM     38  O   UNL     1      -1.927   7.302  -3.102  0.00  0.00    -0.453 OA
BRANCH  38  39
ATOM     39  C   UNL     1      -2.117   7.927  -1.824  0.00  0.00    +0.339 C 
ATOM     40  O   UNL     1      -0.970   7.798  -0.980  0.00  0.00    -0.334 OA
ATOM     41  C   UNL     1      -1.018   8.552   0.249  0.00  0.00    +0.150 C 
ATOM     42  C   UNL     1      -1.876   7.841   1.299  0.00  0.00    +0.041 C 
ATOM     43  C   UNL     1      -1.427  10.032   0.055  0.00  0.00    +0.174 C 
ATOM     44  C   UNL     1      -2.678  10.147  -0.813  0.00  0.00    +0.180 C 
ATOM     45  C   UNL     1      -2.449   9.400  -2.126  0.00  0.00    +0.214 C 
BRANCH  43  46
ATOM     46  O   UNL     1      -0.345  10.737  -0.568  0.00  0.00    -0.387 OA
ATOM     47  H   UNL     1      -0.534  11.689  -0.505  0.00  0.00    +0.210 HD
ENDBRANCH  43  46
BRANCH  44  48
ATOM     48  O   UNL     1      -3.810   9.608  -0.115  0.00  0.00    -0.386 OA
ATOM     49  H   UNL     1      -4.456   9.346  -0.803  0.00  0.00    +0.210 HD
ENDBRANCH  44  48
BRANCH  45  50
ATOM     50  O   UNL     1      -3.649   9.499  -2.915  0.00  0.00    -0.383 OA
ATOM     51  H   UNL     1      -3.419   9.105  -3.781  0.00  0.00    +0.210 HD
ENDBRANCH  45  50
ENDBRANCH  38  39
ENDBRANCH   6  38
TORSDOF 14
