REMARK  Name = 
REMARK  17 active torsions:
REMARK  status: ('A' for Active; 'I' for Inactive)
REMARK    1  A    between atoms: C_3  and  O_50
REMARK    2  A    between atoms: C_4  and  O_49
REMARK    3  A    between atoms: C_6  and  C_7
REMARK    4  A    between atoms: C_8  and  C_9
REMARK    5  A    between atoms: C_9  and  O_11
REMARK    6  A    between atoms: O_11  and  C_12
REMARK    7  A    between atoms: C_12  and  C_13
REMARK    8  A    between atoms: C_15  and  O_48
REMARK    9  A    between atoms: C_17  and  O_47
REMARK   10  A    between atoms: C_19  and  O_46
REMARK   11  A    between atoms: C_21  and  O_24
REMARK   12  A    between atoms: O_24  and  C_25
REMARK   13  A    between atoms: C_26  and  C_38
REMARK   14  A    between atoms: C_30  and  O_37
REMARK   15  A    between atoms: C_32  and  O_36
REMARK   16  A    between atoms: C_40  and  O_45
REMARK   17  A    between atoms: C_41  and  O_44
REMARK                            x       y       z     vdW  Elec       q    Type
REMARK                         _______ _______ _______ _____ _____    ______ ____
ROOT
ATOM      1  C   UNL     1      -6.588  -5.268  -0.594  0.00  0.00    +0.191 C 
ATOM      2  O   UNL     1      -6.944  -5.023  -1.955  0.00  0.00    -0.330 OA
ATOM      3  C   UNL     1      -6.657  -3.725  -2.477  0.00  0.00    +0.340 C 
ATOM      4  C   UNL     1      -7.215  -2.570  -1.607  0.00  0.00    +0.214 C 
ATOM      5  C   UNL     1      -6.867  -2.753  -0.131  0.00  0.00    +0.180 C 
ATOM      6  C   UNL     1      -7.178  -4.191   0.328  0.00  0.00    +0.178 C 
ENDROOT
BRANCH   6   7
ATOM      7  O   UNL     1      -6.800  -4.385   1.689  0.00  0.00    -0.386 OA
ATOM      8  H   UNL     1      -7.224  -5.207   1.997  0.00  0.00    +0.210 HD
ENDBRANCH   6   7
BRANCH   5   9
ATOM      9  O   UNL     1      -5.525  -2.332   0.131  0.00  0.00    -0.386 OA
ATOM     10  H   UNL     1      -4.916  -2.771  -0.484  0.00  0.00    +0.210 HD
ENDBRANCH   5   9
BRANCH   4  11
ATOM     11  O   UNL     1      -8.644  -2.498  -1.747  0.00  0.00    -0.383 OA
ATOM     12  H   UNL     1      -8.936  -1.649  -1.370  0.00  0.00    +0.210 HD
ENDBRANCH   4  11
BRANCH   3  13
ATOM     13  O   UNL     1      -5.251  -3.531  -2.711  0.00  0.00    -0.453 OA
BRANCH  13  14
ATOM     14  C   UNL     1      -4.616  -4.349  -3.658  0.00  0.00    +0.214 A 
ATOM     15  C   UNL     1      -5.385  -5.125  -4.695  0.00  0.00    +0.238 A 
ATOM     16  O   UNL     1      -6.587  -4.974  -4.873  0.00  0.00    -0.283 OA
ATOM     17  C   UNL     1      -4.634  -6.054  -5.555  0.00  0.00    +0.109 A 
ATOM     18  C   UNL     1      -3.252  -6.077  -5.434  0.00  0.00    +0.147 A 
ATOM     19  C   UNL     1      -2.485  -6.919  -6.246  0.00  0.00    +0.092 A 
ATOM     20  C   UNL     1      -3.117  -7.734  -7.181  0.00  0.00    +0.124 A 
ATOM     21  C   UNL     1      -4.498  -7.730  -7.317  0.00  0.00    +0.091 A 
ATOM     22  O   UNL     1      -2.569  -5.299  -4.541  0.00  0.00    -0.451 OA
ATOM     23  C   UNL     1      -5.255  -6.890  -6.501  0.00  0.00    +0.135 A 
ATOM     24  C   UNL     1      -3.270  -4.488  -3.656  0.00  0.00    +0.181 A 
BRANCH  24  25
ATOM     25  C   UNL     1      -2.374  -3.854  -2.640  0.00  0.00    +0.025 A 
ATOM     26  C   UNL     1      -1.315  -4.611  -2.098  0.00  0.00    +0.015 A 
ATOM     27  C   UNL     1      -0.519  -4.116  -1.059  0.00  0.00    +0.050 A 
ATOM     28  C   UNL     1      -0.763  -2.846  -0.569  0.00  0.00    +0.158 A 
ATOM     29  C   UNL     1      -1.743  -2.046  -1.144  0.00  0.00    +0.159 A 
ATOM     30  C   UNL     1      -2.546  -2.535  -2.178  0.00  0.00    +0.060 A 
BRANCH  29  31
ATOM     31  O   UNL     1      -1.884  -0.779  -0.650  0.00  0.00    -0.503 OA
ATOM     32  H   UNL     1      -2.443  -0.268  -1.259  0.00  0.00    +0.292 HD
ENDBRANCH  29  31
BRANCH  28  33
ATOM     33  O   UNL     1      -0.032  -2.389   0.490  0.00  0.00    -0.503 OA
ATOM     34  H   UNL     1      -0.432  -1.524   0.715  0.00  0.00    +0.292 HD
ENDBRANCH  28  33
ENDBRANCH  24  25
BRANCH  23  35
ATOM     35  O   UNL     1      -6.615  -6.911  -6.639  0.00  0.00    -0.506 OA
ATOM     36  H   UNL     1      -6.886  -7.529  -7.335  0.00  0.00    +0.292 HD
ENDBRANCH  23  35
BRANCH  20  37
ATOM     37  O   UNL     1      -2.416  -8.590  -7.978  0.00  0.00    -0.507 OA
ATOM     38  H   UNL     1      -1.466  -8.432  -7.853  0.00  0.00    +0.292 HD
ENDBRANCH  20  37
ENDBRANCH  13  14
ENDBRANCH   3  13
BRANCH   1  39
ATOM     39  C   UNL     1      -5.086  -5.559  -0.393  0.00  0.00    +0.266 C 
BRANCH  39  40
ATOM     40  O   UNL     1      -4.610  -6.560  -1.319  0.00  0.00    -0.459 OA
BRANCH  40  41
ATOM     41  C   UNL     1      -4.904  -7.846  -1.012  0.00  0.00    +0.332 C 
ATOM     42  O   UNL     1      -5.498  -8.238  -0.023  0.00  0.00    -0.246 OA
BRANCH  41  44
ATOM     43  C   UNL     1      -4.767  -9.985  -2.194  0.00  0.00    +0.015 C 
ATOM     44  C   UNL     1      -4.394  -8.697  -2.108  0.00  0.00    +0.092 C 
BRANCH  43  46
ATOM     45  C   UNL     1      -4.070 -10.507  -4.563  0.00  0.00    +0.012 A 
ATOM     46  C   UNL     1      -4.348 -10.921  -3.250  0.00  0.00    -0.021 A 
ATOM     47  C   UNL     1      -4.291 -12.291  -2.952  0.00  0.00    +0.057 A 
ATOM     48  C   UNL     1      -3.953 -13.203  -3.946  0.00  0.00    +0.159 A 
ATOM     49  C   UNL     1      -3.672 -12.780  -5.241  0.00  0.00    +0.158 A 
ATOM     50  C   UNL     1      -3.727 -11.430  -5.560  0.00  0.00    +0.050 A 
BRANCH  49  51
ATOM     51  O   UNL     1      -3.359 -13.733  -6.170  0.00  0.00    -0.503 OA
ATOM     52  H   UNL     1      -3.229 -13.292  -7.027  0.00  0.00    +0.292 HD
ENDBRANCH  49  51
BRANCH  48  53
ATOM     53  O   UNL     1      -3.908 -14.534  -3.641  0.00  0.00    -0.503 OA
ATOM     54  H   UNL     1      -3.674 -14.972  -4.483  0.00  0.00    +0.292 HD
ENDBRANCH  48  53
ENDBRANCH  43  46
ENDBRANCH  41  44
ENDBRANCH  40  41
ENDBRANCH  39  40
ENDBRANCH   1  39
TORSDOF 17
