REMARK  Name = 
REMARK  17 active torsions:
REMARK  status: ('A' for Active; 'I' for Inactive)
REMARK    1  A    between atoms: C_1  and  C_2
REMARK    2  A    between atoms: C_4  and  O_53
REMARK    3  A    between atoms: C_6  and  O_52
REMARK    4  A    between atoms: C_8  and  O_51
REMARK    5  A    between atoms: C_10  and  O_13
REMARK    6  A    between atoms: O_13  and  C_14
REMARK    7  A    between atoms: C_16  and  O_50
REMARK    8  A    between atoms: C_21  and  C_42
REMARK    9  A    between atoms: C_22  and  O_25
REMARK   10  A    between atoms: O_25  and  C_26
REMARK   11  A    between atoms: C_28  and  O_41
REMARK   12  A    between atoms: C_30  and  O_40
REMARK   13  A    between atoms: C_32  and  O_39
REMARK   14  A    between atoms: C_34  and  C_37
REMARK   15  A    between atoms: C_37  and  O_38
REMARK   16  A    between atoms: C_44  and  O_49
REMARK   17  A    between atoms: C_45  and  O_48
REMARK                            x       y       z     vdW  Elec       q    Type
REMARK                         _______ _______ _______ _____ _____    ______ ____
ROOT
ATOM      1  C   UNL     1       2.700   2.867  -3.288  0.00  0.00    +0.131 A 
ATOM      2  C   UNL     1       1.450   3.355  -2.891  0.00  0.00    +0.093 A 
ATOM      3  C   UNL     1       1.246   4.734  -2.780  0.00  0.00    +0.147 A 
ATOM      4  O   UNL     1       0.014   5.185  -2.358  0.00  0.00    -0.451 OA
ATOM      5  C   UNL     1      -0.280   6.537  -2.536  0.00  0.00    +0.181 A 
ATOM      6  C   UNL     1       0.634   7.486  -2.832  0.00  0.00    +0.214 A 
ATOM      7  C   UNL     1       2.054   7.021  -2.762  0.00  0.00    +0.238 A 
ATOM      8  O   UNL     1       2.961   7.751  -2.392  0.00  0.00    -0.283 OA
ATOM      9  C   UNL     1       2.291   5.609  -3.059  0.00  0.00    +0.109 A 
ATOM     10  C   UNL     1       3.514   5.128  -3.522  0.00  0.00    +0.135 A 
ATOM     11  C   UNL     1       3.718   3.760  -3.634  0.00  0.00    +0.092 A 
ENDROOT
BRANCH   5  12
ATOM     12  C   UNL     1      -1.691   6.864  -2.261  0.00  0.00    +0.025 A 
ATOM     13  C   UNL     1      -2.086   7.083  -0.926  0.00  0.00    +0.015 A 
ATOM     14  C   UNL     1      -3.410   7.401  -0.611  0.00  0.00    +0.050 A 
ATOM     15  C   UNL     1      -4.340   7.503  -1.631  0.00  0.00    +0.158 A 
ATOM     16  C   UNL     1      -3.964   7.284  -2.955  0.00  0.00    +0.159 A 
ATOM     17  C   UNL     1      -2.647   6.956  -3.281  0.00  0.00    +0.060 A 
BRANCH  15  18
ATOM     18  O   UNL     1      -5.630   7.821  -1.327  0.00  0.00    -0.503 OA
ATOM     19  H   UNL     1      -6.092   7.850  -2.191  0.00  0.00    +0.292 HD
ENDBRANCH  15  18
BRANCH  16  20
ATOM     20  O   UNL     1      -4.939   7.395  -3.908  0.00  0.00    -0.503 OA
ATOM     21  H   UNL     1      -4.550   7.201  -4.778  0.00  0.00    +0.292 HD
ENDBRANCH  16  20
ENDBRANCH   5  12
BRANCH  10  22
ATOM     22  O   UNL     1       4.505   5.987  -3.896  0.00  0.00    -0.506 OA
ATOM     23  H   UNL     1       5.336   5.500  -4.026  0.00  0.00    +0.292 HD
ENDBRANCH  10  22
BRANCH   6  24
ATOM     24  O   UNL     1       0.293   8.813  -3.112  0.00  0.00    -0.453 OA
BRANCH  24  25
ATOM     25  C   UNL     1       1.265   9.545  -3.892  0.00  0.00    +0.340 C 
ATOM     26  O   UNL     1       1.043  10.961  -3.822  0.00  0.00    -0.331 OA
ATOM     27  C   UNL     1       0.067  11.554  -4.681  0.00  0.00    +0.179 C 
ATOM     28  C   UNL     1       0.212  11.089  -6.140  0.00  0.00    +0.177 C 
ATOM     29  C   UNL     1       0.236   9.559  -6.232  0.00  0.00    +0.180 C 
ATOM     30  C   UNL     1       1.358   9.002  -5.345  0.00  0.00    +0.214 C 
BRANCH  28  31
ATOM     31  O   UNL     1       1.457  11.609  -6.653  0.00  0.00    -0.386 OA
ATOM     32  H   UNL     1       1.553  11.298  -7.572  0.00  0.00    +0.210 HD
ENDBRANCH  28  31
BRANCH  29  33
ATOM     33  O   UNL     1      -1.046   8.998  -5.933  0.00  0.00    -0.386 OA
ATOM     34  H   UNL     1      -1.002   8.575  -5.056  0.00  0.00    +0.210 HD
ENDBRANCH  29  33
BRANCH  30  35
ATOM     35  O   UNL     1       2.629   9.319  -5.933  0.00  0.00    -0.383 OA
ATOM     36  H   UNL     1       2.755  10.284  -5.824  0.00  0.00    +0.210 HD
ENDBRANCH  30  35
BRANCH  27  37
ATOM     37  C   UNL     1      -1.347  11.432  -4.101  0.00  0.00    +0.190 C 
BRANCH  37  38
ATOM     38  O   UNL     1      -2.286  12.164  -4.883  0.00  0.00    -0.392 OA
ATOM     39  H   UNL     1      -2.805  11.524  -5.400  0.00  0.00    +0.210 HD
ENDBRANCH  37  38
ENDBRANCH  27  37
ENDBRANCH  24  25
ENDBRANCH   6  24
BRANCH   1  40
ATOM     40  O   UNL     1       3.087   1.561  -3.367  0.00  0.00    -0.461 OA
BRANCH  40  44
ATOM     41  C   UNL     1      -0.518  -0.248  -1.841  0.00  0.00    +0.041 C 
ATOM     42  C   UNL     1       0.861  -0.363  -1.190  0.00  0.00    +0.150 C 
ATOM     43  O   UNL     1       1.741   0.660  -1.652  0.00  0.00    -0.334 OA
ATOM     44  C   UNL     1       2.152   0.535  -3.018  0.00  0.00    +0.339 C 
ATOM     45  C   UNL     1       2.859  -0.820  -3.266  0.00  0.00    +0.214 C 
ATOM     46  C   UNL     1       1.964  -1.971  -2.784  0.00  0.00    +0.180 C 
ATOM     47  C   UNL     1       1.522  -1.739  -1.336  0.00  0.00    +0.174 C 
BRANCH  47  48
ATOM     48  O   UNL     1       0.650  -2.802  -0.944  0.00  0.00    -0.387 OA
ATOM     49  H   UNL     1       0.499  -2.713   0.015  0.00  0.00    +0.210 HD
ENDBRANCH  47  48
BRANCH  46  50
ATOM     50  O   UNL     1       2.652  -3.225  -2.874  0.00  0.00    -0.386 OA
ATOM     51  H   UNL     1       2.086  -3.869  -2.403  0.00  0.00    +0.210 HD
ENDBRANCH  46  50
BRANCH  45  52
ATOM     52  O   UNL     1       3.194  -0.965  -4.658  0.00  0.00    -0.383 OA
ATOM     53  H   UNL     1       2.478  -1.443  -5.106  0.00  0.00    +0.210 HD
ENDBRANCH  45  52
ENDBRANCH  40  44
ENDBRANCH   1  40
TORSDOF 16
