REMARK  Name = 
REMARK  22 active torsions:
REMARK  status: ('A' for Active; 'I' for Inactive)
REMARK    1  A    between atoms: C_1  and  C_2
REMARK    2  A    between atoms: C_4  and  O_68
REMARK    3  A    between atoms: C_6  and  O_67
REMARK    4  A    between atoms: C_8  and  O_66
REMARK    5  A    between atoms: C_10  and  O_13
REMARK    6  A    between atoms: O_13  and  C_14
REMARK    7  A    between atoms: C_16  and  O_65
REMARK    8  A    between atoms: C_18  and  O_64
REMARK    9  A    between atoms: C_20  and  C_62
REMARK   10  A    between atoms: C_23  and  O_25
REMARK   11  A    between atoms: O_25  and  C_26
REMARK   12  A    between atoms: C_27  and  C_54
REMARK   13  A    between atoms: C_31  and  O_38
REMARK   14  A    between atoms: C_33  and  O_37
REMARK   15  A    between atoms: O_38  and  C_39
REMARK   16  A    between atoms: C_41  and  O_53
REMARK   17  A    between atoms: C_43  and  O_52
REMARK   18  A    between atoms: C_45  and  O_51
REMARK   19  A    between atoms: C_47  and  C_50
REMARK   20  A    between atoms: C_56  and  O_61
REMARK   21  A    between atoms: C_57  and  O_60
REMARK   22  A    between atoms: C_62  and  O_63
REMARK                            x       y       z     vdW  Elec       q    Type
REMARK                         _______ _______ _______ _____ _____    ______ ____
ROOT
ATOM      1  C   UNL     1       0.424   0.548  -2.713  0.00  0.00    +0.214 A 
ATOM      2  C   UNL     1       0.111  -0.893  -2.381  0.00  0.00    +0.238 A 
ATOM      3  O   UNL     1       0.447  -1.816  -3.112  0.00  0.00    -0.283 OA
ATOM      4  C   UNL     1      -0.582  -1.145  -1.093  0.00  0.00    +0.109 A 
ATOM      5  C   UNL     1      -1.195  -0.065  -0.471  0.00  0.00    +0.147 A 
ATOM      6  C   UNL     1      -1.836  -0.204   0.778  0.00  0.00    +0.093 A 
ATOM      7  C   UNL     1      -1.865  -1.442   1.414  0.00  0.00    +0.131 A 
ATOM      8  C   UNL     1      -1.256  -2.538   0.789  0.00  0.00    +0.092 A 
ATOM      9  O   UNL     1      -1.221   1.179  -1.044  0.00  0.00    -0.451 OA
ATOM     10  C   UNL     1      -0.623  -2.391  -0.456  0.00  0.00    +0.135 A 
ATOM     11  C   UNL     1      -0.297   1.480  -2.042  0.00  0.00    +0.181 A 
ENDROOT
BRANCH  11  12
ATOM     12  C   UNL     1      -0.229   2.959  -2.192  0.00  0.00    +0.025 A 
ATOM     13  C   UNL     1       0.509   3.708  -1.256  0.00  0.00    +0.015 A 
ATOM     14  C   UNL     1       0.369   5.100  -1.170  0.00  0.00    +0.050 A 
ATOM     15  C   UNL     1      -0.505   5.754  -2.021  0.00  0.00    +0.158 A 
ATOM     16  C   UNL     1      -1.220   5.038  -2.981  0.00  0.00    +0.159 A 
ATOM     17  C   UNL     1      -1.097   3.647  -3.068  0.00  0.00    +0.060 A 
BRANCH  16  18
ATOM     18  O   UNL     1      -2.059   5.758  -3.788  0.00  0.00    -0.503 OA
ATOM     19  H   UNL     1      -2.295   5.209  -4.555  0.00  0.00    +0.292 HD
ENDBRANCH  16  18
BRANCH  15  20
ATOM     20  O   UNL     1      -0.685   7.102  -1.891  0.00  0.00    -0.503 OA
ATOM     21  H   UNL     1      -1.395   7.327  -2.524  0.00  0.00    +0.292 HD
ENDBRANCH  15  20
ENDBRANCH  11  12
BRANCH  10  22
ATOM     22  O   UNL     1      -0.035  -3.485  -1.025  0.00  0.00    -0.506 OA
ATOM     23  H   UNL     1      -0.132  -4.266  -0.460  0.00  0.00    +0.292 HD
ENDBRANCH  10  22
BRANCH   7  24
ATOM     24  O   UNL     1      -2.412  -1.707   2.641  0.00  0.00    -0.461 OA
BRANCH  24  25
ATOM     25  C   UNL     1      -3.401  -0.813   3.176  0.00  0.00    +0.339 C 
ATOM     26  O   UNL     1      -2.872   0.401   3.719  0.00  0.00    -0.334 OA
ATOM     27  C   UNL     1      -1.984   0.211   4.830  0.00  0.00    +0.150 C 
ATOM     28  C   UNL     1      -1.550   1.611   5.269  0.00  0.00    +0.041 C 
ATOM     29  C   UNL     1      -2.623  -0.578   5.999  0.00  0.00    +0.174 C 
ATOM     30  C   UNL     1      -3.318  -1.854   5.502  0.00  0.00    +0.180 C 
ATOM     31  C   UNL     1      -4.208  -1.552   4.278  0.00  0.00    +0.214 C 
BRANCH  31  32
ATOM     32  O   UNL     1      -5.340  -0.772   4.685  0.00  0.00    -0.383 OA
ATOM     33  H   UNL     1      -4.990   0.012   5.165  0.00  0.00    +0.210 HD
ENDBRANCH  31  32
BRANCH  30  34
ATOM     34  O   UNL     1      -2.333  -2.855   5.247  0.00  0.00    -0.386 OA
ATOM     35  H   UNL     1      -2.675  -3.459   4.565  0.00  0.00    +0.210 HD
ENDBRANCH  30  34
BRANCH  29  36
ATOM     36  O   UNL     1      -3.607   0.223   6.686  0.00  0.00    -0.387 OA
ATOM     37  H   UNL     1      -3.747  -0.173   7.563  0.00  0.00    +0.210 HD
ENDBRANCH  29  36
ENDBRANCH  24  25
ENDBRANCH   7  24
BRANCH   1  38
ATOM     38  O   UNL     1       1.471   0.893  -3.567  0.00  0.00    -0.453 OA
BRANCH  38  40
ATOM     39  C   UNL     1       2.982  -0.973  -4.479  0.00  0.00    +0.221 C 
ATOM     40  C   UNL     1       1.830   0.079  -4.713  0.00  0.00    +0.340 C 
ATOM     41  O   UNL     1       0.674  -0.462  -5.371  0.00  0.00    -0.331 OA
ATOM     42  C   UNL     1       0.958  -1.118  -6.611  0.00  0.00    +0.179 C 
ATOM     43  C   UNL     1       1.988  -2.245  -6.448  0.00  0.00    +0.177 C 
ATOM     44  C   UNL     1       3.250  -1.671  -5.827  0.00  0.00    +0.180 C 
BRANCH  44  45
ATOM     45  O   UNL     1       4.224  -2.724  -5.691  0.00  0.00    -0.386 OA
ATOM     46  H   UNL     1       4.949  -2.328  -5.166  0.00  0.00    +0.210 HD
ENDBRANCH  44  45
BRANCH  43  47
ATOM     47  O   UNL     1       2.322  -2.816  -7.727  0.00  0.00    -0.386 OA
ATOM     48  H   UNL     1       3.165  -3.296  -7.573  0.00  0.00    +0.210 HD
ENDBRANCH  43  47
BRANCH  42  49
ATOM     49  C   UNL     1      -0.344  -1.672  -7.209  0.00  0.00    +0.190 C 
BRANCH  49  50
ATOM     50  O   UNL     1      -0.172  -2.101  -8.559  0.00  0.00    -0.392 OA
ATOM     51  H   UNL     1       0.660  -2.624  -8.583  0.00  0.00    +0.210 HD
ENDBRANCH  49  50
ENDBRANCH  42  49
BRANCH  39  52
ATOM     52  O   UNL     1       4.294  -0.477  -4.144  0.00  0.00    -0.337 OA
BRANCH  52  56
ATOM     53  C   UNL     1       5.671   3.041  -2.242  0.00  0.00    +0.041 C 
ATOM     54  C   UNL     1       6.212   1.646  -1.953  0.00  0.00    +0.149 C 
ATOM     55  O   UNL     1       5.831   0.731  -2.987  0.00  0.00    -0.343 OA
ATOM     56  C   UNL     1       4.467   0.284  -2.958  0.00  0.00    +0.282 C 
ATOM     57  C   UNL     1       4.239  -0.490  -1.642  0.00  0.00    +0.201 C 
ATOM     58  C   UNL     1       4.496   0.457  -0.459  0.00  0.00    +0.179 C 
ATOM     59  C   UNL     1       5.883   1.098  -0.550  0.00  0.00    +0.174 C 
BRANCH  59  60
ATOM     60  O   UNL     1       6.853   0.090  -0.213  0.00  0.00    -0.387 OA
ATOM     61  H   UNL     1       7.035  -0.443  -1.010  0.00  0.00    +0.210 HD
ENDBRANCH  59  60
BRANCH  58  62
ATOM     62  O   UNL     1       3.425   1.418  -0.374  0.00  0.00    -0.386 OA
ATOM     63  H   UNL     1       3.454   2.030  -1.127  0.00  0.00    +0.210 HD
ENDBRANCH  58  62
BRANCH  57  64
ATOM     64  O   UNL     1       2.918  -1.000  -1.502  0.00  0.00    -0.384 OA
ATOM     65  H   UNL     1       2.416  -0.333  -0.998  0.00  0.00    +0.210 HD
ENDBRANCH  57  64
ENDBRANCH  52  56
ENDBRANCH  39  52
ENDBRANCH  38  40
ENDBRANCH   1  38
TORSDOF 20
