REMARK  Name = 
REMARK  20 active torsions:
REMARK  status: ('A' for Active; 'I' for Inactive)
REMARK    1  A    between atoms: C_1  and  C_2
REMARK    2  A    between atoms: C_4  and  O_59
REMARK    3  A    between atoms: C_6  and  O_58
REMARK    4  A    between atoms: C_8  and  O_57
REMARK    5  A    between atoms: C_10  and  O_13
REMARK    6  A    between atoms: O_13  and  C_14
REMARK    7  A    between atoms: C_16  and  O_56
REMARK    8  A    between atoms: C_21  and  C_48
REMARK    9  A    between atoms: C_22  and  O_25
REMARK   10  A    between atoms: O_25  and  C_26
REMARK   11  A    between atoms: C_28  and  O_47
REMARK   12  A    between atoms: C_30  and  O_46
REMARK   13  A    between atoms: C_32  and  O_45
REMARK   14  A    between atoms: C_34  and  C_37
REMARK   15  A    between atoms: C_37  and  O_38
REMARK   16  A    between atoms: O_38  and  C_39
REMARK   17  A    between atoms: C_39  and  C_41
REMARK   18  A    between atoms: C_41  and  C_42
REMARK   19  A    between atoms: C_50  and  O_55
REMARK   20  A    between atoms: C_51  and  O_54
REMARK                            x       y       z     vdW  Elec       q    Type
REMARK                         _______ _______ _______ _____ _____    ______ ____
ROOT
ATOM      1  C   UNL     1       2.575   2.873  -3.196  0.00  0.00    +0.131 A 
ATOM      2  C   UNL     1       1.323   3.368  -2.807  0.00  0.00    +0.093 A 
ATOM      3  C   UNL     1       1.118   4.749  -2.724  0.00  0.00    +0.147 A 
ATOM      4  O   UNL     1      -0.110   5.217  -2.310  0.00  0.00    -0.451 OA
ATOM      5  C   UNL     1      -0.385   6.590  -2.412  0.00  0.00    +0.181 A 
ATOM      6  C   UNL     1       0.569   7.524  -2.664  0.00  0.00    +0.214 A 
ATOM      7  C   UNL     1       1.972   7.011  -2.696  0.00  0.00    +0.238 A 
ATOM      8  O   UNL     1       2.939   7.679  -2.369  0.00  0.00    -0.283 OA
ATOM      9  C   UNL     1       2.164   5.609  -3.020  0.00  0.00    +0.109 A 
ATOM     10  C   UNL     1       3.385   5.117  -3.479  0.00  0.00    +0.135 A 
ATOM     11  C   UNL     1       3.593   3.754  -3.562  0.00  0.00    +0.092 A 
ENDROOT
BRANCH   5  12
ATOM     12  C   UNL     1      -1.825   6.910  -2.168  0.00  0.00    +0.025 A 
ATOM     13  C   UNL     1      -2.217   8.091  -1.504  0.00  0.00    +0.015 A 
ATOM     14  C   UNL     1      -3.565   8.382  -1.251  0.00  0.00    +0.050 A 
ATOM     15  C   UNL     1      -4.537   7.478  -1.636  0.00  0.00    +0.158 A 
ATOM     16  C   UNL     1      -4.181   6.287  -2.257  0.00  0.00    +0.159 A 
ATOM     17  C   UNL     1      -2.840   5.995  -2.523  0.00  0.00    +0.060 A 
BRANCH  16  18
ATOM     18  O   UNL     1      -5.195   5.426  -2.587  0.00  0.00    -0.503 OA
ATOM     19  H   UNL     1      -4.806   4.640  -3.003  0.00  0.00    +0.292 HD
ENDBRANCH  16  18
BRANCH  15  20
ATOM     20  O   UNL     1      -5.849   7.763  -1.388  0.00  0.00    -0.503 OA
ATOM     21  H   UNL     1      -6.345   7.013  -1.768  0.00  0.00    +0.292 HD
ENDBRANCH  15  20
ENDBRANCH   5  12
BRANCH  10  22
ATOM     22  O   UNL     1       4.383   5.967  -3.880  0.00  0.00    -0.506 OA
ATOM     23  H   UNL     1       5.238   5.507  -3.858  0.00  0.00    +0.292 HD
ENDBRANCH  10  22
BRANCH   6  24
ATOM     24  O   UNL     1       0.288   8.880  -2.865  0.00  0.00    -0.453 OA
BRANCH  24  25
ATOM     25  C   UNL     1       1.295   9.819  -2.426  0.00  0.00    +0.340 C 
ATOM     26  O   UNL     1       0.692  10.958  -1.797  0.00  0.00    -0.330 OA
ATOM     27  C   UNL     1       0.261  12.057  -2.616  0.00  0.00    +0.191 C 
ATOM     28  C   UNL     1       1.333  12.479  -3.633  0.00  0.00    +0.178 C 
ATOM     29  C   UNL     1       1.805  11.293  -4.481  0.00  0.00    +0.180 C 
ATOM     30  C   UNL     1       2.301  10.166  -3.564  0.00  0.00    +0.214 C 
BRANCH  30  31
ATOM     31  O   UNL     1       3.568  10.560  -3.004  0.00  0.00    -0.383 OA
ATOM     32  H   UNL     1       3.378  11.339  -2.439  0.00  0.00    +0.210 HD
ENDBRANCH  30  31
BRANCH  29  33
ATOM     33  O   UNL     1       0.829  10.856  -5.425  0.00  0.00    -0.386 OA
ATOM     34  H   UNL     1       0.347  10.092  -5.067  0.00  0.00    +0.210 HD
ENDBRANCH  29  33
BRANCH  28  35
ATOM     35  O   UNL     1       2.482  12.961  -2.891  0.00  0.00    -0.386 OA
ATOM     36  H   UNL     1       3.045  13.431  -3.534  0.00  0.00    +0.210 HD
ENDBRANCH  28  35
BRANCH  27  37
ATOM     37  C   UNL     1      -1.132  11.791  -3.205  0.00  0.00    +0.266 C 
BRANCH  37  38
ATOM     38  O   UNL     1      -1.668  12.917  -3.910  0.00  0.00    -0.462 OA
BRANCH  38  39
ATOM     39  C   UNL     1      -2.270  13.864  -3.128  0.00  0.00    +0.313 C 
ATOM     40  O   UNL     1      -2.360  13.790  -1.905  0.00  0.00    -0.250 OA
BRANCH  39  41
ATOM     41  C   UNL     1      -2.924  14.916  -3.955  0.00  0.00    +0.172 C 
BRANCH  41  42
ATOM     42  C   UNL     1      -2.017  16.104  -4.136  0.00  0.00    +0.052 C 
ATOM     43  O   UNL     1      -2.620  17.213  -4.231  0.00  0.00    -0.549 OA
ATOM     44  O   UNL     1      -0.781  15.866  -4.233  0.00  0.00    -0.549 OA
ENDBRANCH  41  42
ENDBRANCH  39  41
ENDBRANCH  38  39
ENDBRANCH  37  38
ENDBRANCH  27  37
ENDBRANCH  24  25
ENDBRANCH   6  24
BRANCH   1  45
ATOM     45  O   UNL     1       2.966   1.568  -3.250  0.00  0.00    -0.461 OA
BRANCH  45  49
ATOM     46  C   UNL     1      -0.662  -0.151  -1.639  0.00  0.00    +0.041 C 
ATOM     47  C   UNL     1       0.736  -0.337  -1.061  0.00  0.00    +0.150 C 
ATOM     48  O   UNL     1       1.644   0.665  -1.530  0.00  0.00    -0.334 OA
ATOM     49  C   UNL     1       2.027   0.549  -2.904  0.00  0.00    +0.339 C 
ATOM     50  C   UNL     1       2.727  -0.803  -3.170  0.00  0.00    +0.214 C 
ATOM     51  C   UNL     1       1.866  -1.972  -2.678  0.00  0.00    +0.180 C 
ATOM     52  C   UNL     1       1.355  -1.731  -1.251  0.00  0.00    +0.174 C 
BRANCH  52  53
ATOM     53  O   UNL     1       2.474  -1.843  -0.353  0.00  0.00    -0.387 OA
ATOM     54  H   UNL     1       2.895  -0.963  -0.279  0.00  0.00    +0.210 HD
ENDBRANCH  52  53
BRANCH  51  55
ATOM     55  O   UNL     1       0.803  -2.243  -3.605  0.00  0.00    -0.386 OA
ATOM     56  H   UNL     1       0.361  -1.421  -3.870  0.00  0.00    +0.210 HD
ENDBRANCH  51  55
BRANCH  50  57
ATOM     57  O   UNL     1       3.023  -0.968  -4.567  0.00  0.00    -0.383 OA
ATOM     58  H   UNL     1       2.373  -1.595  -4.936  0.00  0.00    +0.210 HD
ENDBRANCH  50  57
ENDBRANCH  45  49
ENDBRANCH   1  45
TORSDOF 19
