REMARK  Name = 
REMARK  14 active torsions:
REMARK  status: ('A' for Active; 'I' for Inactive)
REMARK    1  A    between atoms: C_4  and  O_43
REMARK    2  A    between atoms: C_6  and  C_7
REMARK    3  A    between atoms: C_8  and  O_20
REMARK    4  A    between atoms: C_12  and  O_19
REMARK    5  A    between atoms: C_14  and  O_18
REMARK    6  A    between atoms: O_20  and  C_21
REMARK    7  A    between atoms: C_23  and  O_42
REMARK    8  A    between atoms: C_25  and  O_41
REMARK    9  A    between atoms: C_27  and  O_40
REMARK   10  A    between atoms: C_29  and  C_32
REMARK   11  A    between atoms: C_32  and  O_33
REMARK   12  A    between atoms: O_33  and  C_34
REMARK   13  A    between atoms: C_34  and  C_36
REMARK   14  A    between atoms: C_36  and  C_37
REMARK                            x       y       z     vdW  Elec       q    Type
REMARK                         _______ _______ _______ _____ _____    ______ ____
ROOT
ATOM      1  C   UNL     1      -3.039  -3.378   1.563  0.00  0.00    +0.181 A 
ATOM      2  O   UNL     1      -2.237  -4.177   2.383  0.00  0.00    -0.451 OA
ATOM      3  C   UNL     1      -0.903  -3.910   2.480  0.00  0.00    +0.147 A 
ATOM      4  C   UNL     1      -0.262  -3.065   1.599  0.00  0.00    +0.109 A 
ATOM      5  C   UNL     1       1.116  -2.841   1.697  0.00  0.00    +0.135 A 
ATOM      6  C   UNL     1       1.849  -3.440   2.705  0.00  0.00    +0.091 A 
ATOM      7  C   UNL     1       1.194  -4.282   3.596  0.00  0.00    +0.124 A 
ATOM      8  C   UNL     1      -1.046  -2.402   0.583  0.00  0.00    +0.238 A 
ATOM      9  O   UNL     1      -0.417  -1.761  -0.261  0.00  0.00    -0.283 OA
ATOM     10  C   UNL     1      -0.175  -4.525   3.494  0.00  0.00    +0.092 A 
ATOM     11  C   UNL     1      -2.540  -2.493   0.662  0.00  0.00    +0.214 A 
ENDROOT
BRANCH   1  13
ATOM     12  C   UNL     1      -5.292  -2.504   2.263  0.00  0.00    +0.011 A 
ATOM     13  C   UNL     1      -4.472  -3.585   1.922  0.00  0.00    +0.024 A 
ATOM     14  C   UNL     1      -4.956  -4.872   2.202  0.00  0.00    +0.056 A 
ATOM     15  C   UNL     1      -6.159  -5.028   2.898  0.00  0.00    +0.110 A 
ATOM     16  C   UNL     1      -6.975  -3.967   3.340  0.00  0.00    -0.066 A 
ATOM     17  O   UNL     1      -8.031  -4.159   4.038  0.00  0.00    -0.871 OA
ATOM     18  C   UNL     1      -6.505  -2.702   2.957  0.00  0.00    -0.004 A 
BRANCH  15  19
ATOM     19  O   UNL     1      -6.582  -6.293   3.249  0.00  0.00    -0.507 OA
ATOM     20  H   UNL     1      -7.396  -6.027   3.749  0.00  0.00    +0.292 HD
ENDBRANCH  15  19
ENDBRANCH   1  13
BRANCH   5  21
ATOM     21  O   UNL     1       1.809  -2.013   0.847  0.00  0.00    -0.506 OA
ATOM     22  H   UNL     1       1.174  -1.682   0.169  0.00  0.00    +0.292 HD
ENDBRANCH   5  21
BRANCH   7  23
ATOM     23  O   UNL     1       1.884  -4.906   4.593  0.00  0.00    -0.507 OA
ATOM     24  H   UNL     1       2.829  -4.720   4.466  0.00  0.00    +0.292 HD
ENDBRANCH   7  23
BRANCH  11  25
ATOM     25  O   UNL     1      -3.343  -1.696  -0.142  0.00  0.00    -0.453 OA
BRANCH  25  26
ATOM     26  C   UNL     1      -2.695  -0.774  -1.053  0.00  0.00    +0.340 C 
ATOM     27  O   UNL     1      -3.675   0.198  -1.393  0.00  0.00    -0.330 OA
ATOM     28  C   UNL     1      -3.812   0.673  -2.741  0.00  0.00    +0.191 C 
ATOM     29  C   UNL     1      -3.609  -0.372  -3.870  0.00  0.00    +0.178 C 
ATOM     30  C   UNL     1      -3.244  -1.737  -3.305  0.00  0.00    +0.180 C 
ATOM     31  C   UNL     1      -2.139  -1.546  -2.273  0.00  0.00    +0.214 C 
BRANCH  29  32
ATOM     32  O   UNL     1      -2.558   0.057  -4.757  0.00  0.00    -0.386 OA
ATOM     33  H   UNL     1      -1.707  -0.072  -4.285  0.00  0.00    +0.210 HD
ENDBRANCH  29  32
BRANCH  30  34
ATOM     34  O   UNL     1      -4.377  -2.411  -2.756  0.00  0.00    -0.386 OA
ATOM     35  H   UNL     1      -4.723  -1.891  -2.003  0.00  0.00    +0.210 HD
ENDBRANCH  30  34
BRANCH  31  36
ATOM     36  O   UNL     1      -1.017  -0.839  -2.846  0.00  0.00    -0.383 OA
ATOM     37  H   UNL     1      -0.375  -0.735  -2.114  0.00  0.00    +0.210 HD
ENDBRANCH  31  36
BRANCH  28  38
ATOM     38  C   UNL     1      -5.262   1.171  -2.730  0.00  0.00    +0.266 C 
BRANCH  38  39
ATOM     39  O   UNL     1      -5.747   1.582  -4.002  0.00  0.00    -0.462 OA
BRANCH  39  40
ATOM     40  C   UNL     1      -5.468   2.869  -4.365  0.00  0.00    +0.313 C 
ATOM     41  O   UNL     1      -4.836   3.652  -3.670  0.00  0.00    -0.250 OA
BRANCH  40  42
ATOM     42  C   UNL     1      -6.210   3.153  -5.621  0.00  0.00    +0.172 C 
BRANCH  42  43
ATOM     43  C   UNL     1      -5.508   4.193  -6.447  0.00  0.00    +0.052 C 
ATOM     44  O   UNL     1      -6.175   5.249  -6.653  0.00  0.00    -0.549 OA
ATOM     45  O   UNL     1      -4.391   3.855  -6.930  0.00  0.00    -0.549 OA
ENDBRANCH  42  43
ENDBRANCH  40  42
ENDBRANCH  39  40
ENDBRANCH  38  39
ENDBRANCH  28  38
ENDBRANCH  25  26
ENDBRANCH  11  25
TORSDOF 14
