REMARK  Name = 
REMARK  9 active torsions:
REMARK  status: ('A' for Active; 'I' for Inactive)
REMARK    1  A    between atoms: C_2  and  O_35
REMARK    2  A    between atoms: C_4  and  O_34
REMARK    3  A    between atoms: C_6  and  O_33
REMARK    4  A    between atoms: C_8  and  O_11
REMARK    5  A    between atoms: O_11  and  C_12
REMARK    6  A    between atoms: C_13  and  C_25
REMARK    7  A    between atoms: C_17  and  O_24
REMARK    8  A    between atoms: C_19  and  O_23
REMARK    9  A    between atoms: C_27  and  O_32
REMARK                            x       y       z     vdW  Elec       q    Type
REMARK                         _______ _______ _______ _____ _____    ______ ____
ROOT
ATOM      1  C   UNL     1       2.623  -2.572  -0.017  0.00  0.00    +0.214 A 
ATOM      2  C   UNL     1       3.539  -1.489  -0.494  0.00  0.00    +0.238 A 
ATOM      3  O   UNL     1       3.120  -0.375  -0.786  0.00  0.00    -0.283 OA
ATOM      4  C   UNL     1       4.950  -1.839  -0.682  0.00  0.00    +0.109 A 
ATOM      5  C   UNL     1       5.265  -3.191  -0.773  0.00  0.00    +0.147 A 
ATOM      6  C   UNL     1       6.577  -3.586  -1.050  0.00  0.00    +0.092 A 
ATOM      7  C   UNL     1       7.561  -2.616  -1.230  0.00  0.00    +0.124 A 
ATOM      8  C   UNL     1       7.263  -1.263  -1.120  0.00  0.00    +0.091 A 
ATOM      9  O   UNL     1       4.327  -4.183  -0.625  0.00  0.00    -0.451 OA
ATOM     10  C   UNL     1       5.957  -0.872  -0.836  0.00  0.00    +0.135 A 
ATOM     11  C   UNL     1       3.047  -3.846  -0.182  0.00  0.00    +0.181 A 
ENDROOT
BRANCH  11  12
ATOM     12  C   UNL     1       2.188  -5.037   0.075  0.00  0.00    +0.024 A 
ATOM     13  C   UNL     1       2.726  -6.225   0.574  0.00  0.00    +0.011 A 
ATOM     14  C   UNL     1       1.916  -7.359   0.784  0.00  0.00    -0.004 A 
ATOM     15  C   UNL     1       0.536  -7.398   0.519  0.00  0.00    -0.066 A 
ATOM     16  O   UNL     1      -0.152  -8.453   0.750  0.00  0.00    -0.871 OA
ATOM     17  C   UNL     1       0.028  -6.192  -0.011  0.00  0.00    +0.110 A 
ATOM     18  C   UNL     1       0.823  -5.048  -0.238  0.00  0.00    +0.056 A 
BRANCH  17  19
ATOM     19  O   UNL     1      -1.310  -6.099  -0.339  0.00  0.00    -0.507 OA
ATOM     20  H   UNL     1      -1.551  -5.165  -0.297  0.00  0.00    +0.292 HD
ENDBRANCH  17  19
ENDBRANCH  11  12
BRANCH   7  21
ATOM     21  O   UNL     1       8.852  -2.946  -1.520  0.00  0.00    -0.507 OA
ATOM     22  H   UNL     1       8.916  -3.913  -1.600  0.00  0.00    +0.292 HD
ENDBRANCH   7  21
BRANCH  10  23
ATOM     23  O   UNL     1       5.686   0.459  -0.688  0.00  0.00    -0.506 OA
ATOM     24  H   UNL     1       6.456   0.984  -0.957  0.00  0.00    +0.292 HD
ENDBRANCH  10  23
BRANCH   1  25
ATOM     25  O   UNL     1       1.363  -2.262   0.483  0.00  0.00    -0.453 OA
BRANCH  25  28
ATOM     26  C   UNL     1       2.224   0.205   3.013  0.00  0.00    +0.198 C 
ATOM     27  O   UNL     1       2.233  -1.028   2.306  0.00  0.00    -0.337 OA
ATOM     28  C   UNL     1       1.275  -1.043   1.237  0.00  0.00    +0.339 C 
ATOM     29  C   UNL     1      -0.168  -0.880   1.782  0.00  0.00    +0.214 C 
ATOM     30  C   UNL     1      -0.234   0.399   2.639  0.00  0.00    +0.180 C 
ATOM     31  C   UNL     1       0.876   0.419   3.693  0.00  0.00    +0.171 C 
BRANCH  29  32
ATOM     32  O   UNL     1      -1.123  -0.801   0.707  0.00  0.00    -0.383 OA
ATOM     33  H   UNL     1      -1.036   0.068   0.279  0.00  0.00    +0.210 HD
ENDBRANCH  29  32
BRANCH  30  34
ATOM     34  O   UNL     1      -1.504   0.527   3.291  0.00  0.00    -0.386 OA
ATOM     35  H   UNL     1      -1.400   1.265   3.922  0.00  0.00    +0.210 HD
ENDBRANCH  30  34
BRANCH  31  36
ATOM     36  O   UNL     1       0.836   1.673   4.384  0.00  0.00    -0.387 OA
ATOM     37  H   UNL     1       1.474   1.613   5.117  0.00  0.00    +0.210 HD
ENDBRANCH  31  36
ENDBRANCH  25  28
ENDBRANCH   1  25
TORSDOF 9
