REMARK  Name = 
REMARK  14 active torsions:
REMARK  status: ('A' for Active; 'I' for Inactive)
REMARK    1  A    between atoms: C_3  and  O_44
REMARK    2  A    between atoms: C_4  and  O_43
REMARK    3  A    between atoms: C_6  and  C_7
REMARK    4  A    between atoms: C_12  and  O_41
REMARK    5  A    between atoms: C_14  and  O_18
REMARK    6  A    between atoms: O_18  and  C_19
REMARK    7  A    between atoms: C_21  and  O_40
REMARK    8  A    between atoms: C_23  and  O_39
REMARK    9  A    between atoms: C_25  and  O_38
REMARK   10  A    between atoms: C_27  and  C_30
REMARK   11  A    between atoms: C_30  and  O_31
REMARK   12  A    between atoms: O_31  and  C_32
REMARK   13  A    between atoms: C_32  and  C_34
REMARK   14  A    between atoms: C_34  and  C_35
REMARK                            x       y       z     vdW  Elec       q    Type
REMARK                         _______ _______ _______ _____ _____    ______ ____
ROOT
ATOM      1  C   UNL     1      -2.019  -2.985  -2.057  0.00  0.00    +0.132 A 
ATOM      2  O   UNL     1      -1.147  -4.075  -1.881  0.00  0.00    -0.455 OA
ATOM      3  C   UNL     1      -1.545  -5.141  -1.107  0.00  0.00    +0.146 A 
ATOM      4  C   UNL     1      -2.715  -5.085  -0.365  0.00  0.00    +0.105 A 
ATOM      5  C   UNL     1      -3.044  -6.132   0.500  0.00  0.00    +0.135 A 
ATOM      6  C   UNL     1      -2.237  -7.250   0.596  0.00  0.00    +0.092 A 
ATOM      7  C   UNL     1      -1.147  -7.413  -0.265  0.00  0.00    +0.131 A 
ATOM      8  C   UNL     1      -3.619  -3.951  -0.523  0.00  0.00    +0.189 A 
ATOM      9  O   UNL     1      -4.629  -3.941   0.188  0.00  0.00    -0.288 OA
ATOM     10  C   UNL     1      -0.762  -6.319  -1.067  0.00  0.00    +0.093 A 
ATOM     11  C   UNL     1      -3.278  -2.883  -1.534  0.00  0.00    -0.015 A 
ATOM     12  O   UNL     1      -4.201  -2.027  -1.715  0.00  0.00    -0.869 OA
ENDROOT
BRANCH   1  14
ATOM     13  C   UNL     1      -1.867  -0.554  -2.808  0.00  0.00    +0.015 A 
ATOM     14  C   UNL     1      -1.472  -1.906  -2.964  0.00  0.00    +0.020 A 
ATOM     15  C   UNL     1      -0.578  -2.189  -4.007  0.00  0.00    +0.060 A 
ATOM     16  C   UNL     1      -0.198  -1.178  -4.894  0.00  0.00    +0.159 A 
ATOM     17  C   UNL     1      -0.687   0.122  -4.770  0.00  0.00    +0.158 A 
ATOM     18  C   UNL     1      -1.513   0.450  -3.713  0.00  0.00    +0.050 A 
BRANCH  16  19
ATOM     19  O   UNL     1       0.647  -1.467  -5.932  0.00  0.00    -0.503 OA
ATOM     20  H   UNL     1       0.714  -0.619  -6.415  0.00  0.00    +0.292 HD
ENDBRANCH  16  19
BRANCH  17  21
ATOM     21  O   UNL     1      -0.338   1.047  -5.717  0.00  0.00    -0.503 OA
ATOM     22  H   UNL     1      -0.897   1.829  -5.558  0.00  0.00    +0.292 HD
ENDBRANCH  17  21
ENDBRANCH   1  14
BRANCH   5  23
ATOM     23  O   UNL     1      -4.190  -6.153   1.257  0.00  0.00    -0.506 OA
ATOM     24  H   UNL     1      -4.690  -5.334   1.017  0.00  0.00    +0.292 HD
ENDBRANCH   5  23
BRANCH   7  25
ATOM     25  O   UNL     1      -0.465  -8.619  -0.391  0.00  0.00    -0.461 OA
BRANCH  25  26
ATOM     26  C   UNL     1      -1.251  -9.779   0.004  0.00  0.00    +0.339 C 
ATOM     27  O   UNL     1      -1.055 -10.107   1.381  0.00  0.00    -0.330 OA
ATOM     28  C   UNL     1      -0.261 -11.245   1.718  0.00  0.00    +0.191 C 
ATOM     29  C   UNL     1      -0.607 -12.467   0.861  0.00  0.00    +0.178 C 
ATOM     30  C   UNL     1      -0.468 -12.193  -0.638  0.00  0.00    +0.180 C 
ATOM     31  C   UNL     1      -1.252 -10.940  -1.033  0.00  0.00    +0.214 C 
BRANCH  29  32
ATOM     32  O   UNL     1      -2.000 -12.798   1.107  0.00  0.00    -0.386 OA
ATOM     33  H   UNL     1      -2.072 -13.752   0.907  0.00  0.00    +0.210 HD
ENDBRANCH  29  32
BRANCH  30  34
ATOM     34  O   UNL     1       0.856 -12.195  -1.149  0.00  0.00    -0.386 OA
ATOM     35  H   UNL     1       1.357 -11.410  -0.881  0.00  0.00    +0.210 HD
ENDBRANCH  30  34
BRANCH  31  36
ATOM     36  O   UNL     1      -2.636 -11.377  -1.190  0.00  0.00    -0.383 OA
ATOM     37  H   UNL     1      -2.904 -11.708  -0.303  0.00  0.00    +0.210 HD
ENDBRANCH  31  36
BRANCH  28  38
ATOM     38  C   UNL     1       1.232 -10.908   1.796  0.00  0.00    +0.266 C 
BRANCH  38  39
ATOM     39  O   UNL     1       1.957 -12.042   2.304  0.00  0.00    -0.462 OA
BRANCH  39  40
ATOM     40  C   UNL     1       2.907 -12.592   1.499  0.00  0.00    +0.313 C 
ATOM     41  O   UNL     1       3.286 -12.083   0.447  0.00  0.00    -0.250 OA
BRANCH  40  42
ATOM     42  C   UNL     1       3.566 -13.774   2.128  0.00  0.00    +0.172 C 
BRANCH  42  43
ATOM     43  C   UNL     1       2.587 -14.864   2.485  0.00  0.00    +0.052 C 
ATOM     44  O   UNL     1       2.903 -15.535   3.512  0.00  0.00    -0.549 OA
ATOM     45  O   UNL     1       1.605 -15.031   1.712  0.00  0.00    -0.549 OA
ENDBRANCH  42  43
ENDBRANCH  40  42
ENDBRANCH  39  40
ENDBRANCH  38  39
ENDBRANCH  28  38
ENDBRANCH  25  26
ENDBRANCH   7  25
TORSDOF 14
