REMARK  Name = 
REMARK  12 active torsions:
REMARK  status: ('A' for Active; 'I' for Inactive)
REMARK    1  A    between atoms: C_2  and  O_41
REMARK    2  A    between atoms: C_4  and  O_40
REMARK    3  A    between atoms: C_6  and  O_33
REMARK    4  A    between atoms: C_8  and  O_11
REMARK    5  A    between atoms: O_11  and  C_12
REMARK    6  A    between atoms: C_13  and  C_25
REMARK    7  A    between atoms: C_17  and  O_24
REMARK    8  A    between atoms: C_19  and  O_23
REMARK    9  A    between atoms: C_27  and  O_32
REMARK   10  A    between atoms: O_33  and  C_34
REMARK   11  A    between atoms: C_34  and  C_36
REMARK   12  A    between atoms: C_36  and  C_37
REMARK                            x       y       z     vdW  Elec       q    Type
REMARK                         _______ _______ _______ _____ _____    ______ ____
ROOT
ATOM      1  C   UNL     1       2.636  -2.574  -0.054  0.00  0.00    +0.214 A 
ATOM      2  C   UNL     1       3.619  -1.462  -0.296  0.00  0.00    +0.238 A 
ATOM      3  O   UNL     1       3.315  -0.278  -0.205  0.00  0.00    -0.283 OA
ATOM      4  C   UNL     1       5.004  -1.835  -0.634  0.00  0.00    +0.109 A 
ATOM      5  C   UNL     1       5.300  -3.187  -0.769  0.00  0.00    +0.147 A 
ATOM      6  C   UNL     1       6.605  -3.592  -1.076  0.00  0.00    +0.092 A 
ATOM      7  C   UNL     1       7.601  -2.635  -1.248  0.00  0.00    +0.124 A 
ATOM      8  C   UNL     1       7.322  -1.283  -1.117  0.00  0.00    +0.091 A 
ATOM      9  O   UNL     1       4.366  -4.178  -0.607  0.00  0.00    -0.451 OA
ATOM     10  C   UNL     1       6.024  -0.884  -0.804  0.00  0.00    +0.135 A 
ATOM     11  C   UNL     1       3.071  -3.847  -0.217  0.00  0.00    +0.181 A 
ENDROOT
BRANCH  11  12
ATOM     12  C   UNL     1       2.222  -5.057   0.035  0.00  0.00    +0.024 A 
ATOM     13  C   UNL     1       2.791  -6.235   0.531  0.00  0.00    +0.011 A 
ATOM     14  C   UNL     1       2.003  -7.376   0.780  0.00  0.00    -0.004 A 
ATOM     15  C   UNL     1       0.614  -7.439   0.568  0.00  0.00    -0.066 A 
ATOM     16  O   UNL     1      -0.045  -8.503   0.839  0.00  0.00    -0.871 OA
ATOM     17  C   UNL     1       0.069  -6.240   0.045  0.00  0.00    +0.110 A 
ATOM     18  C   UNL     1       0.850  -5.098  -0.230  0.00  0.00    +0.056 A 
BRANCH  17  19
ATOM     19  O   UNL     1      -1.287  -6.161  -0.204  0.00  0.00    -0.507 OA
ATOM     20  H   UNL     1      -1.520  -5.253  -0.456  0.00  0.00    +0.292 HD
ENDBRANCH  17  19
ENDBRANCH  11  12
BRANCH   7  21
ATOM     21  O   UNL     1       8.889  -2.980  -1.543  0.00  0.00    -0.507 OA
ATOM     22  H   UNL     1       8.934  -3.945  -1.638  0.00  0.00    +0.292 HD
ENDBRANCH   7  21
BRANCH  10  23
ATOM     23  O   UNL     1       5.786   0.453  -0.648  0.00  0.00    -0.506 OA
ATOM     24  H   UNL     1       6.526   0.972  -0.996  0.00  0.00    +0.292 HD
ENDBRANCH  10  23
BRANCH   1  25
ATOM     25  O   UNL     1       1.353  -2.306   0.399  0.00  0.00    -0.452 OA
BRANCH  25  28
ATOM     26  C   UNL     1       0.090   1.037   0.834  0.00  0.00    +0.198 C 
ATOM     27  O   UNL     1       0.606  -0.242   1.169  0.00  0.00    -0.336 OA
ATOM     28  C   UNL     1       0.725  -1.079   0.006  0.00  0.00    +0.352 C 
ATOM     29  C   UNL     1      -0.663  -1.376  -0.590  0.00  0.00    +0.275 C 
ATOM     30  C   UNL     1      -1.350  -0.035  -0.912  0.00  0.00    +0.192 C 
ATOM     31  C   UNL     1      -1.323   0.920   0.280  0.00  0.00    +0.172 C 
BRANCH  30  32
ATOM     32  O   UNL     1      -2.727  -0.226  -1.273  0.00  0.00    -0.385 OA
ATOM     33  H   UNL     1      -2.941   0.534  -1.845  0.00  0.00    +0.210 HD
ENDBRANCH  30  32
BRANCH  31  34
ATOM     34  O   UNL     1      -1.809   2.210  -0.117  0.00  0.00    -0.387 OA
ATOM     35  H   UNL     1      -2.046   2.681   0.699  0.00  0.00    +0.210 HD
ENDBRANCH  31  34
BRANCH  29  36
ATOM     36  O   UNL     1      -0.456  -2.080  -1.835  0.00  0.00    -0.452 OA
BRANCH  36  37
ATOM     37  C   UNL     1      -1.495  -2.825  -2.289  0.00  0.00    +0.313 C 
ATOM     38  O   UNL     1      -2.352  -3.314  -1.557  0.00  0.00    -0.250 OA
BRANCH  37  39
ATOM     39  C   UNL     1      -1.374  -3.125  -3.743  0.00  0.00    +0.172 C 
BRANCH  39  40
ATOM     40  C   UNL     1      -1.469  -1.884  -4.605  0.00  0.00    +0.052 C 
ATOM     41  O   UNL     1      -2.079  -2.056  -5.704  0.00  0.00    -0.549 OA
ATOM     42  O   UNL     1      -0.905  -0.830  -4.201  0.00  0.00    -0.549 OA
ENDBRANCH  39  40
ENDBRANCH  37  39
ENDBRANCH  36  37
ENDBRANCH  29  36
ENDBRANCH  25  28
ENDBRANCH   1  25
TORSDOF 12
