REMARK  Name = 
REMARK  6 active torsions:
REMARK  status: ('A' for Active; 'I' for Inactive)
REMARK    1  A    between atoms: C_3  and  O_22
REMARK    2  A    between atoms: C_4  and  O_21
REMARK    3  A    between atoms: C_6  and  C_7
REMARK    4  A    between atoms: C_8  and  O_20
REMARK    5  A    between atoms: C_12  and  O_19
REMARK    6  A    between atoms: C_14  and  O_18
REMARK                            x       y       z     vdW  Elec       q    Type
REMARK                         _______ _______ _______ _____ _____    ______ ____
ROOT
ATOM      1  C   UNL     1      -1.826  -2.392  -0.322  0.00  0.00    +0.177 A 
ATOM      2  O   UNL     1      -1.115  -3.477  -0.652  0.00  0.00    -0.487 OA
ATOM      3  C   UNL     1      -1.681  -4.700  -0.634  0.00  0.00    -0.037 A 
ATOM      4  C   UNL     1      -2.653  -4.974   0.341  0.00  0.00    +0.037 A 
ATOM      5  C   UNL     1      -3.075  -6.269   0.353  0.00  0.00    -0.049 C 
ATOM      6  C   UNL     1      -4.030  -6.446  -0.735  0.00  0.00    -0.425 C 
ATOM      7  C   UNL     1      -3.587  -5.865  -1.891  0.00  0.00    -0.238 C 
ATOM      8  C   UNL     1      -3.581  -3.894   0.390  0.00  0.00    +0.232 A 
ATOM      9  O   UNL     1      -4.733  -4.080   0.750  0.00  0.00    -0.283 OA
ATOM     10  C   UNL     1      -2.219  -5.104  -1.866  0.00  0.00    -0.424 C 
ATOM     11  C   UNL     1      -3.200  -2.614  -0.024  0.00  0.00    +0.208 A 
ENDROOT
BRANCH   1  13
ATOM     12  C   UNL     1       0.229  -0.880  -0.067  0.00  0.00    +0.015 A 
ATOM     13  C   UNL     1      -1.182  -1.016  -0.168  0.00  0.00    +0.025 A 
ATOM     14  C   UNL     1      -1.932   0.159   0.062  0.00  0.00    +0.060 A 
ATOM     15  C   UNL     1      -1.358   1.392   0.336  0.00  0.00    +0.159 A 
ATOM     16  C   UNL     1       0.026   1.506   0.441  0.00  0.00    +0.158 A 
ATOM     17  C   UNL     1       0.818   0.367   0.251  0.00  0.00    +0.050 A 
BRANCH  15  18
ATOM     18  O   UNL     1      -2.176   2.448   0.534  0.00  0.00    -0.503 OA
ATOM     19  H   UNL     1      -1.860   3.335   0.748  0.00  0.00    +0.292 HD
ENDBRANCH  15  18
BRANCH  16  20
ATOM     20  O   UNL     1       0.567   2.707   0.747  0.00  0.00    -0.503 OA
ATOM     21  H   UNL     1       1.517   2.843   0.860  0.00  0.00    +0.292 HD
ENDBRANCH  16  20
ENDBRANCH   1  13
BRANCH   5  22
ATOM     22  O   UNL     1      -2.186  -7.292   0.344  0.00  0.00    -0.542 OA
ATOM     23  H   UNL     1      -1.245  -7.186   0.548  0.00  0.00    +0.288 HD
ENDBRANCH   5  22
BRANCH   7  24
ATOM     24  O   UNL     1      -4.436  -5.762  -2.937  0.00  0.00    -0.577 OA
ATOM     25  H   UNL     1      -5.379  -5.978  -2.821  0.00  0.00    +0.284 HD
ENDBRANCH   7  24
BRANCH  11  26
ATOM     26  O   UNL     1      -4.145  -1.674  -0.141  0.00  0.00    -0.501 OA
ATOM     27  H   UNL     1      -4.116  -1.106  -0.932  0.00  0.00    +0.292 HD
ENDBRANCH  11  26
TORSDOF 6
REMARK  Name = 
REMARK  6 active torsions:
REMARK  status: ('A' for Active; 'I' for Inactive)
REMARK    1  A    between atoms: C_3  and  O_22
REMARK    2  A    between atoms: C_4  and  O_21
REMARK    3  A    between atoms: C_6  and  C_7
REMARK    4  A    between atoms: C_8  and  O_20
REMARK    5  A    between atoms: C_12  and  O_19
REMARK    6  A    between atoms: C_14  and  O_18
REMARK                            x       y       z     vdW  Elec       q    Type
REMARK                         _______ _______ _______ _____ _____    ______ ____
ROOT
ATOM      1  O   UNL     1       3.305  -1.051  -1.179  0.00  0.00    +0.000 OA
ATOM      2  V   UNL     1       4.055  -0.156   0.135  0.00  0.00    +0.000 V 
ENDROOT
TORSDOF 0
