REMARK  Name = 
REMARK  6 active torsions:
REMARK  status: ('A' for Active; 'I' for Inactive)
REMARK    1  A    between atoms: C_3  and  O_28
REMARK    2  A    between atoms: C_4  and  O_27
REMARK    3  A    between atoms: C_6  and  C_7
REMARK    4  A    between atoms: C_8  and  O_26
REMARK    5  A    between atoms: C_9  and  O_25
REMARK    6  A    between atoms: C_11  and  O_24
REMARK                            x       y       z     vdW  Elec       q    Type
REMARK                         _______ _______ _______ _____ _____    ______ ____
ROOT
ATOM      1  C   UNL     1      -1.454  -2.439  -0.157  0.00  0.00    +0.181 A 
ATOM      2  O   UNL     1      -0.589  -3.504   0.154  0.00  0.00    -0.447 OA
ATOM      3  C   UNL     1      -0.846  -4.712  -0.467  0.00  0.00    +0.189 A 
ATOM      4  C   UNL     1      -2.276  -5.084  -0.652  0.00  0.00    +0.111 A 
ATOM      5  C   UNL     1      -2.608  -6.531  -0.531  0.00  0.00    +0.178 A 
ATOM      6  C   UNL     1      -1.570  -7.391  -0.614  0.00  0.00    +0.224 A 
ATOM      7  O   UNL     1      -1.156  -8.145   0.515  0.00  0.00    -0.410 OA
ATOM      8  C   UNL     1       0.204  -8.275   0.481  0.00  0.00    +0.423 A 
ATOM      9  O   UNL     1       0.792  -9.230  -0.001  0.00  0.00    -0.237 OA
ATOM     10  C   UNL     1       0.999  -7.044   1.054  0.00  0.00    +0.423 A 
ATOM     11  O   UNL     1       1.594  -7.159   2.117  0.00  0.00    -0.237 OA
ATOM     12  O   UNL     1       1.099  -5.911   0.286  0.00  0.00    -0.410 OA
ATOM     13  C   UNL     1      -0.491  -6.782  -1.421  0.00  0.00    +0.270 A 
ATOM     14  O   UNL     1      -0.114  -7.151  -2.513  0.00  0.00    -0.280 OA
ATOM     15  C   UNL     1      -3.166  -4.078  -0.667  0.00  0.00    +0.177 A 
ATOM     16  C   UNL     1       0.085  -5.666  -0.657  0.00  0.00    +0.225 A 
ATOM     17  C   UNL     1      -2.712  -2.700  -0.589  0.00  0.00    +0.203 A 
ENDROOT
BRANCH   1  19
ATOM     18  C   UNL     1       0.579  -0.982  -0.181  0.00  0.00    +0.015 A 
ATOM     19  C   UNL     1      -0.814  -1.113   0.009  0.00  0.00    +0.025 A 
ATOM     20  C   UNL     1      -1.534   0.027   0.393  0.00  0.00    +0.060 A 
ATOM     21  C   UNL     1      -0.881   1.246   0.540  0.00  0.00    +0.159 A 
ATOM     22  C   UNL     1       0.494   1.355   0.361  0.00  0.00    +0.158 A 
ATOM     23  C   UNL     1       1.236   0.244  -0.000  0.00  0.00    +0.050 A 
BRANCH  21  24
ATOM     24  O   UNL     1      -1.613   2.348   0.879  0.00  0.00    -0.503 OA
ATOM     25  H   UNL     1      -0.957   3.073   0.932  0.00  0.00    +0.292 HD
ENDBRANCH  21  24
BRANCH  22  26
ATOM     26  O   UNL     1       1.068   2.577   0.570  0.00  0.00    -0.503 OA
ATOM     27  H   UNL     1       2.035   2.466   0.551  0.00  0.00    +0.292 HD
ENDBRANCH  22  26
ENDBRANCH   1  19
BRANCH   5  28
ATOM     28  O   UNL     1      -3.792  -6.844   0.097  0.00  0.00    -0.503 OA
ATOM     29  H   UNL     1      -4.440  -6.157  -0.175  0.00  0.00    +0.292 HD
ENDBRANCH   5  28
BRANCH  15  30
ATOM     30  O   UNL     1      -4.530  -4.277  -0.725  0.00  0.00    -0.503 OA
ATOM     31  H   UNL     1      -4.912  -3.374  -0.790  0.00  0.00    +0.292 HD
ENDBRANCH  15  30
BRANCH  17  32
ATOM     32  O   UNL     1      -3.660  -1.794  -0.999  0.00  0.00    -0.501 OA
ATOM     33  H   UNL     1      -3.206  -0.961  -1.222  0.00  0.00    +0.292 HD
ENDBRANCH  17  32
TORSDOF 6
