REMARK  Name = 
REMARK  6 active torsions:
REMARK  status: ('A' for Active; 'I' for Inactive)
REMARK    1  A    between atoms: C_3  and  O_23
REMARK    2  A    between atoms: C_4  and  O_22
REMARK    3  A    between atoms: C_6  and  C_7
REMARK    4  A    between atoms: C_8  and  O_21
REMARK    5  A    between atoms: C_9  and  O_20
REMARK    6  A    between atoms: C_13  and  O_18
REMARK                            x       y       z     vdW  Elec       q    Type
REMARK                         _______ _______ _______ _____ _____    ______ ____
ROOT
ATOM      1  C   UNL     1      -1.377  -2.507  -0.299  0.00  0.00    +0.181 A 
ATOM      2  O   UNL     1      -0.552  -3.615  -0.043  0.00  0.00    -0.447 OA
ATOM      3  C   UNL     1      -1.036  -4.893  -0.283  0.00  0.00    +0.189 A 
ATOM      4  C   UNL     1      -0.414  -6.041   0.154  0.00  0.00    +0.217 A 
ATOM      5  O   UNL     1      -0.929  -6.784   1.104  0.00  0.00    -0.441 OA
ATOM      6  C   UNL     1      -1.727  -7.299   0.210  0.00  0.00    +0.221 A 
ATOM      7  C   UNL     1      -2.945  -6.511  -0.391  0.00  0.00    +0.239 A 
ATOM      8  O   UNL     1      -4.039  -6.952  -0.694  0.00  0.00    -0.283 OA
ATOM      9  C   UNL     1      -0.635  -7.323  -0.603  0.00  0.00    +0.210 A 
ATOM     10  C   UNL     1      -2.483  -5.067  -0.515  0.00  0.00    +0.117 A 
ATOM     11  C   UNL     1      -3.260  -3.996  -0.706  0.00  0.00    +0.177 A 
ATOM     12  C   UNL     1      -2.672  -2.669  -0.665  0.00  0.00    +0.203 A 
ENDROOT
BRANCH   1  14
ATOM     13  C   UNL     1      -1.343  -0.056   0.347  0.00  0.00    +0.015 A 
ATOM     14  C   UNL     1      -0.684  -1.203  -0.141  0.00  0.00    +0.025 A 
ATOM     15  C   UNL     1       0.676  -1.091  -0.471  0.00  0.00    +0.060 A 
ATOM     16  C   UNL     1       1.310   0.145  -0.407  0.00  0.00    +0.159 A 
ATOM     17  C   UNL     1       0.619   1.286  -0.013  0.00  0.00    +0.158 A 
ATOM     18  C   UNL     1      -0.705   1.192   0.388  0.00  0.00    +0.050 A 
BRANCH  16  19
ATOM     19  O   UNL     1       2.626   0.236  -0.759  0.00  0.00    -0.503 OA
ATOM     20  H   UNL     1       2.849   1.182  -0.649  0.00  0.00    +0.292 HD
ENDBRANCH  16  19
BRANCH  17  21
ATOM     21  O   UNL     1       1.287   2.477  -0.039  0.00  0.00    -0.503 OA
ATOM     22  H   UNL     1       0.650   3.190   0.139  0.00  0.00    +0.292 HD
ENDBRANCH  17  21
ENDBRANCH   1  14
BRANCH   9  23
ATOM     23  O   UNL     1       0.312  -8.155  -0.855  0.00  0.00    -0.501 OA
ATOM     24  H   UNL     1       0.452  -8.706  -0.063  0.00  0.00    +0.292 HD
ENDBRANCH   9  23
BRANCH  11  25
ATOM     25  O   UNL     1      -4.621  -4.048  -0.875  0.00  0.00    -0.503 OA
ATOM     26  H   UNL     1      -4.917  -3.120  -0.962  0.00  0.00    +0.292 HD
ENDBRANCH  11  25
BRANCH  12  27
ATOM     27  O   UNL     1      -3.562  -1.673  -1.010  0.00  0.00    -0.501 OA
ATOM     28  H   UNL     1      -3.047  -0.884  -1.255  0.00  0.00    +0.292 HD
ENDBRANCH  12  27
TORSDOF 6
