REMARK  Name = 
REMARK  7 active torsions:
REMARK  status: ('A' for Active; 'I' for Inactive)
REMARK    1  A    between atoms: C_2  and  O_26
REMARK    2  A    between atoms: C_6  and  O_7
REMARK    3  A    between atoms: C_10  and  O_25
REMARK    4  A    between atoms: C_11  and  C_13
REMARK    5  A    between atoms: C_15  and  O_24
REMARK    6  A    between atoms: C_16  and  O_23
REMARK    7  A    between atoms: C_18  and  S_19
REMARK                            x       y       z     vdW  Elec       q    Type
REMARK                         _______ _______ _______ _____ _____    ______ ____
ROOT
ATOM      1  C   UNL     1       2.385  -0.733  -0.176  0.00  0.00    +0.091 A 
ATOM      2  C   UNL     1       1.228  -1.506  -0.224  0.00  0.00    +0.135 A 
ATOM      3  C   UNL     1      -0.024  -0.888  -0.319  0.00  0.00    +0.109 A 
ATOM      4  C   UNL     1      -1.266  -1.647  -0.247  0.00  0.00    +0.238 A 
ATOM      5  C   UNL     1      -2.527  -0.884  -0.081  0.00  0.00    +0.208 A 
ATOM      6  C   UNL     1      -2.492   0.460  -0.213  0.00  0.00    +0.183 A 
ATOM      7  O   UNL     1      -1.318   1.144  -0.517  0.00  0.00    -0.451 OA
ATOM      8  O   UNL     1      -1.273  -2.875  -0.244  0.00  0.00    -0.283 OA
ATOM      9  C   UNL     1      -0.118   0.493  -0.414  0.00  0.00    +0.147 A 
ATOM     10  C   UNL     1       1.036   1.274  -0.376  0.00  0.00    +0.092 A 
ATOM     11  C   UNL     1       2.275   0.654  -0.234  0.00  0.00    +0.124 A 
ENDROOT
BRANCH   6  12
ATOM     12  C   UNL     1      -3.694   1.352  -0.149  0.00  0.00    +0.049 A 
ATOM     13  C   UNL     1      -3.703   2.697   0.307  0.00  0.00    +0.091 A 
ATOM     14  C   UNL     1      -4.859   3.499   0.199  0.00  0.00    +0.075 A 
ATOM     15  C   UNL     1      -6.013   2.971  -0.349  0.00  0.00    +0.160 A 
ATOM     16  C   UNL     1      -6.045   1.653  -0.773  0.00  0.00    +0.159 A 
ATOM     17  C   UNL     1      -4.904   0.859  -0.688  0.00  0.00    +0.062 A 
BRANCH  13  18
ATOM     18  S   UNL     1      -2.300   3.465   1.148  0.00  0.00    -0.050 S 
ATOM     19  O   UNL     1      -2.880   4.469   2.027  0.00  0.00    -0.720 OA
ATOM     20  O   UNL     1      -1.460   3.965   0.073  0.00  0.00    -0.180 OA
ATOM     21  O   UNL     1      -1.667   2.370   1.912  0.00  0.00    -0.180 OA
ENDBRANCH  13  18
BRANCH  15  22
ATOM     22  O   UNL     1      -7.124   3.750  -0.479  0.00  0.00    -0.503 OA
ATOM     23  H   UNL     1      -7.785   3.171  -0.908  0.00  0.00    +0.292 HD
ENDBRANCH  15  22
BRANCH  16  24
ATOM     24  O   UNL     1      -7.217   1.174  -1.290  0.00  0.00    -0.503 OA
ATOM     25  H   UNL     1      -7.097   0.229  -1.489  0.00  0.00    +0.292 HD
ENDBRANCH  16  24
ENDBRANCH   6  12
BRANCH   2  26
ATOM     26  O   UNL     1       1.387  -2.861  -0.138  0.00  0.00    -0.506 OA
ATOM     27  H   UNL     1       0.506  -3.290  -0.231  0.00  0.00    +0.292 HD
ENDBRANCH   2  26
BRANCH   5  28
ATOM     28  O   UNL     1      -3.658  -1.634   0.180  0.00  0.00    -0.501 OA
ATOM     29  H   UNL     1      -3.370  -2.570   0.124  0.00  0.00    +0.292 HD
ENDBRANCH   5  28
BRANCH  11  30
ATOM     30  O   UNL     1       3.371   1.453  -0.118  0.00  0.00    -0.507 OA
ATOM     31  H   UNL     1       4.169   0.926  -0.304  0.00  0.00    +0.292 HD
ENDBRANCH  11  30
TORSDOF 7
REMARK  Name = 
REMARK  7 active torsions:
REMARK  status: ('A' for Active; 'I' for Inactive)
REMARK    1  A    between atoms: C_2  and  O_26
REMARK    2  A    between atoms: C_6  and  O_7
REMARK    3  A    between atoms: C_10  and  O_25
REMARK    4  A    between atoms: C_11  and  C_13
REMARK    5  A    between atoms: C_15  and  O_24
REMARK    6  A    between atoms: C_16  and  O_23
REMARK    7  A    between atoms: C_18  and  S_19
REMARK                            x       y       z     vdW  Elec       q    Type
REMARK                         _______ _______ _______ _____ _____    ______ ____
ROOT
ATOM      1 NA   UNL     1       0.228   2.013   2.460  0.00  0.00    +0.000 Na
ENDROOT
TORSDOF 0
