REMARK  Name = 
REMARK  24 active torsions:
REMARK  status: ('A' for Active; 'I' for Inactive)
REMARK    1  A    between atoms: C_3  and  O_55
REMARK    2  A    between atoms: C_4  and  O_54
REMARK    3  A    between atoms: C_6  and  C_7
REMARK    4  A    between atoms: C_8  and  O_42
REMARK    5  A    between atoms: C_12  and  O_41
REMARK    6  A    between atoms: C_14  and  O_18
REMARK    7  A    between atoms: O_18  and  C_19
REMARK    8  A    between atoms: C_20  and  O_40
REMARK    9  A    between atoms: C_21  and  O_39
REMARK   10  A    between atoms: C_22  and  O_38
REMARK   11  A    between atoms: C_23  and  C_25
REMARK   12  A    between atoms: C_25  and  O_26
REMARK   13  A    between atoms: O_26  and  C_27
REMARK   14  A    between atoms: C_28  and  O_37
REMARK   15  A    between atoms: C_29  and  O_36
REMARK   16  A    between atoms: C_30  and  O_35
REMARK   17  A    between atoms: C_31  and  C_33
REMARK   18  A    between atoms: C_33  and  O_34
REMARK   19  A    between atoms: O_42  and  C_43
REMARK   20  A    between atoms: C_44  and  O_53
REMARK   21  A    between atoms: C_45  and  O_52
REMARK   22  A    between atoms: C_46  and  O_51
REMARK   23  A    between atoms: C_47  and  C_49
REMARK   24  A    between atoms: C_49  and  O_50
REMARK                            x       y       z     vdW  Elec       q    Type
REMARK                         _______ _______ _______ _____ _____    ______ ____
ROOT
ATOM      1  C   UNL     1      -1.235  -2.686   0.274  0.00  0.00    +0.181 A 
ATOM      2  O   UNL     1      -0.592  -3.884   0.467  0.00  0.00    -0.451 OA
ATOM      3  C   UNL     1      -1.215  -5.064   0.157  0.00  0.00    +0.147 A 
ATOM      4  C   UNL     1      -2.538  -5.146  -0.247  0.00  0.00    +0.109 A 
ATOM      5  C   UNL     1      -3.084  -6.414  -0.504  0.00  0.00    +0.135 A 
ATOM      6  C   UNL     1      -2.279  -7.569  -0.468  0.00  0.00    +0.092 A 
ATOM      7  C   UNL     1      -0.919  -7.466  -0.162  0.00  0.00    +0.131 A 
ATOM      8  C   UNL     1      -3.263  -3.870  -0.413  0.00  0.00    +0.238 A 
ATOM      9  O   UNL     1      -4.436  -3.861  -0.776  0.00  0.00    -0.283 OA
ATOM     10  C   UNL     1      -0.424  -6.217   0.229  0.00  0.00    +0.093 A 
ATOM     11  C   UNL     1      -2.512  -2.584  -0.181  0.00  0.00    +0.214 A 
ENDROOT
BRANCH   1  13
ATOM     12  C   UNL     1      -0.787  -0.224   0.678  0.00  0.00    +0.015 A 
ATOM     13  C   UNL     1      -0.327  -1.531   0.490  0.00  0.00    +0.025 A 
ATOM     14  C   UNL     1       1.062  -1.712   0.379  0.00  0.00    +0.060 A 
ATOM     15  C   UNL     1       1.892  -0.609   0.237  0.00  0.00    +0.159 A 
ATOM     16  C   UNL     1       1.369   0.676   0.191  0.00  0.00    +0.158 A 
ATOM     17  C   UNL     1       0.032   0.885   0.461  0.00  0.00    +0.050 A 
BRANCH  16  18
ATOM     18  O   UNL     1       2.201   1.704  -0.144  0.00  0.00    -0.503 OA
ATOM     19  H   UNL     1       1.647   2.429  -0.488  0.00  0.00    +0.292 HD
ENDBRANCH  16  18
BRANCH  15  20
ATOM     20  O   UNL     1       3.233  -0.803   0.081  0.00  0.00    -0.503 OA
ATOM     21  H   UNL     1       3.601   0.101   0.010  0.00  0.00    +0.292 HD
ENDBRANCH  15  20
ENDBRANCH   1  13
BRANCH   5  22
ATOM     22  O   UNL     1      -4.401  -6.604  -0.827  0.00  0.00    -0.506 OA
ATOM     23  H   UNL     1      -4.858  -5.737  -0.832  0.00  0.00    +0.292 HD
ENDBRANCH   5  22
BRANCH  11  24
ATOM     24  O   UNL     1      -3.183  -1.377  -0.199  0.00  0.00    -0.453 OA
BRANCH  24  25
ATOM     25  C   UNL     1      -3.509  -0.712  -1.436  0.00  0.00    +0.340 C 
ATOM     26  O   UNL     1      -2.963   0.628  -1.493  0.00  0.00    -0.331 OA
ATOM     27  C   UNL     1      -3.517   1.638  -0.608  0.00  0.00    +0.179 C 
ATOM     28  C   UNL     1      -4.959   1.443  -0.084  0.00  0.00    +0.177 C 
ATOM     29  C   UNL     1      -5.505   0.013  -0.202  0.00  0.00    +0.180 C 
ATOM     30  C   UNL     1      -5.034  -0.574  -1.545  0.00  0.00    +0.214 C 
BRANCH  30  31
ATOM     31  O   UNL     1      -5.688  -1.783  -1.906  0.00  0.00    -0.383 OA
ATOM     32  H   UNL     1      -5.246  -2.545  -1.478  0.00  0.00    +0.210 HD
ENDBRANCH  30  31
BRANCH  29  33
ATOM     33  O   UNL     1      -6.933   0.052  -0.118  0.00  0.00    -0.386 OA
ATOM     34  H   UNL     1      -7.171   0.728   0.543  0.00  0.00    +0.210 HD
ENDBRANCH  29  33
BRANCH  28  35
ATOM     35  O   UNL     1      -5.875   2.344  -0.734  0.00  0.00    -0.386 OA
ATOM     36  H   UNL     1      -6.440   1.821  -1.338  0.00  0.00    +0.210 HD
ENDBRANCH  28  35
BRANCH  27  37
ATOM     37  C   UNL     1      -3.357   3.001  -1.323  0.00  0.00    +0.190 C 
BRANCH  37  38
ATOM     38  O   UNL     1      -1.986   3.220  -1.667  0.00  0.00    -0.392 OA
ATOM     39  H   UNL     1      -1.646   2.350  -1.948  0.00  0.00    +0.210 HD
ENDBRANCH  37  38
ENDBRANCH  27  37
ENDBRANCH  24  25
ENDBRANCH  11  24
BRANCH   7  40
ATOM     40  O   UNL     1      -0.132  -8.595  -0.317  0.00  0.00    -0.461 OA
BRANCH  40  41
ATOM     41  C   UNL     1       1.269  -8.299  -0.528  0.00  0.00    +0.339 C 
ATOM     42  O   UNL     1       1.447  -7.432  -1.673  0.00  0.00    -0.331 OA
ATOM     43  C   UNL     1       1.227  -8.153  -2.901  0.00  0.00    +0.179 C 
ATOM     44  C   UNL     1       2.461  -9.027  -3.081  0.00  0.00    +0.177 C 
ATOM     45  C   UNL     1       2.420 -10.112  -2.010  0.00  0.00    +0.180 C 
ATOM     46  C   UNL     1       2.220  -9.531  -0.599  0.00  0.00    +0.214 C 
BRANCH  46  47
ATOM     47  O   UNL     1       1.848 -10.546   0.340  0.00  0.00    -0.383 OA
ATOM     48  H   UNL     1       2.063 -11.409  -0.061  0.00  0.00    +0.210 HD
ENDBRANCH  46  47
BRANCH  45  49
ATOM     49  O   UNL     1       3.665 -10.833  -2.041  0.00  0.00    -0.386 OA
ATOM     50  H   UNL     1       4.347 -10.164  -2.271  0.00  0.00    +0.210 HD
ENDBRANCH  45  49
BRANCH  44  51
ATOM     51  O   UNL     1       3.659  -8.243  -2.878  0.00  0.00    -0.386 OA
ATOM     52  H   UNL     1       3.399  -7.445  -2.370  0.00  0.00    +0.210 HD
ENDBRANCH  44  51
BRANCH  43  53
ATOM     53  C   UNL     1       1.054  -7.189  -4.079  0.00  0.00    +0.197 C 
BRANCH  53  54
ATOM     54  O   UNL     1       0.854  -7.829  -5.347  0.00  0.00    -0.346 OA
BRANCH  54  55
ATOM     55  C   UNL     1      -0.257  -8.729  -5.461  0.00  0.00    +0.282 C 
ATOM     56  O   UNL     1      -0.182  -9.418  -6.723  0.00  0.00    -0.341 OA
ATOM     57  C   UNL     1      -0.266  -8.534  -7.860  0.00  0.00    +0.178 C 
ATOM     58  C   UNL     1      -1.619  -7.800  -7.837  0.00  0.00    +0.177 C 
ATOM     59  C   UNL     1      -1.788  -7.062  -6.500  0.00  0.00    +0.179 C 
ATOM     60  C   UNL     1      -1.632  -8.045  -5.334  0.00  0.00    +0.201 C 
BRANCH  60  61
ATOM     61  O   UNL     1      -1.798  -7.396  -4.071  0.00  0.00    -0.384 OA
ATOM     62  H   UNL     1      -2.178  -6.515  -4.256  0.00  0.00    +0.210 HD
ENDBRANCH  60  61
BRANCH  59  63
ATOM     63  O   UNL     1      -3.076  -6.440  -6.417  0.00  0.00    -0.386 OA
ATOM     64  H   UNL     1      -3.714  -7.084  -6.788  0.00  0.00    +0.210 HD
ENDBRANCH  59  63
BRANCH  58  65
ATOM     65  O   UNL     1      -2.716  -8.722  -7.975  0.00  0.00    -0.386 OA
ATOM     66  H   UNL     1      -2.435  -9.585  -7.609  0.00  0.00    +0.210 HD
ENDBRANCH  58  65
BRANCH  57  67
ATOM     67  C   UNL     1      -0.096  -9.365  -9.144  0.00  0.00    +0.190 C 
BRANCH  67  68
ATOM     68  O   UNL     1       1.179 -10.005  -9.203  0.00  0.00    -0.392 OA
ATOM     69  H   UNL     1       1.859  -9.365  -8.933  0.00  0.00    +0.210 HD
ENDBRANCH  67  68
ENDBRANCH  57  67
ENDBRANCH  54  55
ENDBRANCH  53  54
ENDBRANCH  43  53
ENDBRANCH  40  41
ENDBRANCH   7  40
TORSDOF 24
