REMARK  Name = 
REMARK  15 active torsions:
REMARK  status: ('A' for Active; 'I' for Inactive)
REMARK    1  A    between atoms: C_1  and  C_2
REMARK    2  A    between atoms: C_3  and  O_41
REMARK    3  A    between atoms: C_4  and  O_40
REMARK    4  A    between atoms: C_5  and  O_30
REMARK    5  A    between atoms: C_6  and  O_8
REMARK    6  A    between atoms: O_8  and  C_9
REMARK    7  A    between atoms: C_10  and  C_22
REMARK    8  A    between atoms: C_14  and  O_21
REMARK    9  A    between atoms: C_16  and  O_20
REMARK   10  A    between atoms: C_24  and  O_29
REMARK   11  A    between atoms: C_25  and  O_28
REMARK   12  A    between atoms: O_30  and  C_31
REMARK   13  A    between atoms: C_32  and  O_39
REMARK   14  A    between atoms: C_33  and  O_38
REMARK   15  A    between atoms: C_34  and  O_37
REMARK                            x       y       z     vdW  Elec       q    Type
REMARK                         _______ _______ _______ _____ _____    ______ ____
ROOT
ATOM      1  O   UNL     1       3.905   2.043  -1.859  0.00  0.00    -0.453 OA
ENDROOT
BRANCH   1   2
ATOM      2  C   UNL     1       3.514   3.149  -2.619  0.00  0.00    +0.214 A 
ATOM      3  C   UNL     1       2.454   2.939  -3.680  0.00  0.00    +0.238 A 
ATOM      4  O   UNL     1       2.101   1.806  -3.986  0.00  0.00    -0.283 OA
ATOM      5  C   UNL     1       1.881   4.115  -4.351  0.00  0.00    +0.109 A 
ATOM      6  C   UNL     1       2.522   5.322  -4.153  0.00  0.00    +0.147 A 
ATOM      7  C   UNL     1       2.073   6.499  -4.769  0.00  0.00    +0.092 A 
ATOM      8  C   UNL     1       0.942   6.460  -5.567  0.00  0.00    +0.124 A 
ATOM      9  C   UNL     1       0.278   5.257  -5.782  0.00  0.00    +0.091 A 
ATOM     10  O   UNL     1       3.639   5.440  -3.383  0.00  0.00    -0.451 OA
ATOM     11  C   UNL     1       0.752   4.085  -5.181  0.00  0.00    +0.135 A 
ATOM     12  C   UNL     1       4.121   4.378  -2.591  0.00  0.00    +0.181 A 
BRANCH  12  13
ATOM     13  C   UNL     1       5.316   4.912  -1.831  0.00  0.00    +0.025 A 
ATOM     14  C   UNL     1       6.042   5.993  -2.425  0.00  0.00    +0.015 A 
ATOM     15  C   UNL     1       7.104   6.654  -1.793  0.00  0.00    +0.050 A 
ATOM     16  C   UNL     1       7.468   6.261  -0.529  0.00  0.00    +0.158 A 
ATOM     17  C   UNL     1       6.792   5.209   0.092  0.00  0.00    +0.159 A 
ATOM     18  C   UNL     1       5.730   4.526  -0.548  0.00  0.00    +0.060 A 
BRANCH  16  19
ATOM     19  O   UNL     1       8.479   6.925   0.107  0.00  0.00    -0.503 OA
ATOM     20  H   UNL     1       8.536   6.516   0.993  0.00  0.00    +0.292 HD
ENDBRANCH  16  19
BRANCH  17  21
ATOM     21  O   UNL     1       7.196   4.894   1.356  0.00  0.00    -0.503 OA
ATOM     22  H   UNL     1       6.658   4.161   1.684  0.00  0.00    +0.292 HD
ENDBRANCH  17  21
ENDBRANCH  12  13
BRANCH   8  23
ATOM     23  O   UNL     1       0.427   7.573  -6.162  0.00  0.00    -0.507 OA
ATOM     24  H   UNL     1       0.926   8.354  -5.870  0.00  0.00    +0.292 HD
ENDBRANCH   8  23
BRANCH  11  25
ATOM     25  O   UNL     1       0.071   2.924  -5.403  0.00  0.00    -0.506 OA
ATOM     26  H   UNL     1      -0.575   3.048  -6.118  0.00  0.00    +0.292 HD
ENDBRANCH  11  25
ENDBRANCH   1   2
BRANCH   1  30
ATOM     27  C   UNL     1       0.759   0.006   0.653  0.00  0.00    +0.041 C 
ATOM     28  C   UNL     1       2.294  -0.101   0.642  0.00  0.00    +0.150 C 
ATOM     29  O   UNL     1       2.954   0.977  -0.023  0.00  0.00    -0.334 OA
ATOM     30  C   UNL     1       2.898   1.037  -1.464  0.00  0.00    +0.340 C 
ATOM     31  C   UNL     1       3.080  -0.382  -2.168  0.00  0.00    +0.221 C 
ATOM     32  C   UNL     1       2.406  -1.536  -1.376  0.00  0.00    +0.180 C 
ATOM     33  C   UNL     1       2.779  -1.446   0.108  0.00  0.00    +0.174 C 
BRANCH  32  34
ATOM     34  O   UNL     1       2.821  -2.828  -1.872  0.00  0.00    -0.386 OA
ATOM     35  H   UNL     1       3.799  -2.790  -1.863  0.00  0.00    +0.210 HD
ENDBRANCH  32  34
BRANCH  33  36
ATOM     36  O   UNL     1       2.228  -2.512   0.888  0.00  0.00    -0.387 OA
ATOM     37  H   UNL     1       1.705  -3.084   0.298  0.00  0.00    +0.210 HD
ENDBRANCH  33  36
BRANCH  31  38
ATOM     38  O   UNL     1       4.431  -0.862  -2.332  0.00  0.00    -0.337 OA
BRANCH  38  39
ATOM     39  C   UNL     1       5.141  -0.336  -3.457  0.00  0.00    +0.282 C 
ATOM     40  O   UNL     1       4.432  -0.403  -4.695  0.00  0.00    -0.346 OA
ATOM     41  C   UNL     1       4.075  -1.721  -5.116  0.00  0.00    +0.197 C 
ATOM     42  C   UNL     1       5.278  -2.649  -5.259  0.00  0.00    +0.171 C 
ATOM     43  C   UNL     1       6.219  -2.550  -4.052  0.00  0.00    +0.178 C 
ATOM     44  C   UNL     1       6.471  -1.101  -3.599  0.00  0.00    +0.201 C 
BRANCH  42  45
ATOM     45  O   UNL     1       5.986  -2.388  -6.479  0.00  0.00    -0.387 OA
ATOM     46  H   UNL     1       6.731  -1.792  -6.290  0.00  0.00    +0.210 HD
ENDBRANCH  42  45
BRANCH  43  47
ATOM     47  O   UNL     1       7.492  -3.153  -4.363  0.00  0.00    -0.386 OA
ATOM     48  H   UNL     1       7.352  -3.770  -5.108  0.00  0.00    +0.210 HD
ENDBRANCH  43  47
BRANCH  44  49
ATOM     49  O   UNL     1       7.203  -1.090  -2.362  0.00  0.00    -0.384 OA
ATOM     50  H   UNL     1       7.652  -1.953  -2.295  0.00  0.00    +0.210 HD
ENDBRANCH  44  49
ENDBRANCH  38  39
ENDBRANCH  31  38
ENDBRANCH   1  30
TORSDOF 14
