REMARK  Name = 
REMARK  14 active torsions:
REMARK  status: ('A' for Active; 'I' for Inactive)
REMARK    1  A    between atoms: C_1  and  C_2
REMARK    2  A    between atoms: C_2  and  C_33
REMARK    3  A    between atoms: C_3  and  C_4
REMARK    4  A    between atoms: C_4  and  C_5
REMARK    5  A    between atoms: C_5  and  C_6
REMARK    6  A    between atoms: C_6  and  C_32
REMARK    7  A    between atoms: C_7  and  C_8
REMARK    8  A    between atoms: C_8  and  C_10
REMARK    9  A    between atoms: C_11  and  O_31
REMARK   10  A    between atoms: C_13  and  O_30
REMARK   11  A    between atoms: C_17  and  C_22
REMARK   12  A    between atoms: C_18  and  O_21
REMARK   13  A    between atoms: C_24  and  O_29
REMARK   14  A    between atoms: C_25  and  O_28
REMARK                            x       y       z     vdW  Elec       q    Type
REMARK                         _______ _______ _______ _____ _____    ______ ____
ROOT
ATOM      1  C   UNL     1      -0.907  -5.776  -2.271  0.00  0.00    +0.106 A 
ATOM      2  C   UNL     1      -1.691  -4.592  -2.292  0.00  0.00    +0.157 A 
ATOM      3  O   UNL     1      -1.039  -3.393  -2.489  0.00  0.00    -0.450 OA
ATOM      4  C   UNL     1      -1.757  -2.215  -2.473  0.00  0.00    +0.181 A 
ATOM      5  C   UNL     1      -3.080  -2.126  -2.288  0.00  0.00    +0.208 A 
ATOM      6  C   UNL     1      -3.861  -3.383  -2.083  0.00  0.00    +0.238 A 
ATOM      7  O   UNL     1      -5.040  -3.300  -1.776  0.00  0.00    -0.283 OA
ATOM      8  C   UNL     1      -3.084  -4.651  -2.183  0.00  0.00    +0.110 A 
ATOM      9  C   UNL     1      -3.710  -5.909  -2.115  0.00  0.00    +0.135 A 
ATOM     10  C   UNL     1      -2.956  -7.083  -2.111  0.00  0.00    +0.092 A 
ATOM     11  C   UNL     1      -1.572  -7.009  -2.193  0.00  0.00    +0.135 A 
ENDROOT
BRANCH   4  12
ATOM     12  C   UNL     1      -0.942  -0.999  -2.609  0.00  0.00    +0.025 A 
ATOM     13  C   UNL     1      -0.384  -0.397  -1.468  0.00  0.00    +0.015 A 
ATOM     14  C   UNL     1       0.454   0.714  -1.592  0.00  0.00    +0.050 A 
ATOM     15  C   UNL     1       0.722   1.218  -2.855  0.00  0.00    +0.158 A 
ATOM     16  C   UNL     1       0.116   0.673  -3.984  0.00  0.00    +0.159 A 
ATOM     17  C   UNL     1      -0.730  -0.426  -3.871  0.00  0.00    +0.060 A 
BRANCH  15  18
ATOM     18  O   UNL     1       1.608   2.248  -2.985  0.00  0.00    -0.503 OA
ATOM     19  H   UNL     1       1.682   2.387  -3.950  0.00  0.00    +0.292 HD
ENDBRANCH  15  18
BRANCH  16  20
ATOM     20  O   UNL     1       0.404   1.244  -5.194  0.00  0.00    -0.503 OA
ATOM     21  H   UNL     1      -0.109   0.782  -5.879  0.00  0.00    +0.292 HD
ENDBRANCH  16  20
ENDBRANCH   4  12
BRANCH   1  22
ATOM     22  C   UNL     1       0.588  -5.828  -2.353  0.00  0.00    +0.193 C 
ATOM     23  O   UNL     1       1.101  -6.851  -2.808  0.00  0.00    -0.287 OA
BRANCH  22  26
ATOM     24  C   UNL     1       2.746  -4.600  -1.882  0.00  0.00    -0.069 C 
ATOM     25  C   UNL     1       3.604  -5.563  -2.665  0.00  0.00    +0.039 C 
ATOM     26  C   UNL     1       1.408  -4.740  -1.759  0.00  0.00    +0.050 C 
BRANCH  24  27
ATOM     27  C   UNL     1       3.525  -3.455  -1.235  0.00  0.00    +0.034 C 
BRANCH  27  28
ATOM     28  C   UNL     1       2.674  -2.464  -0.431  0.00  0.00    +0.031 C 
BRANCH  28  32
ATOM     29  C   UNL     1       4.042  -2.604   2.337  0.00  0.00    +0.038 C 
ATOM     30  C   UNL     1       3.954  -1.375   1.469  0.00  0.00    -0.080 C 
ATOM     31  C   UNL     1       4.487  -0.108   2.082  0.00  0.00    +0.038 C 
ATOM     32  C   UNL     1       3.418  -1.348   0.236  0.00  0.00    -0.028 C 
ENDBRANCH  28  32
ENDBRANCH  27  28
ENDBRANCH  24  27
ENDBRANCH  22  26
ENDBRANCH   1  22
BRANCH   5  33
ATOM     33  O   UNL     1      -3.716  -0.899  -2.217  0.00  0.00    -0.501 OA
ATOM     34  H   UNL     1      -4.334  -0.958  -1.464  0.00  0.00    +0.292 HD
ENDBRANCH   5  33
BRANCH   9  35
ATOM     35  O   UNL     1      -5.073  -6.020  -2.066  0.00  0.00    -0.506 OA
ATOM     36  H   UNL     1      -5.339  -6.954  -2.073  0.00  0.00    +0.292 HD
ENDBRANCH   9  35
BRANCH  11  37
ATOM     37  O   UNL     1      -0.927  -8.227  -2.165  0.00  0.00    -0.506 OA
ATOM     38  H   UNL     1       0.016  -8.083  -2.399  0.00  0.00    +0.292 HD
ENDBRANCH  11  37
TORSDOF 11
