REMARK  Name = 
REMARK  16 active torsions:
REMARK  status: ('A' for Active; 'I' for Inactive)
REMARK    1  A    between atoms: C_2  and  O_42
REMARK    2  A    between atoms: C_3  and  O_41
REMARK    3  A    between atoms: C_4  and  O_40
REMARK    4  A    between atoms: C_5  and  O_7
REMARK    5  A    between atoms: O_7  and  C_8
REMARK    6  A    between atoms: C_8  and  C_9
REMARK    7  A    between atoms: C_10  and  O_39
REMARK    8  A    between atoms: C_11  and  O_38
REMARK    9  A    between atoms: C_12  and  O_37
REMARK   10  A    between atoms: C_13  and  O_15
REMARK   11  A    between atoms: O_15  and  C_16
REMARK   12  A    between atoms: C_17  and  C_29
REMARK   13  A    between atoms: C_21  and  O_28
REMARK   14  A    between atoms: C_23  and  O_27
REMARK   15  A    between atoms: C_31  and  O_36
REMARK   16  A    between atoms: C_32  and  O_35
REMARK                            x       y       z     vdW  Elec       q    Type
REMARK                         _______ _______ _______ _____ _____    ______ ____
ROOT
ATOM      1  C   UNL     1       3.538  -3.560   0.131  0.00  0.00    +0.179 C 
ATOM      2  O   UNL     1       4.784  -3.342  -0.567  0.00  0.00    -0.331 OA
ATOM      3  C   UNL     1       4.591  -3.400  -1.993  0.00  0.00    +0.340 C 
ATOM      4  C   UNL     1       4.225  -4.851  -2.373  0.00  0.00    +0.214 C 
ATOM      5  C   UNL     1       2.908  -5.233  -1.670  0.00  0.00    +0.180 C 
ATOM      6  C   UNL     1       3.021  -4.985  -0.150  0.00  0.00    +0.177 C 
ENDROOT
BRANCH   6   7
ATOM      7  O   UNL     1       1.808  -5.243   0.552  0.00  0.00    -0.386 OA
ATOM      8  H   UNL     1       1.059  -4.916   0.020  0.00  0.00    +0.210 HD
ENDBRANCH   6   7
BRANCH   5   9
ATOM      9  O   UNL     1       2.602  -6.610  -1.917  0.00  0.00    -0.386 OA
ATOM     10  H   UNL     1       3.455  -7.088  -1.884  0.00  0.00    +0.210 HD
ENDBRANCH   5   9
BRANCH   4  11
ATOM     11  O   UNL     1       5.246  -5.783  -1.939  0.00  0.00    -0.383 OA
ATOM     12  H   UNL     1       5.699  -5.372  -1.177  0.00  0.00    +0.210 HD
ENDBRANCH   4  11
BRANCH   3  13
ATOM     13  O   UNL     1       5.766  -2.953  -2.673  0.00  0.00    -0.453 OA
BRANCH  13  14
ATOM     14  C   UNL     1       5.550  -1.913  -3.583  0.00  0.00    +0.214 A 
ATOM     15  C   UNL     1       4.270  -1.848  -4.366  0.00  0.00    +0.238 A 
ATOM     16  O   UNL     1       3.464  -2.772  -4.327  0.00  0.00    -0.283 OA
ATOM     17  C   UNL     1       4.028  -0.659  -5.188  0.00  0.00    +0.109 A 
ATOM     18  C   UNL     1       5.084   0.231  -5.357  0.00  0.00    +0.147 A 
ATOM     19  C   UNL     1       4.948   1.317  -6.227  0.00  0.00    +0.092 A 
ATOM     20  C   UNL     1       3.744   1.493  -6.913  0.00  0.00    +0.124 A 
ATOM     21  C   UNL     1       2.671   0.637  -6.716  0.00  0.00    +0.091 A 
ATOM     22  O   UNL     1       6.291   0.094  -4.714  0.00  0.00    -0.451 OA
ATOM     23  C   UNL     1       2.808  -0.438  -5.847  0.00  0.00    +0.135 A 
ATOM     24  C   UNL     1       6.481  -0.963  -3.825  0.00  0.00    +0.181 A 
BRANCH  24  25
ATOM     25  C   UNL     1       7.817  -0.924  -3.153  0.00  0.00    +0.025 A 
ATOM     26  C   UNL     1       8.444   0.306  -2.876  0.00  0.00    +0.015 A 
ATOM     27  C   UNL     1       9.683   0.367  -2.225  0.00  0.00    +0.050 A 
ATOM     28  C   UNL     1      10.299  -0.808  -1.837  0.00  0.00    +0.158 A 
ATOM     29  C   UNL     1       9.726  -2.039  -2.124  0.00  0.00    +0.159 A 
ATOM     30  C   UNL     1       8.506  -2.103  -2.793  0.00  0.00    +0.060 A 
BRANCH  29  31
ATOM     31  O   UNL     1      10.391  -3.163  -1.721  0.00  0.00    -0.503 OA
ATOM     32  H   UNL     1       9.855  -3.937  -1.969  0.00  0.00    +0.292 HD
ENDBRANCH  29  31
BRANCH  28  33
ATOM     33  O   UNL     1      11.494  -0.752  -1.174  0.00  0.00    -0.503 OA
ATOM     34  H   UNL     1      11.717  -1.686  -0.982  0.00  0.00    +0.292 HD
ENDBRANCH  28  33
ENDBRANCH  24  25
BRANCH  23  35
ATOM     35  O   UNL     1       1.735  -1.259  -5.642  0.00  0.00    -0.506 OA
ATOM     36  H   UNL     1       1.010  -1.027  -6.246  0.00  0.00    +0.292 HD
ENDBRANCH  23  35
BRANCH  20  37
ATOM     37  O   UNL     1       3.564   2.519  -7.793  0.00  0.00    -0.507 OA
ATOM     38  H   UNL     1       4.393   3.007  -7.893  0.00  0.00    +0.292 HD
ENDBRANCH  20  37
ENDBRANCH  13  14
ENDBRANCH   3  13
BRANCH   1  39
ATOM     39  C   UNL     1       2.508  -2.435  -0.183  0.00  0.00    +0.197 C 
BRANCH  39  40
ATOM     40  O   UNL     1       1.336  -2.407   0.612  0.00  0.00    -0.346 OA
BRANCH  40  43
ATOM     41  C   UNL     1       0.369  -2.252   4.046  0.00  0.00    +0.197 C 
ATOM     42  O   UNL     1       0.266  -2.188   2.626  0.00  0.00    -0.346 OA
ATOM     43  C   UNL     1       1.554  -2.289   2.010  0.00  0.00    +0.281 C 
ATOM     44  C   UNL     1       2.363  -1.027   2.374  0.00  0.00    +0.201 C 
ATOM     45  C   UNL     1       2.539  -0.994   3.891  0.00  0.00    +0.178 C 
ATOM     46  C   UNL     1       1.182  -1.085   4.606  0.00  0.00    +0.171 C 
BRANCH  46  47
ATOM     47  O   UNL     1       1.349  -1.280   6.013  0.00  0.00    -0.387 OA
ATOM     48  H   UNL     1       2.301  -1.220   6.211  0.00  0.00    +0.210 HD
ENDBRANCH  46  47
BRANCH  45  49
ATOM     49  O   UNL     1       3.222   0.204   4.278  0.00  0.00    -0.386 OA
ATOM     50  H   UNL     1       2.855   0.913   3.709  0.00  0.00    +0.210 HD
ENDBRANCH  45  49
BRANCH  44  51
ATOM     51  O   UNL     1       1.685   0.173   1.960  0.00  0.00    -0.384 OA
ATOM     52  H   UNL     1       0.803  -0.111   1.634  0.00  0.00    +0.210 HD
ENDBRANCH  44  51
ENDBRANCH  40  43
ENDBRANCH  39  40
ENDBRANCH   1  39
TORSDOF 16
