REMARK  Name = 
REMARK  17 active torsions:
REMARK  status: ('A' for Active; 'I' for Inactive)
REMARK    1  A    between atoms: C_3  and  O_44
REMARK    2  A    between atoms: C_4  and  O_43
REMARK    3  A    between atoms: C_6  and  C_7
REMARK    4  A    between atoms: C_8  and  O_20
REMARK    5  A    between atoms: C_12  and  O_19
REMARK    6  A    between atoms: C_14  and  O_18
REMARK    7  A    between atoms: O_20  and  C_21
REMARK    8  A    between atoms: C_22  and  O_31
REMARK    9  A    between atoms: C_23  and  O_30
REMARK   10  A    between atoms: C_24  and  O_29
REMARK   11  A    between atoms: C_25  and  C_27
REMARK   12  A    between atoms: C_27  and  O_28
REMARK   13  A    between atoms: O_31  and  C_32
REMARK   14  A    between atoms: C_32  and  C_34
REMARK   15  A    between atoms: C_36  and  O_42
REMARK   16  A    between atoms: C_37  and  O_41
REMARK   17  A    between atoms: C_38  and  O_40
REMARK                            x       y       z     vdW  Elec       q    Type
REMARK                         _______ _______ _______ _____ _____    ______ ____
ROOT
ATOM      1  C   UNL     1      -3.955  -0.553  -1.150  0.00  0.00    +0.352 C 
ATOM      2  O   UNL     1      -3.632   0.403  -2.186  0.00  0.00    -0.330 OA
ATOM      3  C   UNL     1      -3.065  -0.190  -3.372  0.00  0.00    +0.179 C 
ATOM      4  C   UNL     1      -1.936  -1.212  -3.075  0.00  0.00    +0.178 C 
ATOM      5  C   UNL     1      -2.043  -1.958  -1.708  0.00  0.00    +0.192 C 
ATOM      6  C   UNL     1      -2.621  -1.051  -0.583  0.00  0.00    +0.276 C 
ENDROOT
BRANCH   5   7
ATOM      7  O   UNL     1      -0.746  -2.465  -1.365  0.00  0.00    -0.385 OA
ATOM      8  H   UNL     1      -0.316  -2.716  -2.206  0.00  0.00    +0.210 HD
ENDBRANCH   5   7
BRANCH   4   9
ATOM      9  O   UNL     1      -0.634  -0.609  -3.185  0.00  0.00    -0.386 OA
ATOM     10  H   UNL     1      -0.394  -0.233  -2.319  0.00  0.00    +0.210 HD
ENDBRANCH   4   9
BRANCH   6  11
ATOM     11  O   UNL     1      -2.794  -1.738   0.699  0.00  0.00    -0.449 OA
BRANCH  11  12
ATOM     12  C   UNL     1      -3.268  -1.078   1.802  0.00  0.00    +0.340 C 
ATOM     13  O   UNL     1      -3.553   0.108   1.846  0.00  0.00    -0.245 OA
BRANCH  12  14
ATOM     14  C   UNL     1      -3.485  -2.023   2.967  0.00  0.00    +0.066 A 
ATOM     15  C   UNL     1      -3.197  -3.378   2.771  0.00  0.00    +0.064 A 
ATOM     16  C   UNL     1      -3.455  -4.308   3.765  0.00  0.00    +0.163 A 
ATOM     17  C   UNL     1      -3.980  -3.920   4.985  0.00  0.00    +0.201 A 
ATOM     18  C   UNL     1      -4.249  -2.576   5.230  0.00  0.00    +0.163 A 
ATOM     19  C   UNL     1      -4.010  -1.615   4.227  0.00  0.00    +0.064 A 
BRANCH  18  20
ATOM     20  O   UNL     1      -4.759  -2.287   6.469  0.00  0.00    -0.503 OA
ATOM     21  H   UNL     1      -4.876  -1.329   6.573  0.00  0.00    +0.292 HD
ENDBRANCH  18  20
BRANCH  17  22
ATOM     22  O   UNL     1      -4.228  -4.884   5.925  0.00  0.00    -0.501 OA
ATOM     23  H   UNL     1      -4.592  -4.401   6.694  0.00  0.00    +0.292 HD
ENDBRANCH  17  22
BRANCH  16  24
ATOM     24  O   UNL     1      -3.196  -5.621   3.508  0.00  0.00    -0.503 OA
ATOM     25  H   UNL     1      -3.499  -6.096   4.308  0.00  0.00    +0.292 HD
ENDBRANCH  16  24
ENDBRANCH  12  14
ENDBRANCH  11  12
ENDBRANCH   6  11
BRANCH   3  26
ATOM     26  C   UNL     1      -2.569   0.947  -4.304  0.00  0.00    +0.190 C 
BRANCH  26  27
ATOM     27  O   UNL     1      -3.573   1.922  -4.591  0.00  0.00    -0.392 OA
ATOM     28  H   UNL     1      -4.443   1.494  -4.533  0.00  0.00    +0.210 HD
ENDBRANCH  26  27
ENDBRANCH   3  26
BRANCH   1  29
ATOM     29  O   UNL     1      -4.765  -1.600  -1.715  0.00  0.00    -0.452 OA
BRANCH  29  40
ATOM     30  C   UNL     1      -7.067  -1.843  -1.108  0.00  0.00    +0.181 A 
ATOM     31  O   UNL     1      -8.139  -2.631  -0.704  0.00  0.00    -0.451 OA
ATOM     32  C   UNL     1      -7.915  -3.863  -0.153  0.00  0.00    +0.147 A 
ATOM     33  C   UNL     1      -6.644  -4.362   0.094  0.00  0.00    +0.109 A 
ATOM     34  C   UNL     1      -6.518  -5.610   0.733  0.00  0.00    +0.135 A 
ATOM     35  C   UNL     1      -7.650  -6.346   1.108  0.00  0.00    +0.091 A 
ATOM     36  C   UNL     1      -8.910  -5.842   0.818  0.00  0.00    +0.124 A 
ATOM     37  C   UNL     1      -5.494  -3.551  -0.374  0.00  0.00    +0.238 A 
ATOM     38  O   UNL     1      -4.355  -4.006  -0.248  0.00  0.00    -0.283 OA
ATOM     39  C   UNL     1      -9.049  -4.612   0.182  0.00  0.00    +0.092 A 
ATOM     40  C   UNL     1      -5.772  -2.211  -0.993  0.00  0.00    +0.214 A 
BRANCH  30  42
ATOM     41  C   UNL     1      -7.064   0.684  -1.220  0.00  0.00    +0.015 A 
ATOM     42  C   UNL     1      -7.543  -0.558  -1.687  0.00  0.00    +0.025 A 
ATOM     43  C   UNL     1      -8.638  -0.526  -2.574  0.00  0.00    +0.060 A 
ATOM     44  C   UNL     1      -9.241   0.684  -2.904  0.00  0.00    +0.159 A 
ATOM     45  C   UNL     1      -8.765   1.892  -2.400  0.00  0.00    +0.158 A 
ATOM     46  C   UNL     1      -7.645   1.904  -1.584  0.00  0.00    +0.050 A 
BRANCH  45  47
ATOM     47  O   UNL     1      -9.457   3.035  -2.679  0.00  0.00    -0.503 OA
ATOM     48  H   UNL     1      -9.130   3.740  -2.093  0.00  0.00    +0.292 HD
ENDBRANCH  45  47
BRANCH  44  49
ATOM     49  O   UNL     1     -10.349   0.695  -3.710  0.00  0.00    -0.503 OA
ATOM     50  H   UNL     1     -10.602   1.638  -3.761  0.00  0.00    +0.292 HD
ENDBRANCH  44  49
ENDBRANCH  30  42
BRANCH  36  51
ATOM     51  O   UNL     1     -10.045  -6.520   1.147  0.00  0.00    -0.507 OA
ATOM     52  H   UNL     1      -9.806  -7.347   1.599  0.00  0.00    +0.292 HD
ENDBRANCH  36  51
BRANCH  34  53
ATOM     53  O   UNL     1      -5.319  -6.190   1.045  0.00  0.00    -0.506 OA
ATOM     54  H   UNL     1      -4.589  -5.590   0.787  0.00  0.00    +0.292 HD
ENDBRANCH  34  53
ENDBRANCH  29  40
ENDBRANCH   1  29
TORSDOF 17
