REMARK  Name = 
REMARK  21 active torsions:
REMARK  status: ('A' for Active; 'I' for Inactive)
REMARK    1  A    between atoms: C_3  and  O_66
REMARK    2  A    between atoms: C_4  and  O_65
REMARK    3  A    between atoms: C_6  and  C_7
REMARK    4  A    between atoms: C_8  and  C_9
REMARK    5  A    between atoms: C_9  and  O_11
REMARK    6  A    between atoms: O_11  and  C_12
REMARK    7  A    between atoms: C_12  and  C_13
REMARK    8  A    between atoms: C_15  and  O_64
REMARK    9  A    between atoms: C_17  and  O_63
REMARK   10  A    between atoms: C_19  and  O_62
REMARK   11  A    between atoms: C_21  and  O_24
REMARK   12  A    between atoms: O_24  and  C_25
REMARK   13  A    between atoms: C_27  and  O_61
REMARK   14  A    between atoms: C_29  and  O_60
REMARK   15  A    between atoms: C_31  and  C_58
REMARK   16  A    between atoms: C_34  and  O_36
REMARK   17  A    between atoms: O_36  and  C_37
REMARK   18  A    between atoms: C_38  and  C_50
REMARK   19  A    between atoms: C_42  and  O_49
REMARK   20  A    between atoms: C_52  and  O_57
REMARK   21  A    between atoms: C_58  and  O_59
REMARK                            x       y       z     vdW  Elec       q    Type
REMARK                         _______ _______ _______ _____ _____    ______ ____
ROOT
ATOM      1  C   UNL     1      -6.735  -3.770  -5.072  0.00  0.00    +0.221 C 
ATOM      2  C   UNL     1      -7.666  -5.011  -5.355  0.00  0.00    +0.340 C 
ATOM      3  O   UNL     1      -8.128  -5.489  -4.066  0.00  0.00    -0.331 OA
ATOM      4  C   UNL     1      -7.099  -6.217  -3.388  0.00  0.00    +0.179 C 
ATOM      5  C   UNL     1      -6.163  -5.144  -2.858  0.00  0.00    +0.177 C 
ATOM      6  C   UNL     1      -5.669  -4.210  -4.007  0.00  0.00    +0.180 C 
ENDROOT
BRANCH   6   7
ATOM      7  O   UNL     1      -5.088  -3.067  -3.339  0.00  0.00    -0.386 OA
ATOM      8  H   UNL     1      -4.187  -2.971  -3.687  0.00  0.00    +0.210 HD
ENDBRANCH   6   7
BRANCH   5   9
ATOM      9  O   UNL     1      -5.015  -5.739  -2.227  0.00  0.00    -0.386 OA
ATOM     10  H   UNL     1      -4.413  -5.000  -2.039  0.00  0.00    +0.210 HD
ENDBRANCH   5   9
BRANCH   4  11
ATOM     11  C   UNL     1      -7.627  -7.181  -2.295  0.00  0.00    +0.190 C 
BRANCH  11  12
ATOM     12  O   UNL     1      -8.371  -6.530  -1.260  0.00  0.00    -0.392 OA
ATOM     13  H   UNL     1      -9.243  -6.371  -1.668  0.00  0.00    +0.210 HD
ENDBRANCH  11  12
ENDBRANCH   4  11
BRANCH   2  14
ATOM     14  O   UNL     1      -8.805  -4.697  -6.174  0.00  0.00    -0.453 OA
BRANCH  14  15
ATOM     15  C   UNL     1      -9.382  -5.804  -6.810  0.00  0.00    +0.214 A 
ATOM     16  C   UNL     1      -9.400  -7.160  -6.146  0.00  0.00    +0.234 A 
ATOM     17  O   UNL     1      -9.604  -7.270  -4.944  0.00  0.00    -0.283 OA
ATOM     18  C   UNL     1      -9.377  -8.337  -7.034  0.00  0.00    +0.060 A 
ATOM     19  C   UNL     1      -9.999  -8.123  -8.272  0.00  0.00    +0.142 A 
ATOM     20  C   UNL     1     -10.211  -9.196  -9.133  0.00  0.00    +0.092 A 
ATOM     21  C   UNL     1      -9.809 -10.469  -8.735  0.00  0.00    +0.120 A 
ATOM     22  C   UNL     1      -9.161 -10.664  -7.517  0.00  0.00    +0.038 A 
ATOM     23  O   UNL     1     -10.496  -6.888  -8.656  0.00  0.00    -0.451 OA
ATOM     24  C   UNL     1      -8.868  -9.612  -6.624  0.00  0.00    -0.090 A 
ATOM     25  O   UNL     1      -8.192  -9.843  -5.565  0.00  0.00    -0.873 OA
ATOM     26  C   UNL     1     -10.086  -5.729  -7.968  0.00  0.00    +0.181 A 
BRANCH  26  27
ATOM     27  C   UNL     1     -10.558  -4.446  -8.621  0.00  0.00    +0.024 A 
ATOM     28  C   UNL     1     -11.209  -4.447  -9.870  0.00  0.00    +0.011 A 
ATOM     29  C   UNL     1     -11.813  -3.288 -10.436  0.00  0.00    -0.004 A 
ATOM     30  C   UNL     1     -11.816  -2.049  -9.791  0.00  0.00    -0.066 A 
ATOM     31  O   UNL     1     -12.408  -1.001 -10.278  0.00  0.00    -0.871 OA
ATOM     32  C   UNL     1     -11.095  -2.058  -8.582  0.00  0.00    +0.110 A 
ATOM     33  C   UNL     1     -10.506  -3.190  -8.018  0.00  0.00    +0.056 A 
BRANCH  32  34
ATOM     34  O   UNL     1     -11.018  -0.928  -7.784  0.00  0.00    -0.507 OA
ATOM     35  H   UNL     1     -11.956  -0.711  -7.653  0.00  0.00    +0.292 HD
ENDBRANCH  32  34
ENDBRANCH  26  27
BRANCH  21  36
ATOM     36  O   UNL     1     -10.030 -11.572  -9.510  0.00  0.00    -0.507 OA
ATOM     37  H   UNL     1     -10.536 -11.288 -10.286  0.00  0.00    +0.292 HD
ENDBRANCH  21  36
ENDBRANCH  14  15
ENDBRANCH   2  14
BRANCH   1  38
ATOM     38  O   UNL     1      -6.148  -2.954  -6.151  0.00  0.00    -0.337 OA
BRANCH  38  41
ATOM     39  C   UNL     1      -3.641  -4.786  -8.073  0.00  0.00    +0.190 C 
ATOM     40  O   UNL     1      -4.251  -4.102  -6.968  0.00  0.00    -0.339 OA
ATOM     41  C   UNL     1      -5.498  -3.486  -7.320  0.00  0.00    +0.282 C 
ATOM     42  C   UNL     1      -5.092  -2.355  -8.376  0.00  0.00    +0.201 C 
ATOM     43  C   UNL     1      -4.525  -3.025  -9.660  0.00  0.00    +0.179 C 
ATOM     44  C   UNL     1      -3.325  -3.900  -9.302  0.00  0.00    +0.178 C 
BRANCH  44  45
ATOM     45  O   UNL     1      -2.983  -4.715 -10.440  0.00  0.00    -0.386 OA
ATOM     46  H   UNL     1      -2.237  -4.283 -10.895  0.00  0.00    +0.210 HD
ENDBRANCH  44  45
BRANCH  43  47
ATOM     47  O   UNL     1      -4.094  -2.044 -10.631  0.00  0.00    -0.386 OA
ATOM     48  H   UNL     1      -4.334  -2.389 -11.512  0.00  0.00    +0.210 HD
ENDBRANCH  43  47
BRANCH  42  49
ATOM     49  O   UNL     1      -6.147  -1.449  -8.694  0.00  0.00    -0.384 OA
ATOM     50  H   UNL     1      -6.383  -1.527  -9.634  0.00  0.00    +0.210 HD
ENDBRANCH  42  49
BRANCH  39  51
ATOM     51  C   UNL     1      -2.329  -5.410  -7.559  0.00  0.00    +0.266 C 
BRANCH  51  52
ATOM     52  O   UNL     1      -1.806  -6.356  -8.494  0.00  0.00    -0.459 OA
BRANCH  52  53
ATOM     53  C   UNL     1      -2.542  -7.494  -8.533  0.00  0.00    +0.332 C 
ATOM     54  O   UNL     1      -3.424  -7.808  -7.752  0.00  0.00    -0.246 OA
BRANCH  53  56
ATOM     55  C   UNL     1      -2.442  -9.588  -9.693  0.00  0.00    +0.015 C 
ATOM     56  C   UNL     1      -2.116  -8.289  -9.687  0.00  0.00    +0.092 C 
BRANCH  55  58
ATOM     57  C   UNL     1      -2.795 -11.719 -10.869  0.00  0.00    +0.012 A 
ATOM     58  C   UNL     1      -2.045 -10.541 -10.729  0.00  0.00    -0.021 A 
ATOM     59  C   UNL     1      -0.898 -10.356 -11.510  0.00  0.00    +0.057 A 
ATOM     60  C   UNL     1      -0.517 -11.341 -12.409  0.00  0.00    +0.159 A 
ATOM     61  C   UNL     1      -1.266 -12.506 -12.544  0.00  0.00    +0.158 A 
ATOM     62  C   UNL     1      -2.405 -12.706 -11.774  0.00  0.00    +0.050 A 
BRANCH  61  63
ATOM     63  O   UNL     1      -0.817 -13.450 -13.427  0.00  0.00    -0.503 OA
ATOM     64  H   UNL     1      -1.408 -14.220 -13.353  0.00  0.00    +0.292 HD
ENDBRANCH  61  63
BRANCH  60  65
ATOM     65  O   UNL     1       0.611 -11.159 -13.155  0.00  0.00    -0.503 OA
ATOM     66  H   UNL     1       0.676 -11.977 -13.688  0.00  0.00    +0.292 HD
ENDBRANCH  60  65
ENDBRANCH  55  58
ENDBRANCH  53  56
ENDBRANCH  52  53
ENDBRANCH  51  52
ENDBRANCH  39  51
ENDBRANCH  38  41
ENDBRANCH   1  38
TORSDOF 21
