REMARK  Name = 
REMARK  17 active torsions:
REMARK  status: ('A' for Active; 'I' for Inactive)
REMARK    1  A    between atoms: C_4  and  O_53
REMARK    2  A    between atoms: C_6  and  C_7
REMARK    3  A    between atoms: C_8  and  O_20
REMARK    4  A    between atoms: C_12  and  O_19
REMARK    5  A    between atoms: C_14  and  O_18
REMARK    6  A    between atoms: O_20  and  C_21
REMARK    7  A    between atoms: C_23  and  O_36
REMARK    8  A    between atoms: C_25  and  O_35
REMARK    9  A    between atoms: C_27  and  O_34
REMARK   10  A    between atoms: C_29  and  C_32
REMARK   11  A    between atoms: C_32  and  O_33
REMARK   12  A    between atoms: O_36  and  C_37
REMARK   13  A    between atoms: C_39  and  O_52
REMARK   14  A    between atoms: C_41  and  O_51
REMARK   15  A    between atoms: C_43  and  O_50
REMARK   16  A    between atoms: C_45  and  C_48
REMARK   17  A    between atoms: C_48  and  O_49
REMARK                            x       y       z     vdW  Elec       q    Type
REMARK                         _______ _______ _______ _____ _____    ______ ____
ROOT
ATOM      1  C   UNL     1      -2.355  -1.013  -1.153  0.00  0.00    +0.340 C 
ATOM      2  O   UNL     1      -2.499   0.024  -2.129  0.00  0.00    -0.331 OA
ATOM      3  C   UNL     1      -2.784  -0.314  -3.481  0.00  0.00    +0.179 C 
ATOM      4  C   UNL     1      -1.921  -1.483  -3.964  0.00  0.00    +0.177 C 
ATOM      5  C   UNL     1      -1.875  -2.677  -2.991  0.00  0.00    +0.180 C 
ATOM      6  C   UNL     1      -1.592  -2.331  -1.524  0.00  0.00    +0.221 C 
ENDROOT
BRANCH   5   7
ATOM      7  O   UNL     1      -3.068  -3.461  -3.062  0.00  0.00    -0.386 OA
ATOM      8  H   UNL     1      -3.849  -2.879  -2.906  0.00  0.00    +0.210 HD
ENDBRANCH   5   7
BRANCH   4   9
ATOM      9  O   UNL     1      -0.619  -0.954  -4.266  0.00  0.00    -0.386 OA
ATOM     10  H   UNL     1       0.065  -1.273  -3.649  0.00  0.00    +0.210 HD
ENDBRANCH   4   9
BRANCH   6  11
ATOM     11  O   UNL     1      -0.165  -2.262  -1.186  0.00  0.00    -0.337 OA
BRANCH  11  12
ATOM     12  C   UNL     1       0.558  -3.523  -1.215  0.00  0.00    +0.282 C 
ATOM     13  O   UNL     1       1.487  -3.692  -0.118  0.00  0.00    -0.341 OA
ATOM     14  C   UNL     1       2.597  -2.771  -0.021  0.00  0.00    +0.178 C 
ATOM     15  C   UNL     1       3.278  -2.374  -1.363  0.00  0.00    +0.177 C 
ATOM     16  C   UNL     1       2.314  -2.384  -2.554  0.00  0.00    +0.179 C 
ATOM     17  C   UNL     1       1.425  -3.636  -2.486  0.00  0.00    +0.201 C 
BRANCH  17  18
ATOM     18  O   UNL     1       2.245  -4.822  -2.479  0.00  0.00    -0.384 OA
ATOM     19  H   UNL     1       2.265  -5.158  -1.558  0.00  0.00    +0.210 HD
ENDBRANCH  17  18
BRANCH  16  20
ATOM     20  O   UNL     1       1.546  -1.176  -2.603  0.00  0.00    -0.386 OA
ATOM     21  H   UNL     1       0.968  -1.151  -1.809  0.00  0.00    +0.210 HD
ENDBRANCH  16  20
BRANCH  15  22
ATOM     22  O   UNL     1       4.363  -3.285  -1.636  0.00  0.00    -0.386 OA
ATOM     23  H   UNL     1       4.020  -4.009  -2.198  0.00  0.00    +0.210 HD
ENDBRANCH  15  22
BRANCH  14  24
ATOM     24  C   UNL     1       2.155  -1.586   0.842  0.00  0.00    +0.190 C 
BRANCH  24  25
ATOM     25  O   UNL     1       3.202  -0.659   1.083  0.00  0.00    -0.392 OA
ATOM     26  H   UNL     1       3.167   0.017   0.384  0.00  0.00    +0.210 HD
ENDBRANCH  24  25
ENDBRANCH  14  24
ENDBRANCH  11  12
ENDBRANCH   6  11
BRANCH   3  27
ATOM     27  C   UNL     1      -4.284  -0.455  -3.753  0.00  0.00    +0.190 C 
BRANCH  27  28
ATOM     28  O   UNL     1      -4.826  -1.554  -3.045  0.00  0.00    -0.392 OA
ATOM     29  H   UNL     1      -5.328  -1.171  -2.296  0.00  0.00    +0.210 HD
ENDBRANCH  27  28
ENDBRANCH   3  27
BRANCH   1  30
ATOM     30  O   UNL     1      -3.627  -1.370  -0.551  0.00  0.00    -0.453 OA
BRANCH  30  41
ATOM     31  C   UNL     1      -4.891  -0.809   1.473  0.00  0.00    +0.181 A 
ATOM     32  O   UNL     1      -4.850  -0.097   2.714  0.00  0.00    -0.451 OA
ATOM     33  C   UNL     1      -3.679   0.577   3.051  0.00  0.00    +0.147 A 
ATOM     34  C   UNL     1      -2.463   0.201   2.509  0.00  0.00    +0.109 A 
ATOM     35  C   UNL     1      -1.260   0.877   2.790  0.00  0.00    +0.135 A 
ATOM     36  C   UNL     1      -1.254   1.937   3.675  0.00  0.00    +0.091 A 
ATOM     37  C   UNL     1      -2.462   2.305   4.261  0.00  0.00    +0.124 A 
ATOM     38  C   UNL     1      -2.495  -0.910   1.603  0.00  0.00    +0.238 A 
ATOM     39  O   UNL     1      -1.486  -1.590   1.438  0.00  0.00    -0.283 OA
ATOM     40  C   UNL     1      -3.669   1.637   3.955  0.00  0.00    +0.092 A 
ATOM     41  C   UNL     1      -3.736  -1.044   0.790  0.00  0.00    +0.214 A 
BRANCH  31  43
ATOM     42  C   UNL     1      -7.441  -0.950   1.784  0.00  0.00    +0.011 A 
ATOM     43  C   UNL     1      -6.288  -1.245   1.024  0.00  0.00    +0.024 A 
ATOM     44  C   UNL     1      -6.540  -2.045  -0.105  0.00  0.00    +0.056 A 
ATOM     45  C   UNL     1      -7.855  -2.409  -0.484  0.00  0.00    +0.110 A 
ATOM     46  C   UNL     1      -9.018  -2.090   0.231  0.00  0.00    -0.066 A 
ATOM     47  O   UNL     1     -10.181  -2.446  -0.148  0.00  0.00    -0.871 OA
ATOM     48  C   UNL     1      -8.750  -1.367   1.399  0.00  0.00    -0.004 A 
BRANCH  45  49
ATOM     49  O   UNL     1      -8.050  -3.146  -1.636  0.00  0.00    -0.507 OA
ATOM     50  H   UNL     1      -9.040  -3.213  -1.598  0.00  0.00    +0.292 HD
ENDBRANCH  45  49
ENDBRANCH  31  43
BRANCH  37  51
ATOM     51  O   UNL     1      -2.484   3.346   5.153  0.00  0.00    -0.507 OA
ATOM     52  H   UNL     1      -1.591   3.688   5.253  0.00  0.00    +0.292 HD
ENDBRANCH  37  51
BRANCH  35  53
ATOM     53  O   UNL     1      -0.069   0.559   2.194  0.00  0.00    -0.506 OA
ATOM     54  H   UNL     1      -0.195  -0.292   1.723  0.00  0.00    +0.292 HD
ENDBRANCH  35  53
ENDBRANCH  30  41
ENDBRANCH   1  30
TORSDOF 17
