REMARK  Name = 
REMARK  15 active torsions:
REMARK  status: ('A' for Active; 'I' for Inactive)
REMARK    1  A    between atoms: C_1  and  C_2
REMARK    2  A    between atoms: C_4  and  O_52
REMARK    3  A    between atoms: C_6  and  O_51
REMARK    4  A    between atoms: C_8  and  O_50
REMARK    5  A    between atoms: C_10  and  O_13
REMARK    6  A    between atoms: O_13  and  C_14
REMARK    7  A    between atoms: C_16  and  O_49
REMARK    8  A    between atoms: C_21  and  C_41
REMARK    9  A    between atoms: C_22  and  O_25
REMARK   10  A    between atoms: O_25  and  C_26
REMARK   11  A    between atoms: C_28  and  O_40
REMARK   12  A    between atoms: C_30  and  O_39
REMARK   13  A    between atoms: C_32  and  O_38
REMARK   14  A    between atoms: C_34  and  C_37
REMARK   15  A    between atoms: C_43  and  O_48
REMARK                            x       y       z     vdW  Elec       q    Type
REMARK                         _______ _______ _______ _____ _____    ______ ____
ROOT
ATOM      1  C   UNL     1       2.627   3.046  -3.242  0.00  0.00    +0.131 A 
ATOM      2  C   UNL     1       1.385   3.552  -2.839  0.00  0.00    +0.093 A 
ATOM      3  C   UNL     1       1.197   4.938  -2.734  0.00  0.00    +0.147 A 
ATOM      4  O   UNL     1      -0.032   5.402  -2.320  0.00  0.00    -0.451 OA
ATOM      5  C   UNL     1      -0.291   6.773  -2.416  0.00  0.00    +0.181 A 
ATOM      6  C   UNL     1       0.640   7.716  -2.667  0.00  0.00    +0.214 A 
ATOM      7  C   UNL     1       2.048   7.219  -2.710  0.00  0.00    +0.238 A 
ATOM      8  O   UNL     1       2.990   7.955  -2.454  0.00  0.00    -0.283 OA
ATOM      9  C   UNL     1       2.248   5.802  -3.015  0.00  0.00    +0.109 A 
ATOM     10  C   UNL     1       3.462   5.300  -3.487  0.00  0.00    +0.135 A 
ATOM     11  C   UNL     1       3.651   3.927  -3.596  0.00  0.00    +0.092 A 
ENDROOT
BRANCH   5  12
ATOM     12  C   UNL     1      -1.701   7.104  -2.148  0.00  0.00    +0.024 A 
ATOM     13  C   UNL     1      -2.633   7.192  -3.177  0.00  0.00    +0.011 A 
ATOM     14  C   UNL     1      -3.981   7.478  -2.889  0.00  0.00    -0.004 A 
ATOM     15  C   UNL     1      -4.479   7.687  -1.588  0.00  0.00    -0.066 A 
ATOM     16  O   UNL     1      -5.722   7.937  -1.391  0.00  0.00    -0.871 OA
ATOM     17  C   UNL     1      -3.496   7.600  -0.579  0.00  0.00    +0.110 A 
ATOM     18  C   UNL     1      -2.140   7.310  -0.837  0.00  0.00    +0.056 A 
BRANCH  17  19
ATOM     19  O   UNL     1      -3.860   7.808   0.739  0.00  0.00    -0.507 OA
ATOM     20  H   UNL     1      -3.209   7.374   1.301  0.00  0.00    +0.292 HD
ENDBRANCH  17  19
ENDBRANCH   5  12
BRANCH  10  21
ATOM     21  O   UNL     1       4.468   6.136  -3.878  0.00  0.00    -0.506 OA
ATOM     22  H   UNL     1       5.297   5.639  -3.961  0.00  0.00    +0.292 HD
ENDBRANCH  10  21
BRANCH   1  23
ATOM     23  O   UNL     1       3.005   1.737  -3.325  0.00  0.00    -0.461 OA
BRANCH  23  27
ATOM     24  C   UNL     1      -0.613   0.007  -1.693  0.00  0.00    +0.041 C 
ATOM     25  C   UNL     1       0.792  -0.195  -1.135  0.00  0.00    +0.150 C 
ATOM     26  O   UNL     1       1.703   0.808  -1.598  0.00  0.00    -0.334 OA
ATOM     27  C   UNL     1       2.066   0.715  -2.979  0.00  0.00    +0.339 C 
ATOM     28  C   UNL     1       2.759  -0.638  -3.266  0.00  0.00    +0.214 C 
ATOM     29  C   UNL     1       1.899  -1.814  -2.784  0.00  0.00    +0.180 C 
ATOM     30  C   UNL     1       1.395  -1.593  -1.352  0.00  0.00    +0.174 C 
BRANCH  28  31
ATOM     31  O   UNL     1       3.052  -0.795  -4.665  0.00  0.00    -0.383 OA
ATOM     32  H   UNL     1       2.370  -1.385  -5.041  0.00  0.00    +0.210 HD
ENDBRANCH  28  31
BRANCH  29  33
ATOM     33  O   UNL     1       0.838  -2.075  -3.716  0.00  0.00    -0.386 OA
ATOM     34  H   UNL     1       0.352  -1.260  -3.919  0.00  0.00    +0.210 HD
ENDBRANCH  29  33
BRANCH  30  35
ATOM     35  O   UNL     1       2.517  -1.737  -0.462  0.00  0.00    -0.387 OA
ATOM     36  H   UNL     1       2.941  -0.862  -0.368  0.00  0.00    +0.210 HD
ENDBRANCH  30  35
ENDBRANCH  23  27
ENDBRANCH   1  23
BRANCH   6  37
ATOM     37  O   UNL     1       0.360   9.081  -2.783  0.00  0.00    -0.453 OA
BRANCH  37  38
ATOM     38  C   UNL     1       1.212   9.772  -3.713  0.00  0.00    +0.339 C 
ATOM     39  O   UNL     1       2.087  10.725  -3.089  0.00  0.00    -0.334 OA
ATOM     40  C   UNL     1       1.454  11.907  -2.597  0.00  0.00    +0.150 C 
ATOM     41  C   UNL     1       2.527  12.758  -1.919  0.00  0.00    +0.041 C 
ATOM     42  C   UNL     1       0.789  12.675  -3.745  0.00  0.00    +0.174 C 
ATOM     43  C   UNL     1      -0.247  11.751  -4.404  0.00  0.00    +0.180 C 
ATOM     44  C   UNL     1       0.398  10.431  -4.848  0.00  0.00    +0.214 C 
BRANCH  42  45
ATOM     45  O   UNL     1       0.193  13.881  -3.255  0.00  0.00    -0.387 OA
ATOM     46  H   UNL     1      -0.765  13.822  -3.423  0.00  0.00    +0.210 HD
ENDBRANCH  42  45
BRANCH  43  47
ATOM     47  O   UNL     1      -0.849  12.443  -5.511  0.00  0.00    -0.386 OA
ATOM     48  H   UNL     1      -0.863  11.823  -6.265  0.00  0.00    +0.210 HD
ENDBRANCH  43  47
BRANCH  44  49
ATOM     49  O   UNL     1       1.255  10.696  -5.984  0.00  0.00    -0.383 OA
ATOM     50  H   UNL     1       2.120  10.986  -5.630  0.00  0.00    +0.210 HD
ENDBRANCH  44  49
ENDBRANCH  37  38
ENDBRANCH   6  37
TORSDOF 13
