REMARK  Name = 
REMARK  7 active torsions:
REMARK  status: ('A' for Active; 'I' for Inactive)
REMARK    1  A    between atoms: C_3  and  O_26
REMARK    2  A    between atoms: C_4  and  O_25
REMARK    3  A    between atoms: C_6  and  C_7
REMARK    4  A    between atoms: C_8  and  O_24
REMARK    5  A    between atoms: C_14  and  S_20
REMARK    6  A    between atoms: C_15  and  O_19
REMARK    7  A    between atoms: C_17  and  O_18
REMARK                            x       y       z     vdW  Elec       q    Type
REMARK                         _______ _______ _______ _____ _____    ______ ____
ROOT
ATOM      1  C   UNL     1      -1.429  -2.408   0.332  0.00  0.00    +0.181 A 
ATOM      2  O   UNL     1      -0.653  -3.560   0.513  0.00  0.00    -0.449 OA
ATOM      3  C   UNL     1      -1.142  -4.802   0.144  0.00  0.00    +0.170 A 
ATOM      4  C   UNL     1      -0.336  -5.944   0.274  0.00  0.00    +0.161 A 
ATOM      5  C   UNL     1      -0.848  -7.224   0.004  0.00  0.00    +0.148 A 
ATOM      6  C   UNL     1      -2.173  -7.380  -0.399  0.00  0.00    +0.093 A 
ATOM      7  C   UNL     1      -2.965  -6.254  -0.580  0.00  0.00    +0.135 A 
ATOM      8  C   UNL     1      -2.439  -4.974  -0.343  0.00  0.00    +0.111 A 
ATOM      9  C   UNL     1      -3.213  -3.767  -0.652  0.00  0.00    +0.238 A 
ATOM     10  O   UNL     1      -4.291  -3.740  -1.229  0.00  0.00    -0.283 OA
ATOM     11  C   UNL     1      -2.640  -2.473  -0.250  0.00  0.00    +0.208 A 
ENDROOT
BRANCH   1  13
ATOM     12  C   UNL     1      -1.385   0.144   0.616  0.00  0.00    +0.015 A 
ATOM     13  C   UNL     1      -0.763  -1.121   0.761  0.00  0.00    +0.025 A 
ATOM     14  C   UNL     1       0.549  -1.103   1.277  0.00  0.00    +0.060 A 
ATOM     15  C   UNL     1       1.214   0.117   1.480  0.00  0.00    +0.159 A 
ATOM     16  C   UNL     1       0.604   1.336   1.200  0.00  0.00    +0.158 A 
ATOM     17  C   UNL     1      -0.718   1.361   0.817  0.00  0.00    +0.050 A 
BRANCH  15  18
ATOM     18  O   UNL     1       2.511   0.106   1.899  0.00  0.00    -0.503 OA
ATOM     19  H   UNL     1       2.889   0.963   1.635  0.00  0.00    +0.292 HD
ENDBRANCH  15  18
BRANCH  16  20
ATOM     20  O   UNL     1       1.360   2.470   1.210  0.00  0.00    -0.503 OA
ATOM     21  H   UNL     1       0.944   3.130   0.622  0.00  0.00    +0.292 HD
ENDBRANCH  16  20
ENDBRANCH   1  13
BRANCH   4  22
ATOM     22  S   UNL     1       1.389  -5.730   0.734  0.00  0.00    -0.044 S 
ATOM     23  O   UNL     1       1.889  -7.102   0.764  0.00  0.00    -0.720 OA
ATOM     24  O   UNL     1       1.264  -5.065   2.029  0.00  0.00    -0.180 OA
ATOM     25  O   UNL     1       1.904  -4.896  -0.347  0.00  0.00    -0.180 OA
ENDBRANCH   4  22
BRANCH   5  26
ATOM     26  O   UNL     1      -0.152  -8.396   0.112  0.00  0.00    -0.505 OA
ATOM     27  H   UNL     1       0.784  -8.172   0.364  0.00  0.00    +0.292 HD
ENDBRANCH   5  26
BRANCH   7  28
ATOM     28  O   UNL     1      -4.265  -6.421  -0.971  0.00  0.00    -0.506 OA
ATOM     29  H   UNL     1      -4.444  -7.359  -1.139  0.00  0.00    +0.292 HD
ENDBRANCH   7  28
BRANCH  11  30
ATOM     30  O   UNL     1      -3.440  -1.388  -0.566  0.00  0.00    -0.501 OA
ATOM     31  H   UNL     1      -4.128  -1.769  -1.160  0.00  0.00    +0.292 HD
ENDBRANCH  11  30
TORSDOF 7
REMARK  Name = 
REMARK  7 active torsions:
REMARK  status: ('A' for Active; 'I' for Inactive)
REMARK    1  A    between atoms: C_3  and  O_26
REMARK    2  A    between atoms: C_4  and  O_25
REMARK    3  A    between atoms: C_6  and  C_7
REMARK    4  A    between atoms: C_8  and  O_24
REMARK    5  A    between atoms: C_14  and  S_20
REMARK    6  A    between atoms: C_15  and  O_19
REMARK    7  A    between atoms: C_17  and  O_18
REMARK                            x       y       z     vdW  Elec       q    Type
REMARK                         _______ _______ _______ _____ _____    ______ ____
ROOT
ATOM      1  O   HOH     1       0.701   0.482  -1.783  0.00  0.00    -0.410 OA
ATOM      2  H   HOH     0       1.082   1.247  -1.329  0.00  0.00    +0.205 HD
ATOM      3  H   HOH     0       1.263  -0.239  -1.401  0.00  0.00    +0.205 HD
ENDROOT
TORSDOF 0
REMARK  Name = 
REMARK  7 active torsions:
REMARK  status: ('A' for Active; 'I' for Inactive)
REMARK    1  A    between atoms: C_3  and  O_26
REMARK    2  A    between atoms: C_4  and  O_25
REMARK    3  A    between atoms: C_6  and  C_7
REMARK    4  A    between atoms: C_8  and  O_24
REMARK    5  A    between atoms: C_14  and  S_20
REMARK    6  A    between atoms: C_15  and  O_19
REMARK    7  A    between atoms: C_17  and  O_18
REMARK                            x       y       z     vdW  Elec       q    Type
REMARK                         _______ _______ _______ _____ _____    ______ ____
ROOT
ATOM      1  O   HOH     1       2.691  -1.250  -1.319  0.00  0.00    -0.410 OA
ATOM      2  H   HOH     0       2.507  -1.872  -2.054  0.00  0.00    +0.205 HD
ATOM      3  H   HOH     0       3.339  -1.777  -0.813  0.00  0.00    +0.205 HD
ENDROOT
TORSDOF 0
REMARK  Name = 
REMARK  7 active torsions:
REMARK  status: ('A' for Active; 'I' for Inactive)
REMARK    1  A    between atoms: C_3  and  O_26
REMARK    2  A    between atoms: C_4  and  O_25
REMARK    3  A    between atoms: C_6  and  C_7
REMARK    4  A    between atoms: C_8  and  O_24
REMARK    5  A    between atoms: C_14  and  S_20
REMARK    6  A    between atoms: C_15  and  O_19
REMARK    7  A    between atoms: C_17  and  O_18
REMARK                            x       y       z     vdW  Elec       q    Type
REMARK                         _______ _______ _______ _____ _____    ______ ____
ROOT
ATOM      1  O   HOH     1       1.522  -0.491  -4.003  0.00  0.00    -0.410 OA
ATOM      2  H   HOH     0       0.708  -0.642  -3.481  0.00  0.00    +0.205 HD
ATOM      3  H   HOH     0       1.877   0.241  -3.465  0.00  0.00    +0.205 HD
ENDROOT
TORSDOF 0
REMARK  Name = 
REMARK  7 active torsions:
REMARK  status: ('A' for Active; 'I' for Inactive)
REMARK    1  A    between atoms: C_3  and  O_26
REMARK    2  A    between atoms: C_4  and  O_25
REMARK    3  A    between atoms: C_6  and  C_7
REMARK    4  A    between atoms: C_8  and  O_24
REMARK    5  A    between atoms: C_14  and  S_20
REMARK    6  A    between atoms: C_15  and  O_19
REMARK    7  A    between atoms: C_17  and  O_18
REMARK                            x       y       z     vdW  Elec       q    Type
REMARK                         _______ _______ _______ _____ _____    ______ ____
ROOT
ATOM      1 NA   UNL     1      -0.847  -0.593   3.641  0.00  0.00    +0.000 Na
ENDROOT
TORSDOF 0
