REMARK  Name = 
REMARK  16 active torsions:
REMARK  status: ('A' for Active; 'I' for Inactive)
REMARK    1  A    between atoms: C_1  and  C_2
REMARK    2  A    between atoms: C_4  and  O_52
REMARK    3  A    between atoms: C_6  and  O_51
REMARK    4  A    between atoms: C_8  and  O_50
REMARK    5  A    between atoms: C_10  and  O_13
REMARK    6  A    between atoms: O_13  and  C_14
REMARK    7  A    between atoms: C_16  and  O_49
REMARK    8  A    between atoms: C_21  and  C_41
REMARK    9  A    between atoms: C_22  and  O_25
REMARK   10  A    between atoms: O_25  and  C_26
REMARK   11  A    between atoms: C_28  and  O_40
REMARK   12  A    between atoms: C_30  and  O_39
REMARK   13  A    between atoms: C_32  and  O_38
REMARK   14  A    between atoms: C_34  and  C_37
REMARK   15  A    between atoms: C_43  and  O_48
REMARK   16  A    between atoms: C_44  and  O_47
REMARK                            x       y       z     vdW  Elec       q    Type
REMARK                         _______ _______ _______ _____ _____    ______ ____
ROOT
ATOM      1  C   UNL     1       2.683   2.931  -3.302  0.00  0.00    +0.131 A 
ATOM      2  C   UNL     1       1.436   3.435  -2.909  0.00  0.00    +0.093 A 
ATOM      3  C   UNL     1       1.243   4.820  -2.817  0.00  0.00    +0.147 A 
ATOM      4  O   UNL     1       0.018   5.288  -2.399  0.00  0.00    -0.451 OA
ATOM      5  C   UNL     1      -0.221   6.661  -2.456  0.00  0.00    +0.181 A 
ATOM      6  C   UNL     1       0.724   7.610  -2.654  0.00  0.00    +0.214 A 
ATOM      7  C   UNL     1       2.125   7.085  -2.742  0.00  0.00    +0.238 A 
ATOM      8  O   UNL     1       3.108   7.740  -2.434  0.00  0.00    -0.283 OA
ATOM      9  C   UNL     1       2.296   5.677  -3.103  0.00  0.00    +0.109 A 
ATOM     10  C   UNL     1       3.513   5.175  -3.578  0.00  0.00    +0.135 A 
ATOM     11  C   UNL     1       3.705   3.807  -3.670  0.00  0.00    +0.092 A 
ENDROOT
BRANCH   5  12
ATOM     12  C   UNL     1      -1.633   7.006  -2.181  0.00  0.00    +0.025 A 
ATOM     13  C   UNL     1      -2.044   7.221  -0.851  0.00  0.00    +0.015 A 
ATOM     14  C   UNL     1      -3.372   7.549  -0.554  0.00  0.00    +0.050 A 
ATOM     15  C   UNL     1      -4.287   7.657  -1.586  0.00  0.00    +0.158 A 
ATOM     16  C   UNL     1      -3.900   7.435  -2.907  0.00  0.00    +0.159 A 
ATOM     17  C   UNL     1      -2.578   7.106  -3.213  0.00  0.00    +0.060 A 
BRANCH  15  18
ATOM     18  O   UNL     1      -5.581   7.987  -1.296  0.00  0.00    -0.503 OA
ATOM     19  H   UNL     1      -6.028   8.031  -2.164  0.00  0.00    +0.292 HD
ENDBRANCH  15  18
BRANCH  16  20
ATOM     20  O   UNL     1      -4.865   7.547  -3.868  0.00  0.00    -0.503 OA
ATOM     21  H   UNL     1      -4.461   7.357  -4.731  0.00  0.00    +0.292 HD
ENDBRANCH  16  20
ENDBRANCH   5  12
BRANCH  10  22
ATOM     22  O   UNL     1       4.516   6.019  -3.977  0.00  0.00    -0.506 OA
ATOM     23  H   UNL     1       5.351   5.524  -4.006  0.00  0.00    +0.292 HD
ENDBRANCH  10  22
BRANCH   1  24
ATOM     24  O   UNL     1       3.073   1.625  -3.357  0.00  0.00    -0.461 OA
BRANCH  24  28
ATOM     25  C   UNL     1      -0.539  -0.163  -1.862  0.00  0.00    +0.041 C 
ATOM     26  C   UNL     1       0.833  -0.312  -1.209  0.00  0.00    +0.150 C 
ATOM     27  O   UNL     1       1.744   0.696  -1.657  0.00  0.00    -0.334 OA
ATOM     28  C   UNL     1       2.127   0.606  -3.030  0.00  0.00    +0.339 C 
ATOM     29  C   UNL     1       2.808  -0.751  -3.333  0.00  0.00    +0.214 C 
ATOM     30  C   UNL     1       1.898  -1.900  -2.864  0.00  0.00    +0.180 C 
ATOM     31  C   UNL     1       1.458  -1.700  -1.403  0.00  0.00    +0.174 C 
BRANCH  29  32
ATOM     32  O   UNL     1       3.096  -0.849  -4.741  0.00  0.00    -0.383 OA
ATOM     33  H   UNL     1       2.459  -1.458  -5.149  0.00  0.00    +0.210 HD
ENDBRANCH  29  32
BRANCH  30  34
ATOM     34  O   UNL     1       2.558  -3.157  -3.058  0.00  0.00    -0.386 OA
ATOM     35  H   UNL     1       2.267  -3.766  -2.355  0.00  0.00    +0.210 HD
ENDBRANCH  30  34
BRANCH  31  36
ATOM     36  O   UNL     1       2.587  -1.844  -0.530  0.00  0.00    -0.387 OA
ATOM     37  H   UNL     1       3.095  -1.009  -0.549  0.00  0.00    +0.210 HD
ENDBRANCH  31  36
ENDBRANCH  24  28
ENDBRANCH   1  24
BRANCH   6  38
ATOM     38  O   UNL     1       0.405   8.971  -2.752  0.00  0.00    -0.453 OA
BRANCH  38  39
ATOM     39  C   UNL     1       1.454   9.926  -2.532  0.00  0.00    +0.339 C 
ATOM     40  O   UNL     1       1.603  10.238  -1.147  0.00  0.00    -0.334 OA
ATOM     41  C   UNL     1       0.593  11.109  -0.629  0.00  0.00    +0.150 C 
ATOM     42  C   UNL     1       0.873  11.294   0.859  0.00  0.00    +0.041 C 
ATOM     43  C   UNL     1       0.598  12.452  -1.373  0.00  0.00    +0.174 C 
ATOM     44  C   UNL     1       0.316  12.187  -2.858  0.00  0.00    +0.180 C 
ATOM     45  C   UNL     1       1.326  11.191  -3.409  0.00  0.00    +0.214 C 
BRANCH  43  46
ATOM     46  O   UNL     1      -0.376  13.331  -0.802  0.00  0.00    -0.387 OA
ATOM     47  H   UNL     1      -1.001  13.579  -1.506  0.00  0.00    +0.210 HD
ENDBRANCH  43  46
BRANCH  44  48
ATOM     48  O   UNL     1       0.408  13.417  -3.598  0.00  0.00    -0.386 OA
ATOM     49  H   UNL     1       0.503  13.152  -4.535  0.00  0.00    +0.210 HD
ENDBRANCH  44  48
BRANCH  45  50
ATOM     50  O   UNL     1       1.014  10.907  -4.783  0.00  0.00    -0.383 OA
ATOM     51  H   UNL     1       1.653  10.237  -5.089  0.00  0.00    +0.210 HD
ENDBRANCH  45  50
ENDBRANCH  38  39
ENDBRANCH   6  38
TORSDOF 14
