REMARK  Name = 
REMARK  17 active torsions:
REMARK  status: ('A' for Active; 'I' for Inactive)
REMARK    1  A    between atoms: C_1  and  C_2
REMARK    2  A    between atoms: C_4  and  O_53
REMARK    3  A    between atoms: C_6  and  O_52
REMARK    4  A    between atoms: C_8  and  O_51
REMARK    5  A    between atoms: C_10  and  O_13
REMARK    6  A    between atoms: O_13  and  C_14
REMARK    7  A    between atoms: C_16  and  O_50
REMARK    8  A    between atoms: C_18  and  O_49
REMARK    9  A    between atoms: C_20  and  C_47
REMARK   10  A    between atoms: C_23  and  O_25
REMARK   11  A    between atoms: O_25  and  C_26
REMARK   12  A    between atoms: C_27  and  C_39
REMARK   13  A    between atoms: C_31  and  O_38
REMARK   14  A    between atoms: C_33  and  O_37
REMARK   15  A    between atoms: C_41  and  O_46
REMARK   16  A    between atoms: C_42  and  O_45
REMARK   17  A    between atoms: C_47  and  O_48
REMARK                            x       y       z     vdW  Elec       q    Type
REMARK                         _______ _______ _______ _____ _____    ______ ____
ROOT
ATOM      1  C   UNL     1       3.030   2.966  -3.019  0.00  0.00    +0.221 C 
ATOM      2  C   UNL     1       2.042   2.207  -3.942  0.00  0.00    +0.340 C 
ATOM      3  O   UNL     1       2.625   2.117  -5.260  0.00  0.00    -0.331 OA
ATOM      4  C   UNL     1       2.609   3.434  -5.859  0.00  0.00    +0.179 C 
ATOM      5  C   UNL     1       3.688   4.271  -5.162  0.00  0.00    +0.177 C 
ATOM      6  C   UNL     1       3.361   4.338  -3.663  0.00  0.00    +0.180 C 
ENDROOT
BRANCH   6   7
ATOM      7  O   UNL     1       4.428   5.003  -2.976  0.00  0.00    -0.386 OA
ATOM      8  H   UNL     1       4.344   4.781  -2.027  0.00  0.00    +0.210 HD
ENDBRANCH   6   7
BRANCH   5   9
ATOM      9  O   UNL     1       3.715   5.612  -5.678  0.00  0.00    -0.386 OA
ATOM     10  H   UNL     1       4.262   6.121  -5.045  0.00  0.00    +0.210 HD
ENDBRANCH   5   9
BRANCH   4  11
ATOM     11  C   UNL     1       2.760   3.392  -7.382  0.00  0.00    +0.190 C 
BRANCH  11  12
ATOM     12  O   UNL     1       2.609   4.690  -7.963  0.00  0.00    -0.392 OA
ATOM     13  H   UNL     1       3.045   5.330  -7.359  0.00  0.00    +0.210 HD
ENDBRANCH  11  12
ENDBRANCH   4  11
BRANCH   2  14
ATOM     14  O   UNL     1       1.614   0.945  -3.392  0.00  0.00    -0.453 OA
BRANCH  14  15
ATOM     15  C   UNL     1       0.319   0.503  -3.699  0.00  0.00    +0.214 A 
ATOM     16  C   UNL     1      -0.388   1.014  -4.946  0.00  0.00    +0.238 A 
ATOM     17  O   UNL     1       0.036   1.971  -5.585  0.00  0.00    -0.283 OA
ATOM     18  C   UNL     1      -1.647   0.409  -5.357  0.00  0.00    +0.109 A 
ATOM     19  C   UNL     1      -2.211  -0.518  -4.505  0.00  0.00    +0.147 A 
ATOM     20  C   UNL     1      -3.405  -1.157  -4.851  0.00  0.00    +0.092 A 
ATOM     21  C   UNL     1      -4.024  -0.845  -6.058  0.00  0.00    +0.124 A 
ATOM     22  C   UNL     1      -3.489   0.113  -6.909  0.00  0.00    +0.091 A 
ATOM     23  O   UNL     1      -1.669  -0.825  -3.291  0.00  0.00    -0.451 OA
ATOM     24  C   UNL     1      -2.301   0.747  -6.554  0.00  0.00    +0.135 A 
ATOM     25  C   UNL     1      -0.419  -0.329  -2.901  0.00  0.00    +0.181 A 
BRANCH  25  26
ATOM     26  C   UNL     1      -0.112  -0.801  -1.491  0.00  0.00    +0.025 A 
ATOM     27  C   UNL     1      -1.131  -1.469  -0.755  0.00  0.00    +0.015 A 
ATOM     28  C   UNL     1      -0.980  -1.851   0.587  0.00  0.00    +0.050 A 
ATOM     29  C   UNL     1       0.210  -1.579   1.226  0.00  0.00    +0.158 A 
ATOM     30  C   UNL     1       1.241  -0.952   0.535  0.00  0.00    +0.159 A 
ATOM     31  C   UNL     1       1.090  -0.560  -0.802  0.00  0.00    +0.060 A 
BRANCH  29  32
ATOM     32  O   UNL     1       0.357  -1.919   2.541  0.00  0.00    -0.503 OA
ATOM     33  H   UNL     1       1.246  -1.590   2.781  0.00  0.00    +0.292 HD
ENDBRANCH  29  32
BRANCH  30  34
ATOM     34  O   UNL     1       2.403  -0.727   1.230  0.00  0.00    -0.503 OA
ATOM     35  H   UNL     1       3.029  -0.296   0.623  0.00  0.00    +0.292 HD
ENDBRANCH  30  34
ENDBRANCH  25  26
BRANCH  24  36
ATOM     36  O   UNL     1      -1.798   1.700  -7.393  0.00  0.00    -0.506 OA
ATOM     37  H   UNL     1      -2.398   1.853  -8.141  0.00  0.00    +0.292 HD
ENDBRANCH  24  36
BRANCH  21  38
ATOM     38  O   UNL     1      -5.176  -1.453  -6.455  0.00  0.00    -0.507 OA
ATOM     39  H   UNL     1      -5.420  -2.130  -5.805  0.00  0.00    +0.292 HD
ENDBRANCH  21  38
ENDBRANCH  14  15
ENDBRANCH   2  14
BRANCH   1  40
ATOM     40  O   UNL     1       2.611   3.111  -1.639  0.00  0.00    -0.337 OA
BRANCH  40  44
ATOM     41  C   UNL     1       0.753   5.577   1.950  0.00  0.00    +0.041 C 
ATOM     42  C   UNL     1       0.618   5.320   0.456  0.00  0.00    +0.149 C 
ATOM     43  O   UNL     1       1.562   4.295   0.087  0.00  0.00    -0.343 OA
ATOM     44  C   UNL     1       1.549   4.023  -1.328  0.00  0.00    +0.282 C 
ATOM     45  C   UNL     1       0.148   3.526  -1.728  0.00  0.00    +0.201 C 
ATOM     46  C   UNL     1      -0.884   4.589  -1.406  0.00  0.00    +0.179 C 
ATOM     47  C   UNL     1      -0.828   4.926   0.085  0.00  0.00    +0.174 C 
BRANCH  47  48
ATOM     48  O   UNL     1      -1.266   3.808   0.865  0.00  0.00    -0.387 OA
ATOM     49  H   UNL     1      -0.649   3.068   0.668  0.00  0.00    +0.210 HD
ENDBRANCH  47  48
BRANCH  46  50
ATOM     50  O   UNL     1      -2.158   4.077  -1.821  0.00  0.00    -0.386 OA
ATOM     51  H   UNL     1      -2.838   4.723  -1.566  0.00  0.00    +0.210 HD
ENDBRANCH  46  50
BRANCH  45  52
ATOM     52  O   UNL     1      -0.178   2.310  -1.045  0.00  0.00    -0.384 OA
ATOM     53  H   UNL     1      -1.119   2.136  -1.256  0.00  0.00    +0.210 HD
ENDBRANCH  45  52
ENDBRANCH  40  44
ENDBRANCH   1  40
TORSDOF 16
