REMARK  Name = 
REMARK  7 active torsions:
REMARK  status: ('A' for Active; 'I' for Inactive)
REMARK    1  A    between atoms: C_2  and  C_13
REMARK    2  A    between atoms: C_4  and  S_9
REMARK    3  A    between atoms: C_5  and  O_8
REMARK    4  A    between atoms: C_6  and  O_7
REMARK    5  A    between atoms: C_14  and  O_26
REMARK    6  A    between atoms: C_18  and  O_25
REMARK    7  A    between atoms: C_20  and  O_24
REMARK                            x       y       z     vdW  Elec       q    Type
REMARK                         _______ _______ _______ _____ _____    ______ ____
ROOT
ATOM      1  C   UNL     1       1.501   2.331  -0.023  0.00  0.00    +0.181 A 
ATOM      2  O   UNL     1       0.810   3.548   0.008  0.00  0.00    -0.451 OA
ATOM      3  C   UNL     1       1.520   4.729  -0.004  0.00  0.00    +0.147 A 
ATOM      4  C   UNL     1       2.911   4.784  -0.037  0.00  0.00    +0.109 A 
ATOM      5  C   UNL     1       3.594   6.004  -0.011  0.00  0.00    +0.135 A 
ATOM      6  C   UNL     1       2.884   7.193   0.027  0.00  0.00    +0.091 A 
ATOM      7  C   UNL     1       1.494   7.138   0.041  0.00  0.00    +0.124 A 
ATOM      8  C   UNL     1       3.635   3.533  -0.083  0.00  0.00    +0.238 A 
ATOM      9  O   UNL     1       4.867   3.480  -0.107  0.00  0.00    -0.283 OA
ATOM     10  C   UNL     1       0.805   5.924   0.031  0.00  0.00    +0.092 A 
ATOM     11  C   UNL     1       2.856   2.279  -0.053  0.00  0.00    +0.208 A 
ENDROOT
BRANCH   1  17
ATOM     12  C   UNL     1      -0.801   1.182   0.098  0.00  0.00    +0.061 A 
ATOM     13  C   UNL     1      -1.577   0.007   0.142  0.00  0.00    +0.161 A 
ATOM     14  C   UNL     1      -1.011  -1.264   0.120  0.00  0.00    +0.183 A 
ATOM     15  C   UNL     1       0.357  -1.333   0.064  0.00  0.00    +0.122 A 
ATOM     16  C   UNL     1       1.134  -0.172   0.005  0.00  0.00    +0.041 A 
ATOM     17  C   UNL     1       0.602   1.122   0.012  0.00  0.00    +0.027 A 
BRANCH  15  18
ATOM     18  S   UNL     1       1.292  -2.851   0.200  0.00  0.00    -0.048 S 
ATOM     19  O   UNL     1       0.238  -3.859   0.181  0.00  0.00    -0.720 OA
ATOM     20  O   UNL     1       1.939  -2.583   1.487  0.00  0.00    -0.180 OA
ATOM     21  O   UNL     1       2.150  -2.765  -0.975  0.00  0.00    -0.180 OA
ENDBRANCH  15  18
BRANCH  13  22
ATOM     22  O   UNL     1      -2.939   0.112   0.252  0.00  0.00    -0.503 OA
ATOM     23  H   UNL     1      -3.260  -0.813   0.182  0.00  0.00    +0.292 HD
ENDBRANCH  13  22
BRANCH  14  24
ATOM     24  O   UNL     1      -1.841  -2.344   0.195  0.00  0.00    -0.502 OA
ATOM     25  H   UNL     1      -1.274  -3.167   0.128  0.00  0.00    +0.292 HD
ENDBRANCH  14  24
ENDBRANCH   1  17
BRANCH   5  26
ATOM     26  O   UNL     1       4.959   6.102  -0.012  0.00  0.00    -0.506 OA
ATOM     27  H   UNL     1       5.346   5.201  -0.087  0.00  0.00    +0.292 HD
ENDBRANCH   5  26
BRANCH   7  28
ATOM     28  O   UNL     1       0.756   8.288   0.059  0.00  0.00    -0.507 OA
ATOM     29  H   UNL     1       1.355   9.051  -0.025  0.00  0.00    +0.292 HD
ENDBRANCH   7  28
BRANCH  11  30
ATOM     30  O   UNL     1       3.627   1.137  -0.030  0.00  0.00    -0.501 OA
ATOM     31  H   UNL     1       4.545   1.422  -0.245  0.00  0.00    +0.292 HD
ENDBRANCH  11  30
TORSDOF 7
REMARK  Name = 
REMARK  7 active torsions:
REMARK  status: ('A' for Active; 'I' for Inactive)
REMARK    1  A    between atoms: C_2  and  C_13
REMARK    2  A    between atoms: C_4  and  S_9
REMARK    3  A    between atoms: C_5  and  O_8
REMARK    4  A    between atoms: C_6  and  O_7
REMARK    5  A    between atoms: C_14  and  O_26
REMARK    6  A    between atoms: C_18  and  O_25
REMARK    7  A    between atoms: C_20  and  O_24
REMARK                            x       y       z     vdW  Elec       q    Type
REMARK                         _______ _______ _______ _____ _____    ______ ____
ROOT
ATOM      1  C   UNL     1       1.124  -0.338  -3.144  0.00  0.00    +0.322 C 
ATOM      2  N   UNL     1       2.418  -0.408  -2.721  0.00  0.00    -0.332 N 
ATOM      3  H   UNL     1       2.702  -1.303  -2.307  0.00  0.00    +0.145 HD
ATOM      4  H   UNL     1       2.765   0.420  -2.261  0.00  0.00    +0.145 HD
ATOM      5  O   UNL     1       0.492   0.707  -3.181  0.00  0.00    -0.280 OA
ENDROOT
TORSDOF 0
REMARK  Name = 
REMARK  7 active torsions:
REMARK  status: ('A' for Active; 'I' for Inactive)
REMARK    1  A    between atoms: C_2  and  C_13
REMARK    2  A    between atoms: C_4  and  S_9
REMARK    3  A    between atoms: C_5  and  O_8
REMARK    4  A    between atoms: C_6  and  O_7
REMARK    5  A    between atoms: C_14  and  O_26
REMARK    6  A    between atoms: C_18  and  O_25
REMARK    7  A    between atoms: C_20  and  O_24
REMARK                            x       y       z     vdW  Elec       q    Type
REMARK                         _______ _______ _______ _____ _____    ______ ____
ROOT
ATOM      1  N   UNL     1       1.648   0.426   2.925  0.00  0.00    +0.210 N 
ATOM      2  H   UNL     1       2.086   1.205   3.415  0.00  0.00    +0.198 HD
ATOM      3  H   UNL     1       1.525  -0.405   3.519  0.00  0.00    +0.198 HD
ATOM      4  H   UNL     1       2.249   0.118   2.147  0.00  0.00    +0.198 HD
ATOM      5  H   UNL     1       0.733   0.695   2.548  0.00  0.00    +0.198 HD
ENDROOT
TORSDOF 0
