REMARK  Name = 
REMARK  22 active torsions:
REMARK  status: ('A' for Active; 'I' for Inactive)
REMARK    1  A    between atoms: C_1  and  C_2
REMARK    2  A    between atoms: C_4  and  O_68
REMARK    3  A    between atoms: C_6  and  O_67
REMARK    4  A    between atoms: C_8  and  O_66
REMARK    5  A    between atoms: C_10  and  O_13
REMARK    6  A    between atoms: O_13  and  C_14
REMARK    7  A    between atoms: C_14  and  C_15
REMARK    8  A    between atoms: C_17  and  O_65
REMARK    9  A    between atoms: C_19  and  O_64
REMARK   10  A    between atoms: C_21  and  O_63
REMARK   11  A    between atoms: C_23  and  O_26
REMARK   12  A    between atoms: O_26  and  C_27
REMARK   13  A    between atoms: C_28  and  C_55
REMARK   14  A    between atoms: C_32  and  O_39
REMARK   15  A    between atoms: C_34  and  O_38
REMARK   16  A    between atoms: O_39  and  C_40
REMARK   17  A    between atoms: C_42  and  O_54
REMARK   18  A    between atoms: C_44  and  O_53
REMARK   19  A    between atoms: C_46  and  O_52
REMARK   20  A    between atoms: C_48  and  C_51
REMARK   21  A    between atoms: C_57  and  O_62
REMARK   22  A    between atoms: C_58  and  O_61
REMARK                            x       y       z     vdW  Elec       q    Type
REMARK                         _______ _______ _______ _____ _____    ______ ____
ROOT
ATOM      1  C   UNL     1       4.045   6.774  -0.952  0.00  0.00    +0.214 A 
ATOM      2  C   UNL     1       4.492   7.977  -0.144  0.00  0.00    +0.238 A 
ATOM      3  O   UNL     1       4.112   9.127  -0.319  0.00  0.00    -0.283 OA
ATOM      4  C   UNL     1       5.390   7.755   0.988  0.00  0.00    +0.109 A 
ATOM      5  C   UNL     1       5.206   6.555   1.626  0.00  0.00    +0.147 A 
ATOM      6  C   UNL     1       5.802   6.332   2.870  0.00  0.00    +0.093 A 
ATOM      7  C   UNL     1       6.626   7.313   3.429  0.00  0.00    +0.131 A 
ATOM      8  C   UNL     1       6.852   8.507   2.737  0.00  0.00    +0.092 A 
ATOM      9  O   UNL     1       4.416   5.573   1.103  0.00  0.00    -0.451 OA
ATOM     10  C   UNL     1       6.219   8.728   1.514  0.00  0.00    +0.135 A 
ATOM     11  C   UNL     1       4.032   5.608  -0.250  0.00  0.00    +0.181 A 
ENDROOT
BRANCH  11  12
ATOM     12  C   UNL     1       3.569   4.222  -0.670  0.00  0.00    +0.025 A 
ATOM     13  C   UNL     1       3.615   3.182   0.303  0.00  0.00    +0.015 A 
ATOM     14  C   UNL     1       3.104   1.899   0.080  0.00  0.00    +0.050 A 
ATOM     15  C   UNL     1       2.553   1.610  -1.146  0.00  0.00    +0.158 A 
ATOM     16  C   UNL     1       2.568   2.566  -2.158  0.00  0.00    +0.159 A 
ATOM     17  C   UNL     1       3.061   3.865  -1.932  0.00  0.00    +0.060 A 
BRANCH  16  18
ATOM     18  O   UNL     1       2.079   2.175  -3.376  0.00  0.00    -0.503 OA
ATOM     19  H   UNL     1       2.456   2.767  -4.049  0.00  0.00    +0.292 HD
ENDBRANCH  16  18
BRANCH  15  20
ATOM     20  O   UNL     1       1.996   0.380  -1.346  0.00  0.00    -0.503 OA
ATOM     21  H   UNL     1       1.582   0.434  -2.229  0.00  0.00    +0.292 HD
ENDBRANCH  15  20
ENDBRANCH  11  12
BRANCH  10  22
ATOM     22  O   UNL     1       6.438   9.908   0.856  0.00  0.00    -0.506 OA
ATOM     23  H   UNL     1       6.540  10.616   1.515  0.00  0.00    +0.292 HD
ENDBRANCH  10  22
BRANCH   7  24
ATOM     24  O   UNL     1       7.262   7.233   4.650  0.00  0.00    -0.461 OA
BRANCH  24  25
ATOM     25  C   UNL     1       6.928   6.111   5.474  0.00  0.00    +0.339 C 
ATOM     26  O   UNL     1       5.599   6.181   5.993  0.00  0.00    -0.334 OA
ATOM     27  C   UNL     1       5.378   7.141   7.036  0.00  0.00    +0.150 C 
ATOM     28  C   UNL     1       5.256   8.574   6.511  0.00  0.00    +0.041 C 
ATOM     29  C   UNL     1       6.346   6.942   8.216  0.00  0.00    +0.174 C 
ATOM     30  C   UNL     1       7.811   6.826   7.786  0.00  0.00    +0.180 C 
ATOM     31  C   UNL     1       7.966   5.876   6.593  0.00  0.00    +0.214 C 
BRANCH  31  32
ATOM     32  O   UNL     1       9.314   5.873   6.116  0.00  0.00    -0.383 OA
ATOM     33  H   UNL     1       9.376   5.255   5.367  0.00  0.00    +0.210 HD
ENDBRANCH  31  32
BRANCH  30  34
ATOM     34  O   UNL     1       8.344   8.146   7.595  0.00  0.00    -0.386 OA
ATOM     35  H   UNL     1       8.096   8.459   6.709  0.00  0.00    +0.210 HD
ENDBRANCH  30  34
BRANCH  29  36
ATOM     36  O   UNL     1       6.207   7.976   9.193  0.00  0.00    -0.387 OA
ATOM     37  H   UNL     1       7.026   8.513   9.137  0.00  0.00    +0.210 HD
ENDBRANCH  29  36
ENDBRANCH  24  25
ENDBRANCH   7  24
BRANCH   1  38
ATOM     38  O   UNL     1       3.642   6.906  -2.296  0.00  0.00    -0.453 OA
BRANCH  38  41
ATOM     39  C   UNL     1       2.901  10.441  -2.533  0.00  0.00    +0.179 C 
ATOM     40  O   UNL     1       2.627   9.037  -2.400  0.00  0.00    -0.331 OA
ATOM     41  C   UNL     1       3.751   8.252  -2.819  0.00  0.00    +0.340 C 
ATOM     42  C   UNL     1       3.818   8.358  -4.360  0.00  0.00    +0.214 C 
ATOM     43  C   UNL     1       4.018   9.855  -4.719  0.00  0.00    +0.180 C 
ATOM     44  C   UNL     1       2.999  10.788  -4.023  0.00  0.00    +0.177 C 
BRANCH  44  45
ATOM     45  O   UNL     1       3.411  12.150  -4.185  0.00  0.00    -0.386 OA
ATOM     46  H   UNL     1       2.619  12.702  -4.045  0.00  0.00    +0.210 HD
ENDBRANCH  44  45
BRANCH  43  47
ATOM     47  O   UNL     1       5.389  10.174  -4.359  0.00  0.00    -0.386 OA
ATOM     48  H   UNL     1       5.364  10.852  -3.657  0.00  0.00    +0.210 HD
ENDBRANCH  43  47
BRANCH  42  49
ATOM     49  O   UNL     1       4.934   7.622  -4.891  0.00  0.00    -0.383 OA
ATOM     50  H   UNL     1       5.687   8.252  -4.855  0.00  0.00    +0.210 HD
ENDBRANCH  42  49
BRANCH  39  51
ATOM     51  C   UNL     1       1.833  11.239  -1.778  0.00  0.00    +0.197 C 
BRANCH  51  52
ATOM     52  O   UNL     1       0.571  11.070  -2.415  0.00  0.00    -0.346 OA
BRANCH  52  56
ATOM     53  C   UNL     1      -1.630  11.407   1.745  0.00  0.00    +0.041 C 
ATOM     54  C   UNL     1      -1.714  11.880   0.301  0.00  0.00    +0.149 C 
ATOM     55  O   UNL     1      -0.624  11.283  -0.409  0.00  0.00    -0.343 OA
ATOM     56  C   UNL     1      -0.490  11.759  -1.749  0.00  0.00    +0.282 C 
ATOM     57  C   UNL     1      -1.766  11.520  -2.585  0.00  0.00    +0.201 C 
ATOM     58  C   UNL     1      -3.005  12.004  -1.818  0.00  0.00    +0.179 C 
ATOM     59  C   UNL     1      -3.023  11.463  -0.381  0.00  0.00    +0.174 C 
BRANCH  59  60
ATOM     60  O   UNL     1      -3.166  10.038  -0.401  0.00  0.00    -0.387 OA
ATOM     61  H   UNL     1      -2.270   9.652  -0.492  0.00  0.00    +0.210 HD
ENDBRANCH  59  60
BRANCH  58  62
ATOM     62  O   UNL     1      -4.193  11.662  -2.543  0.00  0.00    -0.386 OA
ATOM     63  H   UNL     1      -4.788  11.185  -1.933  0.00  0.00    +0.210 HD
ENDBRANCH  58  62
BRANCH  57  64
ATOM     64  O   UNL     1      -1.639  12.224  -3.837  0.00  0.00    -0.384 OA
ATOM     65  H   UNL     1      -2.481  12.685  -3.999  0.00  0.00    +0.210 HD
ENDBRANCH  57  64
ENDBRANCH  52  56
ENDBRANCH  51  52
ENDBRANCH  39  51
ENDBRANCH  38  41
ENDBRANCH   1  38
TORSDOF 20
