REMARK  Name = 
REMARK  17 active torsions:
REMARK  status: ('A' for Active; 'I' for Inactive)
REMARK    1  A    between atoms: C_1  and  C_2
REMARK    2  A    between atoms: C_4  and  O_53
REMARK    3  A    between atoms: C_6  and  O_52
REMARK    4  A    between atoms: C_8  and  O_51
REMARK    5  A    between atoms: C_10  and  O_13
REMARK    6  A    between atoms: O_13  and  C_14
REMARK    7  A    between atoms: C_15  and  C_43
REMARK    8  A    between atoms: C_19  and  O_26
REMARK    9  A    between atoms: C_21  and  O_25
REMARK   10  A    between atoms: O_26  and  C_27
REMARK   11  A    between atoms: C_29  and  O_42
REMARK   12  A    between atoms: C_31  and  O_41
REMARK   13  A    between atoms: C_33  and  O_40
REMARK   14  A    between atoms: C_35  and  C_38
REMARK   15  A    between atoms: C_38  and  O_39
REMARK   16  A    between atoms: C_45  and  O_50
REMARK   17  A    between atoms: C_46  and  O_49
REMARK                            x       y       z     vdW  Elec       q    Type
REMARK                         _______ _______ _______ _____ _____    ______ ____
ROOT
ATOM      1  C   UNL     1       2.830   2.932  -3.292  0.00  0.00    +0.214 A 
ATOM      2  C   UNL     1       1.430   3.447  -3.108  0.00  0.00    +0.238 A 
ATOM      3  O   UNL     1       0.441   2.755  -3.321  0.00  0.00    -0.283 OA
ATOM      4  C   UNL     1       1.250   4.880  -2.845  0.00  0.00    +0.109 A 
ATOM      5  C   UNL     1       2.328   5.709  -3.110  0.00  0.00    +0.147 A 
ATOM      6  C   UNL     1       2.160   7.100  -3.064  0.00  0.00    +0.093 A 
ATOM      7  C   UNL     1       0.910   7.655  -2.761  0.00  0.00    +0.131 A 
ATOM      8  C   UNL     1      -0.155   6.817  -2.427  0.00  0.00    +0.092 A 
ATOM      9  O   UNL     1       3.565   5.241  -3.469  0.00  0.00    -0.451 OA
ATOM     10  C   UNL     1       0.017   5.433  -2.466  0.00  0.00    +0.135 A 
ATOM     11  C   UNL     1       3.782   3.869  -3.498  0.00  0.00    +0.181 A 
ENDROOT
BRANCH  11  12
ATOM     12  C   UNL     1       5.167   3.543  -3.915  0.00  0.00    +0.025 A 
ATOM     13  C   UNL     1       5.474   3.526  -5.289  0.00  0.00    +0.015 A 
ATOM     14  C   UNL     1       6.785   3.324  -5.735  0.00  0.00    +0.050 A 
ATOM     15  C   UNL     1       7.793   3.144  -4.803  0.00  0.00    +0.158 A 
ATOM     16  C   UNL     1       7.508   3.143  -3.441  0.00  0.00    +0.159 A 
ATOM     17  C   UNL     1       6.200   3.337  -2.987  0.00  0.00    +0.060 A 
BRANCH  16  18
ATOM     18  O   UNL     1       8.560   2.966  -2.583  0.00  0.00    -0.503 OA
ATOM     19  H   UNL     1       8.211   2.923  -1.677  0.00  0.00    +0.292 HD
ENDBRANCH  16  18
BRANCH  15  20
ATOM     20  O   UNL     1       9.079   2.980  -5.238  0.00  0.00    -0.503 OA
ATOM     21  H   UNL     1       9.609   2.904  -4.420  0.00  0.00    +0.292 HD
ENDBRANCH  15  20
ENDBRANCH  11  12
BRANCH  10  22
ATOM     22  O   UNL     1      -1.036   4.627  -2.132  0.00  0.00    -0.506 OA
ATOM     23  H   UNL     1      -1.846   5.149  -2.027  0.00  0.00    +0.292 HD
ENDBRANCH  10  22
BRANCH   7  24
ATOM     24  O   UNL     1       0.634   9.004  -2.761  0.00  0.00    -0.461 OA
BRANCH  24  25
ATOM     25  C   UNL     1       1.293   9.720  -3.816  0.00  0.00    +0.339 C 
ATOM     26  O   UNL     1       2.609  10.141  -3.452  0.00  0.00    -0.331 OA
ATOM     27  C   UNL     1       2.728  11.301  -2.619  0.00  0.00    +0.179 C 
ATOM     28  C   UNL     1       1.968  12.493  -3.221  0.00  0.00    +0.177 C 
ATOM     29  C   UNL     1       0.497  12.142  -3.480  0.00  0.00    +0.180 C 
ATOM     30  C   UNL     1       0.392  10.868  -4.334  0.00  0.00    +0.214 C 
BRANCH  29  31
ATOM     31  O   UNL     1      -0.230  12.072  -2.256  0.00  0.00    -0.386 OA
ATOM     32  H   UNL     1      -0.401  11.139  -2.028  0.00  0.00    +0.210 HD
ENDBRANCH  29  31
BRANCH  30  33
ATOM     33  O   UNL     1       0.765  11.194  -5.687  0.00  0.00    -0.383 OA
ATOM     34  H   UNL     1       1.709  11.460  -5.658  0.00  0.00    +0.210 HD
ENDBRANCH  30  33
BRANCH  28  35
ATOM     35  O   UNL     1       2.598  12.825  -4.475  0.00  0.00    -0.386 OA
ATOM     36  H   UNL     1       2.167  13.631  -4.817  0.00  0.00    +0.210 HD
ENDBRANCH  28  35
BRANCH  27  37
ATOM     37  C   UNL     1       2.403  11.045  -1.137  0.00  0.00    +0.190 C 
BRANCH  37  38
ATOM     38  O   UNL     1       3.184   9.988  -0.586  0.00  0.00    -0.392 OA
ATOM     39  H   UNL     1       4.114  10.146  -0.818  0.00  0.00    +0.210 HD
ENDBRANCH  37  38
ENDBRANCH  27  37
ENDBRANCH  24  25
ENDBRANCH   7  24
BRANCH   1  40
ATOM     40  O   UNL     1       3.129   1.573  -3.374  0.00  0.00    -0.453 OA
BRANCH  40  44
ATOM     41  C   UNL     1      -0.861   0.332  -2.116  0.00  0.00    +0.041 C 
ATOM     42  C   UNL     1       0.454  -0.145  -1.500  0.00  0.00    +0.150 C 
ATOM     43  O   UNL     1       1.570   0.712  -1.793  0.00  0.00    -0.334 OA
ATOM     44  C   UNL     1       2.054   0.642  -3.142  0.00  0.00    +0.339 C 
ATOM     45  C   UNL     1       2.542  -0.790  -3.468  0.00  0.00    +0.214 C 
ATOM     46  C   UNL     1       1.390  -1.788  -3.233  0.00  0.00    +0.180 C 
ATOM     47  C   UNL     1       0.790  -1.611  -1.826  0.00  0.00    +0.174 C 
BRANCH  47  48
ATOM     48  O   UNL     1       1.755  -2.062  -0.857  0.00  0.00    -0.387 OA
ATOM     49  H   UNL     1       2.510  -1.436  -0.913  0.00  0.00    +0.210 HD
ENDBRANCH  47  48
BRANCH  46  50
ATOM     50  O   UNL     1       0.400  -1.737  -4.262  0.00  0.00    -0.386 OA
ATOM     51  H   UNL     1       0.151  -0.821  -4.466  0.00  0.00    +0.210 HD
ENDBRANCH  46  50
BRANCH  45  52
ATOM     52  O   UNL     1       3.659  -1.143  -2.632  0.00  0.00    -0.383 OA
ATOM     53  H   UNL     1       3.954  -2.030  -2.908  0.00  0.00    +0.210 HD
ENDBRANCH  45  52
ENDBRANCH  40  44
ENDBRANCH   1  40
TORSDOF 16
