REMARK  Name = 
REMARK  22 active torsions:
REMARK  status: ('A' for Active; 'I' for Inactive)
REMARK    1  A    between atoms: C_1  and  C_2
REMARK    2  A    between atoms: C_4  and  O_68
REMARK    3  A    between atoms: C_6  and  O_67
REMARK    4  A    between atoms: C_8  and  O_66
REMARK    5  A    between atoms: C_10  and  O_13
REMARK    6  A    between atoms: O_13  and  C_14
REMARK    7  A    between atoms: C_16  and  O_65
REMARK    8  A    between atoms: C_18  and  O_64
REMARK    9  A    between atoms: C_20  and  C_62
REMARK   10  A    between atoms: C_23  and  O_25
REMARK   11  A    between atoms: O_25  and  C_26
REMARK   12  A    between atoms: C_27  and  C_54
REMARK   13  A    between atoms: C_31  and  O_38
REMARK   14  A    between atoms: C_33  and  O_37
REMARK   15  A    between atoms: O_38  and  C_39
REMARK   16  A    between atoms: C_41  and  O_53
REMARK   17  A    between atoms: C_43  and  O_52
REMARK   18  A    between atoms: C_45  and  O_51
REMARK   19  A    between atoms: C_47  and  C_50
REMARK   20  A    between atoms: C_56  and  O_61
REMARK   21  A    between atoms: C_57  and  O_60
REMARK   22  A    between atoms: C_62  and  O_63
REMARK                            x       y       z     vdW  Elec       q    Type
REMARK                         _______ _______ _______ _____ _____    ______ ____
ROOT
ATOM      1  C   UNL     1       0.545   0.683  -2.473  0.00  0.00    +0.214 A 
ATOM      2  C   UNL     1       0.401  -0.782  -2.198  0.00  0.00    +0.238 A 
ATOM      3  O   UNL     1       0.782  -1.600  -3.029  0.00  0.00    -0.283 OA
ATOM      4  C   UNL     1      -0.214  -1.170  -0.889  0.00  0.00    +0.109 A 
ATOM      5  C   UNL     1      -0.777  -0.155  -0.129  0.00  0.00    +0.147 A 
ATOM      6  C   UNL     1      -1.342  -0.416   1.128  0.00  0.00    +0.093 A 
ATOM      7  C   UNL     1      -1.365  -1.709   1.657  0.00  0.00    +0.131 A 
ATOM      8  C   UNL     1      -0.857  -2.751   0.883  0.00  0.00    +0.092 A 
ATOM      9  O   UNL     1      -0.853   1.140  -0.553  0.00  0.00    -0.451 OA
ATOM     10  C   UNL     1      -0.299  -2.481  -0.385  0.00  0.00    +0.135 A 
ATOM     11  C   UNL     1      -0.145   1.538  -1.676  0.00  0.00    +0.181 A 
ENDROOT
BRANCH  11  12
ATOM     12  C   UNL     1      -0.231   3.014  -1.784  0.00  0.00    +0.025 A 
ATOM     13  C   UNL     1       0.552   3.766  -0.889  0.00  0.00    +0.015 A 
ATOM     14  C   UNL     1       0.433   5.153  -0.800  0.00  0.00    +0.050 A 
ATOM     15  C   UNL     1      -0.483   5.802  -1.604  0.00  0.00    +0.158 A 
ATOM     16  C   UNL     1      -1.259   5.086  -2.511  0.00  0.00    +0.159 A 
ATOM     17  C   UNL     1      -1.160   3.691  -2.596  0.00  0.00    +0.060 A 
BRANCH  16  18
ATOM     18  O   UNL     1      -2.125   5.810  -3.284  0.00  0.00    -0.503 OA
ATOM     19  H   UNL     1      -2.287   5.316  -4.105  0.00  0.00    +0.292 HD
ENDBRANCH  16  18
BRANCH  15  20
ATOM     20  O   UNL     1      -0.624   7.154  -1.484  0.00  0.00    -0.503 OA
ATOM     21  H   UNL     1      -1.362   7.387  -2.081  0.00  0.00    +0.292 HD
ENDBRANCH  15  20
ENDBRANCH  11  12
BRANCH  10  22
ATOM     22  O   UNL     1       0.153  -3.548  -1.108  0.00  0.00    -0.506 OA
ATOM     23  H   UNL     1      -0.065  -4.375  -0.649  0.00  0.00    +0.292 HD
ENDBRANCH  10  22
BRANCH   7  24
ATOM     24  O   UNL     1      -1.992  -1.840   2.865  0.00  0.00    -0.461 OA
BRANCH  24  25
ATOM     25  C   UNL     1      -1.507  -2.804   3.813  0.00  0.00    +0.339 C 
ATOM     26  O   UNL     1      -2.073  -4.117   3.681  0.00  0.00    -0.334 OA
ATOM     27  C   UNL     1      -3.479  -4.234   3.931  0.00  0.00    +0.150 C 
ATOM     28  C   UNL     1      -4.248  -4.141   2.616  0.00  0.00    +0.041 C 
ATOM     29  C   UNL     1      -4.018  -3.458   5.160  0.00  0.00    +0.174 C 
ATOM     30  C   UNL     1      -3.282  -2.152   5.507  0.00  0.00    +0.180 C 
ATOM     31  C   UNL     1      -1.773  -2.286   5.251  0.00  0.00    +0.214 C 
BRANCH  31  32
ATOM     32  O   UNL     1      -1.184  -3.141   6.245  0.00  0.00    -0.383 OA
ATOM     33  H   UNL     1      -1.582  -4.028   6.173  0.00  0.00    +0.210 HD
ENDBRANCH  31  32
BRANCH  30  34
ATOM     34  O   UNL     1      -3.843  -1.050   4.789  0.00  0.00    -0.386 OA
ATOM     35  H   UNL     1      -3.316  -0.262   5.020  0.00  0.00    +0.210 HD
ENDBRANCH  30  34
BRANCH  29  36
ATOM     36  O   UNL     1      -5.435  -3.288   5.124  0.00  0.00    -0.387 OA
ATOM     37  H   UNL     1      -5.618  -2.600   4.455  0.00  0.00    +0.210 HD
ENDBRANCH  29  36
ENDBRANCH  24  25
ENDBRANCH   7  24
BRANCH   1  38
ATOM     38  O   UNL     1       1.242   1.050  -3.620  0.00  0.00    -0.453 OA
BRANCH  38  40
ATOM     39  C   UNL     1       2.153   3.159  -4.406  0.00  0.00    +0.221 C 
ATOM     40  C   UNL     1       2.414   1.904  -3.524  0.00  0.00    +0.340 C 
ATOM     41  O   UNL     1       2.752   2.243  -2.178  0.00  0.00    -0.331 OA
ATOM     42  C   UNL     1       3.850   3.151  -1.987  0.00  0.00    +0.179 C 
ATOM     43  C   UNL     1       3.672   4.434  -2.808  0.00  0.00    +0.177 C 
ATOM     44  C   UNL     1       3.324   4.135  -4.260  0.00  0.00    +0.180 C 
BRANCH  44  45
ATOM     45  O   UNL     1       3.005   5.381  -4.912  0.00  0.00    -0.386 OA
ATOM     46  H   UNL     1       2.586   5.129  -5.761  0.00  0.00    +0.210 HD
ENDBRANCH  44  45
BRANCH  43  47
ATOM     47  O   UNL     1       4.843   5.256  -2.768  0.00  0.00    -0.386 OA
ATOM     48  H   UNL     1       4.674   5.968  -3.421  0.00  0.00    +0.210 HD
ENDBRANCH  43  47
BRANCH  42  49
ATOM     49  C   UNL     1       5.219   2.471  -2.167  0.00  0.00    +0.190 C 
BRANCH  49  50
ATOM     50  O   UNL     1       5.343   1.344  -1.296  0.00  0.00    -0.392 OA
ATOM     51  H   UNL     1       5.777   1.649  -0.480  0.00  0.00    +0.210 HD
ENDBRANCH  49  50
ENDBRANCH  42  49
BRANCH  39  52
ATOM     52  O   UNL     1       2.061   2.960  -5.832  0.00  0.00    -0.337 OA
BRANCH  52  56
ATOM     53  C   UNL     1       1.119  -0.403  -8.224  0.00  0.00    +0.041 C 
ATOM     54  C   UNL     1       0.543   0.991  -8.456  0.00  0.00    +0.149 C 
ATOM     55  O   UNL     1       1.305   1.991  -7.766  0.00  0.00    -0.343 OA
ATOM     56  C   UNL     1       1.116   2.025  -6.343  0.00  0.00    +0.282 C 
ATOM     57  C   UNL     1      -0.363   2.352  -6.024  0.00  0.00    +0.201 C 
ATOM     58  C   UNL     1      -1.277   1.292  -6.665  0.00  0.00    +0.179 C 
ATOM     59  C   UNL     1      -0.963   1.119  -8.158  0.00  0.00    +0.174 C 
BRANCH  59  60
ATOM     60  O   UNL     1      -1.460   2.282  -8.850  0.00  0.00    -0.387 OA
ATOM     61  H   UNL     1      -0.863   3.024  -8.617  0.00  0.00    +0.210 HD
ENDBRANCH  59  60
BRANCH  58  62
ATOM     62  O   UNL     1      -1.258   0.059  -5.950  0.00  0.00    -0.386 OA
ATOM     63  H   UNL     1      -0.355  -0.286  -5.838  0.00  0.00    +0.210 HD
ENDBRANCH  58  62
BRANCH  57  64
ATOM     64  O   UNL     1      -0.711   3.669  -6.498  0.00  0.00    -0.384 OA
ATOM     65  H   UNL     1      -1.682   3.743  -6.496  0.00  0.00    +0.210 HD
ENDBRANCH  57  64
ENDBRANCH  52  56
ENDBRANCH  39  52
ENDBRANCH  38  40
ENDBRANCH   1  38
TORSDOF 20
