REMARK  Name = 
REMARK  18 active torsions:
REMARK  status: ('A' for Active; 'I' for Inactive)
REMARK    1  A    between atoms: C_3  and  O_44
REMARK    2  A    between atoms: C_4  and  O_43
REMARK    3  A    between atoms: C_6  and  C_7
REMARK    4  A    between atoms: C_8  and  O_20
REMARK    5  A    between atoms: C_12  and  O_19
REMARK    6  A    between atoms: C_14  and  O_18
REMARK    7  A    between atoms: O_20  and  C_21
REMARK    8  A    between atoms: C_22  and  O_42
REMARK    9  A    between atoms: C_23  and  O_41
REMARK   10  A    between atoms: C_24  and  O_40
REMARK   11  A    between atoms: C_25  and  C_27
REMARK   12  A    between atoms: C_27  and  O_28
REMARK   13  A    between atoms: O_28  and  C_29
REMARK   14  A    between atoms: C_30  and  O_39
REMARK   15  A    between atoms: C_31  and  O_38
REMARK   16  A    between atoms: C_32  and  O_37
REMARK   17  A    between atoms: C_33  and  C_35
REMARK   18  A    between atoms: C_35  and  O_36
REMARK                            x       y       z     vdW  Elec       q    Type
REMARK                         _______ _______ _______ _____ _____    ______ ____
ROOT
ATOM      1  C   UNL     1      -3.934  -0.644  -1.318  0.00  0.00    +0.340 C 
ATOM      2  O   UNL     1      -3.838   0.137  -2.524  0.00  0.00    -0.331 OA
ATOM      3  C   UNL     1      -3.044  -0.380  -3.617  0.00  0.00    +0.179 C 
ATOM      4  C   UNL     1      -1.881  -1.360  -3.283  0.00  0.00    +0.177 C 
ATOM      5  C   UNL     1      -1.934  -1.978  -1.884  0.00  0.00    +0.180 C 
ATOM      6  C   UNL     1      -2.483  -0.941  -0.904  0.00  0.00    +0.214 C 
ENDROOT
BRANCH   6   7
ATOM      7  O   UNL     1      -2.310  -1.306   0.459  0.00  0.00    -0.383 OA
ATOM      8  H   UNL     1      -3.170  -1.382   0.894  0.00  0.00    +0.210 HD
ENDBRANCH   6   7
BRANCH   5   9
ATOM      9  O   UNL     1      -0.607  -2.378  -1.507  0.00  0.00    -0.386 OA
ATOM     10  H   UNL     1      -0.180  -2.747  -2.302  0.00  0.00    +0.210 HD
ENDBRANCH   5   9
BRANCH   4  11
ATOM     11  O   UNL     1      -0.584  -0.746  -3.455  0.00  0.00    -0.386 OA
ATOM     12  H   UNL     1      -0.228  -0.541  -2.568  0.00  0.00    +0.210 HD
ENDBRANCH   4  11
BRANCH   3  13
ATOM     13  C   UNL     1      -2.508   0.863  -4.362  0.00  0.00    +0.197 C 
BRANCH  13  14
ATOM     14  O   UNL     1      -1.970   0.503  -5.638  0.00  0.00    -0.346 OA
BRANCH  14  15
ATOM     15  C   UNL     1      -1.317   1.614  -6.270  0.00  0.00    +0.282 C 
ATOM     16  O   UNL     1      -2.235   2.689  -6.500  0.00  0.00    -0.341 OA
ATOM     17  C   UNL     1      -3.372   2.275  -7.286  0.00  0.00    +0.178 C 
ATOM     18  C   UNL     1      -2.880   1.865  -8.679  0.00  0.00    +0.177 C 
ATOM     19  C   UNL     1      -1.844   0.733  -8.559  0.00  0.00    +0.179 C 
ATOM     20  C   UNL     1      -0.705   1.147  -7.610  0.00  0.00    +0.201 C 
BRANCH  20  21
ATOM     21  O   UNL     1       0.227   0.076  -7.418  0.00  0.00    -0.384 OA
ATOM     22  H   UNL     1      -0.267  -0.661  -7.019  0.00  0.00    +0.210 HD
ENDBRANCH  20  21
BRANCH  19  23
ATOM     23  O   UNL     1      -1.337   0.419  -9.862  0.00  0.00    -0.386 OA
ATOM     24  H   UNL     1      -1.105   1.266 -10.276  0.00  0.00    +0.210 HD
ENDBRANCH  19  23
BRANCH  18  25
ATOM     25  O   UNL     1      -2.257   2.981  -9.344  0.00  0.00    -0.386 OA
ATOM     26  H   UNL     1      -1.849   3.543  -8.656  0.00  0.00    +0.210 HD
ENDBRANCH  18  25
BRANCH  17  27
ATOM     27  C   UNL     1      -4.383   3.428  -7.325  0.00  0.00    +0.190 C 
BRANCH  27  28
ATOM     28  O   UNL     1      -4.863   3.746  -6.016  0.00  0.00    -0.392 OA
ATOM     29  H   UNL     1      -5.185   2.932  -5.593  0.00  0.00    +0.210 HD
ENDBRANCH  27  28
ENDBRANCH  17  27
ENDBRANCH  14  15
ENDBRANCH  13  14
ENDBRANCH   3  13
BRANCH   1  30
ATOM     30  O   UNL     1      -4.798  -1.777  -1.547  0.00  0.00    -0.453 OA
BRANCH  30  41
ATOM     31  C   UNL     1      -6.802  -2.053  -0.150  0.00  0.00    +0.181 A 
ATOM     32  O   UNL     1      -7.574  -2.894   0.672  0.00  0.00    -0.451 OA
ATOM     33  C   UNL     1      -7.215  -4.171   0.916  0.00  0.00    +0.147 A 
ATOM     34  C   UNL     1      -5.940  -4.643   0.649  0.00  0.00    +0.109 A 
ATOM     35  C   UNL     1      -5.597  -5.954   1.025  0.00  0.00    +0.135 A 
ATOM     36  C   UNL     1      -6.534  -6.791   1.632  0.00  0.00    +0.091 A 
ATOM     37  C   UNL     1      -7.830  -6.318   1.858  0.00  0.00    +0.124 A 
ATOM     38  C   UNL     1      -5.020  -3.722  -0.040  0.00  0.00    +0.238 A 
ATOM     39  O   UNL     1      -3.871  -4.094  -0.250  0.00  0.00    -0.283 OA
ATOM     40  C   UNL     1      -8.173  -5.018   1.501  0.00  0.00    +0.092 A 
ATOM     41  C   UNL     1      -5.531  -2.377  -0.525  0.00  0.00    +0.214 A 
BRANCH  31  43
ATOM     42  C   UNL     1      -8.998  -0.811  -0.104  0.00  0.00    +0.015 A 
ATOM     43  C   UNL     1      -7.649  -0.872  -0.554  0.00  0.00    +0.025 A 
ATOM     44  C   UNL     1      -7.227   0.185  -1.367  0.00  0.00    +0.060 A 
ATOM     45  C   UNL     1      -8.114   1.191  -1.752  0.00  0.00    +0.159 A 
ATOM     46  C   UNL     1      -9.449   1.163  -1.379  0.00  0.00    +0.158 A 
ATOM     47  C   UNL     1      -9.898   0.175  -0.525  0.00  0.00    +0.050 A 
BRANCH  46  48
ATOM     48  O   UNL     1     -10.285   2.110  -1.892  0.00  0.00    -0.503 OA
ATOM     49  H   UNL     1     -11.197   1.786  -1.792  0.00  0.00    +0.292 HD
ENDBRANCH  46  48
BRANCH  45  50
ATOM     50  O   UNL     1      -7.654   2.211  -2.538  0.00  0.00    -0.503 OA
ATOM     51  H   UNL     1      -8.424   2.806  -2.643  0.00  0.00    +0.292 HD
ENDBRANCH  45  50
ENDBRANCH  31  43
BRANCH  37  52
ATOM     52  O   UNL     1      -8.778  -7.099   2.440  0.00  0.00    -0.507 OA
ATOM     53  H   UNL     1      -8.379  -7.956   2.678  0.00  0.00    +0.292 HD
ENDBRANCH  37  52
BRANCH  35  54
ATOM     54  O   UNL     1      -4.369  -6.490   0.826  0.00  0.00    -0.506 OA
ATOM     55  H   UNL     1      -3.794  -5.803   0.402  0.00  0.00    +0.292 HD
ENDBRANCH  35  54
ENDBRANCH  30  41
ENDBRANCH   1  30
TORSDOF 18
