REMARK  Name = 
REMARK  18 active torsions:
REMARK  status: ('A' for Active; 'I' for Inactive)
REMARK    1  A    between atoms: C_3  and  O_53
REMARK    2  A    between atoms: C_4  and  O_52
REMARK    3  A    between atoms: C_6  and  C_7
REMARK    4  A    between atoms: C_8  and  O_20
REMARK    5  A    between atoms: C_12  and  O_19
REMARK    6  A    between atoms: C_14  and  O_18
REMARK    7  A    between atoms: O_20  and  C_21
REMARK    8  A    between atoms: C_22  and  O_51
REMARK    9  A    between atoms: C_24  and  O_50
REMARK   10  A    between atoms: C_26  and  O_49
REMARK   11  A    between atoms: C_28  and  C_31
REMARK   12  A    between atoms: C_31  and  O_32
REMARK   13  A    between atoms: O_32  and  C_33
REMARK   14  A    between atoms: C_35  and  O_48
REMARK   15  A    between atoms: C_37  and  O_47
REMARK   16  A    between atoms: C_39  and  O_46
REMARK   17  A    between atoms: C_41  and  C_44
REMARK   18  A    between atoms: C_44  and  O_45
REMARK                            x       y       z     vdW  Elec       q    Type
REMARK                         _______ _______ _______ _____ _____    ______ ____
ROOT
ATOM      1  C   UNL     1      -2.110  -0.795  -0.947  0.00  0.00    +0.340 C 
ATOM      2  O   UNL     1      -3.007  -0.044  -1.789  0.00  0.00    -0.331 OA
ATOM      3  C   UNL     1      -3.078  -0.250  -3.224  0.00  0.00    +0.179 C 
ATOM      4  C   UNL     1      -2.220  -1.333  -3.922  0.00  0.00    +0.177 C 
ATOM      5  C   UNL     1      -1.617  -2.265  -2.897  0.00  0.00    +0.180 C 
ATOM      6  C   UNL     1      -0.991  -1.364  -1.824  0.00  0.00    +0.214 C 
ENDROOT
BRANCH   6   7
ATOM      7  O   UNL     1      -0.178  -0.304  -2.384  0.00  0.00    -0.383 OA
ATOM      8  H   UNL     1      -0.612   0.552  -2.196  0.00  0.00    +0.210 HD
ENDBRANCH   6   7
BRANCH   5   9
ATOM      9  O   UNL     1      -2.614  -3.176  -2.431  0.00  0.00    -0.386 OA
ATOM     10  H   UNL     1      -3.245  -2.728  -1.834  0.00  0.00    +0.210 HD
ENDBRANCH   5   9
BRANCH   4  11
ATOM     11  O   UNL     1      -1.177  -0.694  -4.689  0.00  0.00    -0.386 OA
ATOM     12  H   UNL     1      -0.413  -0.526  -4.092  0.00  0.00    +0.210 HD
ENDBRANCH   4  11
BRANCH   3  13
ATOM     13  C   UNL     1      -4.559  -0.464  -3.572  0.00  0.00    +0.197 C 
BRANCH  13  14
ATOM     14  O   UNL     1      -5.413   0.629  -3.188  0.00  0.00    -0.346 OA
BRANCH  14  15
ATOM     15  C   UNL     1      -5.068   1.895  -3.756  0.00  0.00    +0.282 C 
ATOM     16  O   UNL     1      -5.771   2.962  -3.114  0.00  0.00    -0.341 OA
ATOM     17  C   UNL     1      -7.187   3.008  -3.312  0.00  0.00    +0.178 C 
ATOM     18  C   UNL     1      -7.607   2.851  -4.793  0.00  0.00    +0.177 C 
ATOM     19  C   UNL     1      -6.805   1.784  -5.556  0.00  0.00    +0.179 C 
ATOM     20  C   UNL     1      -5.301   1.933  -5.275  0.00  0.00    +0.201 C 
BRANCH  20  21
ATOM     21  O   UNL     1      -4.787   3.153  -5.824  0.00  0.00    -0.384 OA
ATOM     22  H   UNL     1      -5.297   3.883  -5.410  0.00  0.00    +0.210 HD
ENDBRANCH  20  21
BRANCH  19  23
ATOM     23  O   UNL     1      -7.302   0.473  -5.275  0.00  0.00    -0.386 OA
ATOM     24  H   UNL     1      -6.888   0.148  -4.453  0.00  0.00    +0.210 HD
ENDBRANCH  19  23
BRANCH  18  25
ATOM     25  O   UNL     1      -7.362   4.115  -5.446  0.00  0.00    -0.386 OA
ATOM     26  H   UNL     1      -7.765   4.060  -6.332  0.00  0.00    +0.210 HD
ENDBRANCH  18  25
BRANCH  17  27
ATOM     27  C   UNL     1      -7.909   2.084  -2.323  0.00  0.00    +0.190 C 
BRANCH  27  28
ATOM     28  O   UNL     1      -9.313   2.321  -2.330  0.00  0.00    -0.392 OA
ATOM     29  H   UNL     1      -9.728   1.612  -2.850  0.00  0.00    +0.210 HD
ENDBRANCH  27  28
ENDBRANCH  17  27
ENDBRANCH  14  15
ENDBRANCH  13  14
ENDBRANCH   3  13
BRANCH   1  30
ATOM     30  O   UNL     1      -2.845  -1.788  -0.178  0.00  0.00    -0.453 OA
BRANCH  30  41
ATOM     31  C   UNL     1      -2.781  -2.634   2.152  0.00  0.00    +0.181 A 
ATOM     32  O   UNL     1      -1.988  -2.954   3.296  0.00  0.00    -0.451 OA
ATOM     33  C   UNL     1      -0.652  -2.614   3.306  0.00  0.00    +0.147 A 
ATOM     34  C   UNL     1      -0.015  -2.251   2.134  0.00  0.00    +0.109 A 
ATOM     35  C   UNL     1       1.332  -1.895   2.071  0.00  0.00    +0.135 A 
ATOM     36  C   UNL     1       2.097  -1.999   3.217  0.00  0.00    +0.091 A 
ATOM     37  C   UNL     1       1.494  -2.467   4.385  0.00  0.00    +0.124 A 
ATOM     38  C   UNL     1      -0.792  -2.582   0.969  0.00  0.00    +0.238 A 
ATOM     39  O   UNL     1      -0.282  -3.299   0.128  0.00  0.00    -0.283 OA
ATOM     40  C   UNL     1       0.118  -2.740   4.454  0.00  0.00    +0.092 A 
ATOM     41  C   UNL     1      -2.217  -2.204   0.991  0.00  0.00    +0.214 A 
BRANCH  31  43
ATOM     42  C   UNL     1      -4.688  -3.336   3.641  0.00  0.00    +0.015 A 
ATOM     43  C   UNL     1      -4.225  -2.989   2.349  0.00  0.00    +0.025 A 
ATOM     44  C   UNL     1      -5.105  -3.201   1.280  0.00  0.00    +0.060 A 
ATOM     45  C   UNL     1      -6.354  -3.801   1.492  0.00  0.00    +0.159 A 
ATOM     46  C   UNL     1      -6.753  -4.197   2.763  0.00  0.00    +0.158 A 
ATOM     47  C   UNL     1      -5.937  -3.942   3.850  0.00  0.00    +0.050 A 
BRANCH  46  48
ATOM     48  O   UNL     1      -7.941  -4.862   2.880  0.00  0.00    -0.503 OA
ATOM     49  H   UNL     1      -7.983  -5.253   3.770  0.00  0.00    +0.292 HD
ENDBRANCH  46  48
BRANCH  45  50
ATOM     50  O   UNL     1      -7.168  -4.042   0.424  0.00  0.00    -0.503 OA
ATOM     51  H   UNL     1      -7.950  -4.494   0.806  0.00  0.00    +0.292 HD
ENDBRANCH  45  50
ENDBRANCH  31  43
BRANCH  37  52
ATOM     52  O   UNL     1       2.251  -2.713   5.493  0.00  0.00    -0.507 OA
ATOM     53  H   UNL     1       3.189  -2.698   5.233  0.00  0.00    +0.292 HD
ENDBRANCH  37  52
BRANCH  35  54
ATOM     54  O   UNL     1       1.960  -1.465   0.938  0.00  0.00    -0.506 OA
ATOM     55  H   UNL     1       1.394  -1.611   0.159  0.00  0.00    +0.292 HD
ENDBRANCH  35  54
ENDBRANCH  30  41
ENDBRANCH   1  30
TORSDOF 18
