REMARK  Name = 
REMARK  10 active torsions:
REMARK  status: ('A' for Active; 'I' for Inactive)
REMARK    1  A    between atoms: C_1  and  O_2
REMARK    2  A    between atoms: O_2  and  C_3
REMARK    3  A    between atoms: C_7  and  O_9
REMARK    4  A    between atoms: O_9  and  C_10
REMARK    5  A    between atoms: C_13  and  O_25
REMARK    6  A    between atoms: C_14  and  C_16
REMARK    7  A    between atoms: C_18  and  O_23
REMARK    8  A    between atoms: C_19  and  O_22
REMARK    9  A    between atoms: O_23  and  C_24
REMARK   10  A    between atoms: O_25  and  C_26
REMARK                            x       y       z     vdW  Elec       q    Type
REMARK                         _______ _______ _______ _____ _____    ______ ____
ROOT
ATOM      1  C   UNL     1       3.204  -1.082  -0.503  0.00  0.00    +0.127 A 
ATOM      2  C   UNL     1       2.641  -2.311  -0.156  0.00  0.00    +0.092 A 
ATOM      3  C   UNL     1       3.200  -3.506  -0.614  0.00  0.00    +0.138 A 
ATOM      4  C   UNL     1       4.349  -3.460  -1.432  0.00  0.00    +0.109 A 
ATOM      5  C   UNL     1       4.961  -4.684  -1.975  0.00  0.00    +0.238 A 
ATOM      6  C   UNL     1       6.111  -4.525  -2.920  0.00  0.00    +0.211 A 
ATOM      7  C   UNL     1       6.613  -3.285  -3.114  0.00  0.00    +0.181 A 
ATOM      8  O   UNL     1       6.072  -2.136  -2.533  0.00  0.00    -0.451 OA
ATOM      9  O   UNL     1       4.546  -5.798  -1.665  0.00  0.00    -0.283 OA
ATOM     10  C   UNL     1       4.932  -2.240  -1.766  0.00  0.00    +0.147 A 
ATOM     11  C   UNL     1       4.354  -1.051  -1.302  0.00  0.00    +0.092 A 
ENDROOT
BRANCH   7  12
ATOM     12  C   UNL     1       7.787  -3.021  -4.015  0.00  0.00    +0.025 A 
ATOM     13  C   UNL     1       8.817  -3.975  -4.171  0.00  0.00    +0.015 A 
ATOM     14  C   UNL     1       9.850  -3.806  -5.092  0.00  0.00    +0.050 A 
ATOM     15  C   UNL     1       9.899  -2.642  -5.835  0.00  0.00    +0.158 A 
ATOM     16  C   UNL     1       8.953  -1.628  -5.660  0.00  0.00    +0.162 A 
ATOM     17  C   UNL     1       7.902  -1.819  -4.748  0.00  0.00    +0.061 A 
BRANCH  15  18
ATOM     18  O   UNL     1      10.903  -2.509  -6.756  0.00  0.00    -0.503 OA
ATOM     19  H   UNL     1      10.738  -1.648  -7.188  0.00  0.00    +0.292 HD
ENDBRANCH  15  18
BRANCH  16  20
ATOM     20  O   UNL     1       9.168  -0.529  -6.453  0.00  0.00    -0.491 OA
ATOM     21  C   UNL     1       8.292   0.575  -6.279  0.00  0.00    +0.277 C 
ENDBRANCH  16  20
ENDBRANCH   7  12
BRANCH   1  23
ATOM     22  C   UNL     1       1.506   0.125   0.653  0.00  0.00    +0.277 C 
ATOM     23  O   UNL     1       2.710   0.136  -0.114  0.00  0.00    -0.495 OA
ENDBRANCH   1  23
BRANCH   3  24
ATOM     24  O   UNL     1       2.681  -4.735  -0.310  0.00  0.00    -0.494 OA
ATOM     25  C   UNL     1       1.536  -4.826   0.523  0.00  0.00    +0.277 C 
ENDBRANCH   3  24
BRANCH   6  26
ATOM     26  O   UNL     1       6.594  -5.621  -3.630  0.00  0.00    -0.488 OA
ATOM     27  C   UNL     1       6.583  -6.883  -2.968  0.00  0.00    +0.277 C 
ENDBRANCH   6  26
TORSDOF 6
