REMARK  Name = 
REMARK  23 active torsions:
REMARK  status: ('A' for Active; 'I' for Inactive)
REMARK    1  A    between atoms: C_1  and  C_2
REMARK    2  A    between atoms: C_3  and  O_54
REMARK    3  A    between atoms: C_4  and  O_53
REMARK    4  A    between atoms: C_5  and  O_52
REMARK    5  A    between atoms: C_6  and  O_8
REMARK    6  A    between atoms: O_8  and  C_9
REMARK    7  A    between atoms: C_9  and  C_10
REMARK    8  A    between atoms: C_11  and  O_51
REMARK    9  A    between atoms: C_12  and  O_50
REMARK   10  A    between atoms: C_13  and  O_49
REMARK   11  A    between atoms: C_14  and  O_16
REMARK   12  A    between atoms: O_16  and  C_17
REMARK   13  A    between atoms: C_18  and  C_41
REMARK   14  A    between atoms: C_22  and  O_29
REMARK   15  A    between atoms: C_24  and  O_28
REMARK   16  A    between atoms: O_29  and  C_30
REMARK   17  A    between atoms: C_31  and  O_40
REMARK   18  A    between atoms: C_32  and  O_39
REMARK   19  A    between atoms: C_33  and  O_38
REMARK   20  A    between atoms: C_34  and  C_36
REMARK   21  A    between atoms: C_36  and  O_37
REMARK   22  A    between atoms: C_43  and  O_48
REMARK   23  A    between atoms: C_44  and  O_47
REMARK                            x       y       z     vdW  Elec       q    Type
REMARK                         _______ _______ _______ _____ _____    ______ ____
ROOT
ATOM      1  C   UNL     1       4.425   7.141  -1.241  0.00  0.00    +0.214 A 
ATOM      2  C   UNL     1       4.892   8.385  -0.550  0.00  0.00    +0.238 A 
ATOM      3  O   UNL     1       4.561   9.474  -1.017  0.00  0.00    -0.283 OA
ATOM      4  C   UNL     1       5.649   8.219   0.724  0.00  0.00    +0.109 A 
ATOM      5  C   UNL     1       5.586   6.987   1.352  0.00  0.00    +0.147 A 
ATOM      6  C   UNL     1       6.289   6.716   2.541  0.00  0.00    +0.093 A 
ATOM      7  C   UNL     1       7.169   7.660   3.067  0.00  0.00    +0.131 A 
ATOM      8  C   UNL     1       7.192   8.930   2.487  0.00  0.00    +0.092 A 
ATOM      9  O   UNL     1       4.849   5.956   0.846  0.00  0.00    -0.451 OA
ATOM     10  C   UNL     1       6.427   9.212   1.331  0.00  0.00    +0.135 A 
ATOM     11  C   UNL     1       4.391   6.024  -0.465  0.00  0.00    +0.181 A 
ENDROOT
BRANCH  11  12
ATOM     12  C   UNL     1       3.784   4.722  -0.860  0.00  0.00    +0.025 A 
ATOM     13  C   UNL     1       2.596   4.653  -1.601  0.00  0.00    +0.015 A 
ATOM     14  C   UNL     1       1.936   3.436  -1.796  0.00  0.00    +0.050 A 
ATOM     15  C   UNL     1       2.530   2.257  -1.360  0.00  0.00    +0.158 A 
ATOM     16  C   UNL     1       3.747   2.297  -0.696  0.00  0.00    +0.159 A 
ATOM     17  C   UNL     1       4.340   3.518  -0.387  0.00  0.00    +0.060 A 
BRANCH  16  18
ATOM     18  O   UNL     1       4.464   1.162  -0.441  0.00  0.00    -0.503 OA
ATOM     19  H   UNL     1       4.069   0.739   0.339  0.00  0.00    +0.292 HD
ENDBRANCH  16  18
BRANCH  15  20
ATOM     20  O   UNL     1       1.943   1.062  -1.649  0.00  0.00    -0.503 OA
ATOM     21  H   UNL     1       1.723   1.100  -2.597  0.00  0.00    +0.292 HD
ENDBRANCH  15  20
ENDBRANCH  11  12
BRANCH  10  22
ATOM     22  O   UNL     1       6.479  10.469   0.800  0.00  0.00    -0.506 OA
ATOM     23  H   UNL     1       6.723  11.111   1.488  0.00  0.00    +0.292 HD
ENDBRANCH  10  22
BRANCH   7  24
ATOM     24  O   UNL     1       7.969   7.225   4.101  0.00  0.00    -0.461 OA
BRANCH  24  25
ATOM     25  C   UNL     1       9.247   7.881   4.230  0.00  0.00    +0.339 C 
ATOM     26  O   UNL     1      10.036   7.810   3.034  0.00  0.00    -0.331 OA
ATOM     27  C   UNL     1      10.480   6.475   2.713  0.00  0.00    +0.179 C 
ATOM     28  C   UNL     1      11.437   6.001   3.810  0.00  0.00    +0.177 C 
ATOM     29  C   UNL     1      10.701   5.981   5.158  0.00  0.00    +0.180 C 
ATOM     30  C   UNL     1      10.056   7.350   5.444  0.00  0.00    +0.214 C 
BRANCH  29  31
ATOM     31  O   UNL     1      11.647   5.648   6.186  0.00  0.00    -0.386 OA
ATOM     32  H   UNL     1      12.444   6.190   6.014  0.00  0.00    +0.210 HD
ENDBRANCH  29  31
BRANCH  30  33
ATOM     33  O   UNL     1       9.270   7.333   6.641  0.00  0.00    -0.383 OA
ATOM     34  H   UNL     1       8.435   6.871   6.447  0.00  0.00    +0.210 HD
ENDBRANCH  30  33
BRANCH  28  35
ATOM     35  O   UNL     1      12.566   6.889   3.924  0.00  0.00    -0.386 OA
ATOM     36  H   UNL     1      12.269   7.787   3.674  0.00  0.00    +0.210 HD
ENDBRANCH  28  35
BRANCH  27  37
ATOM     37  C   UNL     1      11.177   6.515   1.344  0.00  0.00    +0.190 C 
BRANCH  37  38
ATOM     38  O   UNL     1      10.262   6.862   0.304  0.00  0.00    -0.392 OA
ATOM     39  H   UNL     1       9.490   6.275   0.365  0.00  0.00    +0.210 HD
ENDBRANCH  37  38
ENDBRANCH  27  37
ENDBRANCH  24  25
ENDBRANCH   7  24
BRANCH   1  40
ATOM     40  O   UNL     1       3.879   7.145  -2.509  0.00  0.00    -0.453 OA
BRANCH  40  43
ATOM     41  C   UNL     1       5.684   9.718  -4.686  0.00  0.00    +0.179 C 
ATOM     42  O   UNL     1       5.434   8.716  -3.639  0.00  0.00    -0.331 OA
ATOM     43  C   UNL     1       4.190   7.997  -3.642  0.00  0.00    +0.340 C 
ATOM     44  C   UNL     1       2.941   8.851  -3.976  0.00  0.00    +0.214 C 
ATOM     45  C   UNL     1       3.214   9.570  -5.295  0.00  0.00    +0.180 C 
ATOM     46  C   UNL     1       4.421  10.500  -5.123  0.00  0.00    +0.177 C 
BRANCH  46  47
ATOM     47  O   UNL     1       4.632  11.282  -6.299  0.00  0.00    -0.386 OA
ATOM     48  H   UNL     1       4.115  10.892  -7.026  0.00  0.00    +0.210 HD
ENDBRANCH  46  47
BRANCH  45  49
ATOM     49  O   UNL     1       2.068  10.319  -5.721  0.00  0.00    -0.386 OA
ATOM     50  H   UNL     1       1.835  10.906  -4.975  0.00  0.00    +0.210 HD
ENDBRANCH  45  49
BRANCH  44  51
ATOM     51  O   UNL     1       2.603   9.828  -2.977  0.00  0.00    -0.383 OA
ATOM     52  H   UNL     1       3.277   9.780  -2.260  0.00  0.00    +0.210 HD
ENDBRANCH  44  51
BRANCH  41  53
ATOM     53  C   UNL     1       6.567   9.186  -5.873  0.00  0.00    +0.197 C 
BRANCH  53  54
ATOM     54  O   UNL     1       7.078  10.126  -6.856  0.00  0.00    -0.346 OA
BRANCH  54  58
ATOM     55  C   UNL     1       9.551  12.561  -4.191  0.00  0.00    +0.041 C 
ATOM     56  C   UNL     1       8.596  13.064  -5.273  0.00  0.00    +0.149 C 
ATOM     57  O   UNL     1       7.668  12.039  -5.646  0.00  0.00    -0.343 OA
ATOM     58  C   UNL     1       8.174  10.978  -6.450  0.00  0.00    +0.282 C 
ATOM     59  C   UNL     1       8.886  11.560  -7.728  0.00  0.00    +0.201 C 
ATOM     60  C   UNL     1       9.960  12.593  -7.336  0.00  0.00    +0.179 C 
ATOM     61  C   UNL     1       9.317  13.696  -6.477  0.00  0.00    +0.174 C 
BRANCH  61  62
ATOM     62  O   UNL     1      10.264  14.680  -6.041  0.00  0.00    -0.387 OA
ATOM     63  H   UNL     1      11.133  14.257  -5.939  0.00  0.00    +0.210 HD
ENDBRANCH  61  62
BRANCH  60  64
ATOM     64  O   UNL     1      10.572  13.172  -8.502  0.00  0.00    -0.386 OA
ATOM     65  H   UNL     1       9.834  13.514  -9.046  0.00  0.00    +0.210 HD
ENDBRANCH  60  64
BRANCH  59  66
ATOM     66  O   UNL     1       7.958  12.241  -8.606  0.00  0.00    -0.384 OA
ATOM     67  H   UNL     1       7.081  11.903  -8.353  0.00  0.00    +0.210 HD
ENDBRANCH  59  66
ENDBRANCH  54  58
ENDBRANCH  53  54
ENDBRANCH  41  53
ENDBRANCH  40  43
ENDBRANCH   1  40
TORSDOF 22
