REMARK  Name = 
REMARK  16 active torsions:
REMARK  status: ('A' for Active; 'I' for Inactive)
REMARK    1  A    between atoms: C_1  and  C_2
REMARK    2  A    between atoms: C_2  and  O_4
REMARK    3  A    between atoms: O_4  and  C_5
REMARK    4  A    between atoms: C_6  and  O_34
REMARK    5  A    between atoms: C_8  and  C_11
REMARK    6  A    between atoms: C_12  and  O_30
REMARK    7  A    between atoms: C_19  and  O_26
REMARK    8  A    between atoms: C_21  and  O_22
REMARK    9  A    between atoms: O_22  and  C_23
REMARK   10  A    between atoms: C_23  and  C_25
REMARK   11  A    between atoms: O_26  and  C_27
REMARK   12  A    between atoms: C_27  and  C_29
REMARK   13  A    between atoms: O_30  and  C_31
REMARK   14  A    between atoms: C_31  and  C_33
REMARK   15  A    between atoms: O_34  and  C_35
REMARK   16  A    between atoms: C_35  and  C_37
REMARK                            x       y       z     vdW  Elec       q    Type
REMARK                         _______ _______ _______ _____ _____    ______ ____
ROOT
ATOM      1  C   UNL     1       8.763   0.583   0.524  0.00  0.00    +0.182 A 
ATOM      2  O   UNL     1       9.749   1.547   0.347  0.00  0.00    -0.451 OA
ATOM      3  C   UNL     1      11.058   1.158   0.239  0.00  0.00    +0.147 A 
ATOM      4  C   UNL     1      12.002   2.173   0.041  0.00  0.00    +0.093 A 
ATOM      5  C   UNL     1      13.353   1.846  -0.068  0.00  0.00    +0.139 A 
ATOM      6  C   UNL     1      13.754   0.517  -0.042  0.00  0.00    +0.093 A 
ATOM      7  C   UNL     1      12.810  -0.490   0.178  0.00  0.00    +0.150 A 
ATOM      8  C   UNL     1      11.461  -0.175   0.351  0.00  0.00    +0.110 A 
ATOM      9  C   UNL     1      10.441  -1.175   0.710  0.00  0.00    +0.239 A 
ATOM     10  O   UNL     1      10.731  -2.313   1.059  0.00  0.00    -0.283 OA
ATOM     11  C   UNL     1       9.022  -0.728   0.695  0.00  0.00    +0.221 A 
ENDROOT
BRANCH   1  15
ATOM     12  C   UNL     1       4.953   2.497   0.153  0.00  0.00    +0.174 A 
ATOM     13  C   UNL     1       5.127   1.195  -0.330  0.00  0.00    +0.051 A 
ATOM     14  C   UNL     1       6.352   0.551  -0.188  0.00  0.00    +0.015 A 
ATOM     15  C   UNL     1       7.402   1.167   0.500  0.00  0.00    +0.025 A 
ATOM     16  C   UNL     1       7.179   2.433   1.074  0.00  0.00    +0.061 A 
ATOM     17  C   UNL     1       5.966   3.109   0.901  0.00  0.00    +0.174 A 
BRANCH  12  18
ATOM     18  O   UNL     1       3.722   3.141  -0.064  0.00  0.00    -0.422 OA
BRANCH  18  20
ATOM     19  C   UNL     1       1.736   3.194  -1.347  0.00  0.00    +0.136 C 
ATOM     20  C   UNL     1       3.227   3.039  -1.367  0.00  0.00    +0.309 C 
ATOM     21  O   UNL     1       3.870   2.795  -2.380  0.00  0.00    -0.251 OA
ENDBRANCH  18  20
ENDBRANCH  12  18
BRANCH  17  22
ATOM     22  O   UNL     1       5.733   4.418   1.409  0.00  0.00    -0.422 OA
BRANCH  22  23
ATOM     23  C   UNL     1       6.609   5.135   2.237  0.00  0.00    +0.309 C 
ATOM     24  C   UNL     1       6.068   6.505   2.518  0.00  0.00    +0.136 C 
ATOM     25  O   UNL     1       7.671   4.744   2.707  0.00  0.00    -0.251 OA
ENDBRANCH  22  23
ENDBRANCH  17  22
ENDBRANCH   1  15
BRANCH   5  26
ATOM     26  O   UNL     1      14.268   2.910  -0.218  0.00  0.00    -0.426 OA
BRANCH  26  27
ATOM     27  C   UNL     1      15.567   2.821   0.296  0.00  0.00    +0.309 C 
ATOM     28  C   UNL     1      16.326   4.079  -0.000  0.00  0.00    +0.136 C 
ATOM     29  O   UNL     1      16.052   1.881   0.913  0.00  0.00    -0.251 OA
ENDBRANCH  26  27
ENDBRANCH   5  26
BRANCH   7  30
ATOM     30  O   UNL     1      13.264  -1.800   0.401  0.00  0.00    -0.425 OA
BRANCH  30  31
ATOM     31  C   UNL     1      14.246  -2.301  -0.449  0.00  0.00    +0.309 C 
ATOM     32  C   UNL     1      14.979  -3.390   0.273  0.00  0.00    +0.136 C 
ATOM     33  O   UNL     1      14.499  -1.912  -1.580  0.00  0.00    -0.251 OA
ENDBRANCH  30  31
ENDBRANCH   7  30
BRANCH  11  34
ATOM     34  O   UNL     1       8.036  -1.681   1.002  0.00  0.00    -0.418 OA
BRANCH  34  35
ATOM     35  C   UNL     1       8.036  -2.745   0.133  0.00  0.00    +0.309 C 
ATOM     36  C   UNL     1       7.400  -3.925   0.808  0.00  0.00    +0.136 C 
ATOM     37  O   UNL     1       8.437  -2.734  -1.024  0.00  0.00    -0.251 OA
ENDBRANCH  34  35
ENDBRANCH  11  34
TORSDOF 11
