REMARK  Name = 
REMARK  17 active torsions:
REMARK  status: ('A' for Active; 'I' for Inactive)
REMARK    1  A    between atoms: C_1  and  C_2
REMARK    2  A    between atoms: C_3  and  O_43
REMARK    3  A    between atoms: C_4  and  O_42
REMARK    4  A    between atoms: C_5  and  O_41
REMARK    5  A    between atoms: C_6  and  O_8
REMARK    6  A    between atoms: O_8  and  C_9
REMARK    7  A    between atoms: C_10  and  O_40
REMARK    8  A    between atoms: C_11  and  O_39
REMARK    9  A    between atoms: C_12  and  C_37
REMARK   10  A    between atoms: C_14  and  O_15
REMARK   11  A    between atoms: O_15  and  C_16
REMARK   12  A    between atoms: C_17  and  C_29
REMARK   13  A    between atoms: C_21  and  O_28
REMARK   14  A    between atoms: C_23  and  O_27
REMARK   15  A    between atoms: C_31  and  O_36
REMARK   16  A    between atoms: C_32  and  O_35
REMARK   17  A    between atoms: C_37  and  O_38
REMARK                            x       y       z     vdW  Elec       q    Type
REMARK                         _______ _______ _______ _____ _____    ______ ____
ROOT
ATOM      1  C   UNL     1       2.414   2.750  -3.045  0.00  0.00    +0.221 C 
ATOM      2  C   UNL     1       1.249   2.207  -3.921  0.00  0.00    +0.340 C 
ATOM      3  O   UNL     1       1.580   2.214  -5.330  0.00  0.00    -0.331 OA
ATOM      4  C   UNL     1       2.093   3.426  -5.893  0.00  0.00    +0.179 C 
ATOM      5  C   UNL     1       3.244   4.012  -5.066  0.00  0.00    +0.177 C 
ATOM      6  C   UNL     1       2.851   4.116  -3.597  0.00  0.00    +0.180 C 
ENDROOT
BRANCH   6   7
ATOM      7  O   UNL     1       3.903   4.722  -2.831  0.00  0.00    -0.386 OA
ATOM      8  H   UNL     1       4.692   4.785  -3.407  0.00  0.00    +0.210 HD
ENDBRANCH   6   7
BRANCH   5   9
ATOM      9  O   UNL     1       3.667   5.291  -5.553  0.00  0.00    -0.386 OA
ATOM     10  H   UNL     1       3.271   5.990  -4.998  0.00  0.00    +0.210 HD
ENDBRANCH   5   9
BRANCH   4  11
ATOM     11  C   UNL     1       0.972   4.433  -6.224  0.00  0.00    +0.190 C 
BRANCH  11  12
ATOM     12  O   UNL     1       0.018   3.865  -7.129  0.00  0.00    -0.392 OA
ATOM     13  H   UNL     1       0.537   3.424  -7.829  0.00  0.00    +0.210 HD
ENDBRANCH  11  12
ENDBRANCH   4  11
BRANCH   2  14
ATOM     14  O   UNL     1       0.044   2.955  -3.686  0.00  0.00    -0.453 OA
BRANCH  14  15
ATOM     15  C   UNL     1      -0.831   2.545  -2.679  0.00  0.00    +0.214 A 
ATOM     16  C   UNL     1      -0.366   1.725  -1.509  0.00  0.00    +0.238 A 
ATOM     17  O   UNL     1       0.737   1.192  -1.498  0.00  0.00    -0.283 OA
ATOM     18  C   UNL     1      -1.285   1.558  -0.374  0.00  0.00    +0.109 A 
ATOM     19  C   UNL     1      -2.584   2.025  -0.521  0.00  0.00    +0.147 A 
ATOM     20  C   UNL     1      -3.502   1.891   0.525  0.00  0.00    +0.092 A 
ATOM     21  C   UNL     1      -3.104   1.278   1.709  0.00  0.00    +0.124 A 
ATOM     22  C   UNL     1      -1.809   0.804   1.870  0.00  0.00    +0.091 A 
ATOM     23  O   UNL     1      -3.036   2.606  -1.672  0.00  0.00    -0.451 OA
ATOM     24  C   UNL     1      -0.897   0.953   0.831  0.00  0.00    +0.135 A 
ATOM     25  C   UNL     1      -2.143   2.879  -2.705  0.00  0.00    +0.181 A 
BRANCH  25  26
ATOM     26  C   UNL     1      -2.829   3.542  -3.853  0.00  0.00    +0.025 A 
ATOM     27  C   UNL     1      -3.974   4.340  -3.648  0.00  0.00    +0.015 A 
ATOM     28  C   UNL     1      -4.703   4.874  -4.724  0.00  0.00    +0.050 A 
ATOM     29  C   UNL     1      -4.275   4.638  -6.017  0.00  0.00    +0.158 A 
ATOM     30  C   UNL     1      -3.132   3.887  -6.242  0.00  0.00    +0.159 A 
ATOM     31  C   UNL     1      -2.428   3.312  -5.183  0.00  0.00    +0.060 A 
BRANCH  29  32
ATOM     32  O   UNL     1      -4.977   5.150  -7.067  0.00  0.00    -0.503 OA
ATOM     33  H   UNL     1      -4.504   4.821  -7.859  0.00  0.00    +0.292 HD
ENDBRANCH  29  32
BRANCH  30  34
ATOM     34  O   UNL     1      -2.688   3.744  -7.529  0.00  0.00    -0.503 OA
ATOM     35  H   UNL     1      -1.709   3.656  -7.460  0.00  0.00    +0.292 HD
ENDBRANCH  30  34
ENDBRANCH  25  26
BRANCH  24  36
ATOM     36  O   UNL     1       0.380   0.503   1.010  0.00  0.00    -0.506 OA
ATOM     37  H   UNL     1       0.495   0.131   1.900  0.00  0.00    +0.292 HD
ENDBRANCH  24  36
BRANCH  21  38
ATOM     38  O   UNL     1      -3.963   1.110   2.754  0.00  0.00    -0.507 OA
ATOM     39  H   UNL     1      -4.832   1.473   2.517  0.00  0.00    +0.292 HD
ENDBRANCH  21  38
ENDBRANCH  14  15
ENDBRANCH   2  14
BRANCH   1  40
ATOM     40  O   UNL     1       3.456   1.751  -2.972  0.00  0.00    -0.337 OA
BRANCH  40  44
ATOM     41  C   UNL     1       7.487   2.406  -2.106  0.00  0.00    +0.041 C 
ATOM     42  C   UNL     1       6.698   1.304  -1.385  0.00  0.00    +0.149 C 
ATOM     43  O   UNL     1       5.494   0.980  -2.108  0.00  0.00    -0.343 OA
ATOM     44  C   UNL     1       4.508   2.022  -2.044  0.00  0.00    +0.282 C 
ATOM     45  C   UNL     1       4.065   2.205  -0.576  0.00  0.00    +0.201 C 
ATOM     46  C   UNL     1       5.283   2.665   0.224  0.00  0.00    +0.179 C 
ATOM     47  C   UNL     1       6.422   1.641   0.095  0.00  0.00    +0.174 C 
BRANCH  47  48
ATOM     48  O   UNL     1       7.619   2.125   0.718  0.00  0.00    -0.387 OA
ATOM     49  H   UNL     1       7.392   2.951   1.183  0.00  0.00    +0.210 HD
ENDBRANCH  47  48
BRANCH  46  50
ATOM     50  O   UNL     1       4.932   2.831   1.605  0.00  0.00    -0.386 OA
ATOM     51  H   UNL     1       4.321   2.090   1.801  0.00  0.00    +0.210 HD
ENDBRANCH  46  50
BRANCH  45  52
ATOM     52  O   UNL     1       3.601   0.978   0.016  0.00  0.00    -0.384 OA
ATOM     53  H   UNL     1       3.221   0.443  -0.711  0.00  0.00    +0.210 HD
ENDBRANCH  45  52
ENDBRANCH  40  44
ENDBRANCH   1  40
TORSDOF 16
