REMARK  Name = 
REMARK  16 active torsions:
REMARK  status: ('A' for Active; 'I' for Inactive)
REMARK    1  A    between atoms: C_2  and  O_42
REMARK    2  A    between atoms: C_3  and  O_41
REMARK    3  A    between atoms: C_4  and  O_40
REMARK    4  A    between atoms: C_5  and  O_7
REMARK    5  A    between atoms: O_7  and  C_8
REMARK    6  A    between atoms: C_9  and  C_32
REMARK    7  A    between atoms: C_13  and  O_20
REMARK    8  A    between atoms: C_15  and  O_19
REMARK    9  A    between atoms: O_20  and  C_21
REMARK   10  A    between atoms: C_22  and  O_31
REMARK   11  A    between atoms: C_23  and  O_30
REMARK   12  A    between atoms: C_24  and  O_29
REMARK   13  A    between atoms: C_25  and  C_27
REMARK   14  A    between atoms: C_27  and  O_28
REMARK   15  A    between atoms: C_34  and  O_39
REMARK   16  A    between atoms: C_35  and  O_38
REMARK                            x       y       z     vdW  Elec       q    Type
REMARK                         _______ _______ _______ _____ _____    ______ ____
ROOT
ATOM      1  C   UNL     1       2.542  -2.726   0.095  0.00  0.00    +0.214 A 
ATOM      2  C   UNL     1       3.495  -1.610  -0.255  0.00  0.00    +0.238 A 
ATOM      3  O   UNL     1       3.119  -0.442  -0.182  0.00  0.00    -0.283 OA
ATOM      4  C   UNL     1       4.864  -1.980  -0.677  0.00  0.00    +0.109 A 
ATOM      5  C   UNL     1       5.126  -3.329  -0.850  0.00  0.00    +0.147 A 
ATOM      6  C   UNL     1       6.399  -3.780  -1.208  0.00  0.00    +0.093 A 
ATOM      7  C   UNL     1       7.435  -2.880  -1.444  0.00  0.00    +0.131 A 
ATOM      8  C   UNL     1       7.180  -1.513  -1.295  0.00  0.00    +0.092 A 
ATOM      9  O   UNL     1       4.186  -4.306  -0.706  0.00  0.00    -0.451 OA
ATOM     10  C   UNL     1       5.905  -1.068  -0.902  0.00  0.00    +0.135 A 
ATOM     11  C   UNL     1       2.930  -3.985  -0.228  0.00  0.00    +0.181 A 
ENDROOT
BRANCH  11  12
ATOM     12  C   UNL     1       2.093  -5.206  -0.176  0.00  0.00    +0.025 A 
ATOM     13  C   UNL     1       0.804  -5.225  -0.735  0.00  0.00    +0.015 A 
ATOM     14  C   UNL     1      -0.010  -6.354  -0.623  0.00  0.00    +0.050 A 
ATOM     15  C   UNL     1       0.493  -7.492  -0.018  0.00  0.00    +0.158 A 
ATOM     16  C   UNL     1       1.799  -7.524   0.460  0.00  0.00    +0.159 A 
ATOM     17  C   UNL     1       2.602  -6.390   0.392  0.00  0.00    +0.060 A 
BRANCH  16  18
ATOM     18  O   UNL     1       2.246  -8.697   1.002  0.00  0.00    -0.503 OA
ATOM     19  H   UNL     1       3.203  -8.620   1.158  0.00  0.00    +0.292 HD
ENDBRANCH  16  18
BRANCH  15  20
ATOM     20  O   UNL     1      -0.311  -8.587   0.105  0.00  0.00    -0.503 OA
ATOM     21  H   UNL     1       0.253  -9.267   0.523  0.00  0.00    +0.292 HD
ENDBRANCH  15  20
ENDBRANCH  11  12
BRANCH  10  22
ATOM     22  O   UNL     1       5.705   0.272  -0.719  0.00  0.00    -0.506 OA
ATOM     23  H   UNL     1       6.472   0.785  -1.019  0.00  0.00    +0.292 HD
ENDBRANCH  10  22
BRANCH   7  24
ATOM     24  O   UNL     1       8.715  -3.231  -1.798  0.00  0.00    -0.461 OA
BRANCH  24  25
ATOM     25  C   UNL     1       8.913  -4.603  -2.196  0.00  0.00    +0.339 C 
ATOM     26  O   UNL     1       9.020  -5.492  -1.071  0.00  0.00    -0.331 OA
ATOM     27  C   UNL     1      10.187  -5.275  -0.250  0.00  0.00    +0.179 C 
ATOM     28  C   UNL     1      11.451  -5.477  -1.100  0.00  0.00    +0.177 C 
ATOM     29  C   UNL     1      11.426  -4.518  -2.298  0.00  0.00    +0.180 C 
ATOM     30  C   UNL     1      10.146  -4.737  -3.112  0.00  0.00    +0.214 C 
BRANCH  29  31
ATOM     31  O   UNL     1      12.574  -4.741  -3.125  0.00  0.00    -0.386 OA
ATOM     32  H   UNL     1      12.642  -5.710  -3.247  0.00  0.00    +0.210 HD
ENDBRANCH  29  31
BRANCH  30  33
ATOM     33  O   UNL     1      10.051  -3.864  -4.242  0.00  0.00    -0.383 OA
ATOM     34  H   UNL     1      10.655  -3.115  -4.096  0.00  0.00    +0.210 HD
ENDBRANCH  30  33
BRANCH  28  35
ATOM     35  O   UNL     1      11.523  -6.826  -1.602  0.00  0.00    -0.386 OA
ATOM     36  H   UNL     1      10.611  -7.166  -1.699  0.00  0.00    +0.210 HD
ENDBRANCH  28  35
BRANCH  27  37
ATOM     37  C   UNL     1      10.146  -6.285   0.911  0.00  0.00    +0.190 C 
BRANCH  37  38
ATOM     38  O   UNL     1       9.047  -6.030   1.786  0.00  0.00    -0.392 OA
ATOM     39  H   UNL     1       9.158  -5.138   2.157  0.00  0.00    +0.210 HD
ENDBRANCH  37  38
ENDBRANCH  27  37
ENDBRANCH  24  25
ENDBRANCH   7  24
BRANCH   1  40
ATOM     40  O   UNL     1       1.351  -2.298   0.658  0.00  0.00    -0.453 OA
BRANCH  40  43
ATOM     41  C   UNL     1      -1.247  -4.464   1.909  0.00  0.00    +0.198 C 
ATOM     42  O   UNL     1      -0.590  -3.513   1.075  0.00  0.00    -0.337 OA
ATOM     43  C   UNL     1       0.676  -3.111   1.615  0.00  0.00    +0.339 C 
ATOM     44  C   UNL     1       0.381  -2.311   2.902  0.00  0.00    +0.214 C 
ATOM     45  C   UNL     1      -0.319  -3.253   3.895  0.00  0.00    +0.180 C 
ATOM     46  C   UNL     1      -1.589  -3.871   3.270  0.00  0.00    +0.171 C 
BRANCH  46  47
ATOM     47  O   UNL     1      -2.156  -4.899   4.086  0.00  0.00    -0.387 OA
ATOM     48  H   UNL     1      -1.507  -5.152   4.764  0.00  0.00    +0.210 HD
ENDBRANCH  46  47
BRANCH  45  49
ATOM     49  O   UNL     1      -0.661  -2.545   5.089  0.00  0.00    -0.386 OA
ATOM     50  H   UNL     1      -1.029  -1.689   4.787  0.00  0.00    +0.210 HD
ENDBRANCH  45  49
BRANCH  44  51
ATOM     51  O   UNL     1      -0.501  -1.196   2.667  0.00  0.00    -0.383 OA
ATOM     52  H   UNL     1      -0.738  -1.220   1.717  0.00  0.00    +0.210 HD
ENDBRANCH  44  51
ENDBRANCH  40  43
ENDBRANCH   1  40
TORSDOF 16
