REMARK  Name = 
REMARK  17 active torsions:
REMARK  status: ('A' for Active; 'I' for Inactive)
REMARK    1  A    between atoms: C_3  and  O_44
REMARK    2  A    between atoms: C_4  and  O_43
REMARK    3  A    between atoms: C_6  and  C_7
REMARK    4  A    between atoms: C_8  and  O_20
REMARK    5  A    between atoms: C_12  and  O_19
REMARK    6  A    between atoms: C_14  and  O_18
REMARK    7  A    between atoms: O_20  and  C_21
REMARK    8  A    between atoms: C_22  and  O_42
REMARK    9  A    between atoms: C_23  and  O_41
REMARK   10  A    between atoms: C_24  and  O_40
REMARK   11  A    between atoms: C_25  and  C_27
REMARK   12  A    between atoms: C_27  and  O_28
REMARK   13  A    between atoms: O_28  and  C_29
REMARK   14  A    between atoms: C_29  and  C_31
REMARK   15  A    between atoms: C_33  and  O_39
REMARK   16  A    between atoms: C_34  and  O_38
REMARK   17  A    between atoms: C_35  and  O_37
REMARK                            x       y       z     vdW  Elec       q    Type
REMARK                         _______ _______ _______ _____ _____    ______ ____
ROOT
ATOM      1  C   UNL     1      -3.947  -0.619  -1.339  0.00  0.00    +0.340 C 
ATOM      2  O   UNL     1      -3.879   0.127  -2.565  0.00  0.00    -0.330 OA
ATOM      3  C   UNL     1      -3.091  -0.385  -3.663  0.00  0.00    +0.191 C 
ATOM      4  C   UNL     1      -1.917  -1.349  -3.332  0.00  0.00    +0.178 C 
ATOM      5  C   UNL     1      -1.956  -1.952  -1.926  0.00  0.00    +0.180 C 
ATOM      6  C   UNL     1      -2.487  -0.906  -0.946  0.00  0.00    +0.214 C 
ENDROOT
BRANCH   4   7
ATOM      7  O   UNL     1      -0.626  -0.724  -3.519  0.00  0.00    -0.386 OA
ATOM      8  H   UNL     1      -0.291  -0.457  -2.639  0.00  0.00    +0.210 HD
ENDBRANCH   4   7
BRANCH   5   9
ATOM      9  O   UNL     1      -0.631  -2.370  -1.562  0.00  0.00    -0.386 OA
ATOM     10  H   UNL     1      -0.202  -2.705  -2.370  0.00  0.00    +0.210 HD
ENDBRANCH   5   9
BRANCH   6  11
ATOM     11  O   UNL     1      -2.293  -1.274   0.416  0.00  0.00    -0.383 OA
ATOM     12  H   UNL     1      -3.147  -1.326   0.866  0.00  0.00    +0.210 HD
ENDBRANCH   6  11
BRANCH   1  13
ATOM     13  O   UNL     1      -4.812  -1.756  -1.540  0.00  0.00    -0.453 OA
BRANCH  13  24
ATOM     14  C   UNL     1      -6.823  -2.042  -0.150  0.00  0.00    +0.181 A 
ATOM     15  O   UNL     1      -7.622  -2.914   0.606  0.00  0.00    -0.451 OA
ATOM     16  C   UNL     1      -7.290  -4.222   0.786  0.00  0.00    +0.147 A 
ATOM     17  C   UNL     1      -6.025  -4.689   0.505  0.00  0.00    +0.109 A 
ATOM     18  C   UNL     1      -5.710  -6.020   0.823  0.00  0.00    +0.135 A 
ATOM     19  C   UNL     1      -6.662  -6.873   1.392  0.00  0.00    +0.091 A 
ATOM     20  C   UNL     1      -7.944  -6.393   1.627  0.00  0.00    +0.124 A 
ATOM     21  C   UNL     1      -5.082  -3.753  -0.130  0.00  0.00    +0.238 A 
ATOM     22  O   UNL     1      -3.941  -4.145  -0.362  0.00  0.00    -0.283 OA
ATOM     23  C   UNL     1      -8.266  -5.074   1.324  0.00  0.00    +0.092 A 
ATOM     24  C   UNL     1      -5.556  -2.369  -0.537  0.00  0.00    +0.214 A 
BRANCH  14  26
ATOM     25  C   UNL     1      -8.994  -0.769  -0.016  0.00  0.00    +0.015 A 
ATOM     26  C   UNL     1      -7.651  -0.825  -0.487  0.00  0.00    +0.025 A 
ATOM     27  C   UNL     1      -7.231   0.259  -1.263  0.00  0.00    +0.060 A 
ATOM     28  C   UNL     1      -8.120   1.279  -1.609  0.00  0.00    +0.159 A 
ATOM     29  C   UNL     1      -9.454   1.238  -1.228  0.00  0.00    +0.158 A 
ATOM     30  C   UNL     1      -9.897   0.228  -0.403  0.00  0.00    +0.050 A 
BRANCH  28  31
ATOM     31  O   UNL     1      -7.667   2.324  -2.365  0.00  0.00    -0.503 OA
ATOM     32  H   UNL     1      -8.454   2.887  -2.508  0.00  0.00    +0.292 HD
ENDBRANCH  28  31
BRANCH  29  33
ATOM     33  O   UNL     1     -10.298   2.192  -1.720  0.00  0.00    -0.503 OA
ATOM     34  H   UNL     1     -11.206   1.845  -1.650  0.00  0.00    +0.292 HD
ENDBRANCH  29  33
ENDBRANCH  14  26
BRANCH  20  35
ATOM     35  O   UNL     1      -8.911  -7.185   2.173  0.00  0.00    -0.507 OA
ATOM     36  H   UNL     1      -8.538  -8.064   2.360  0.00  0.00    +0.292 HD
ENDBRANCH  20  35
BRANCH  18  37
ATOM     37  O   UNL     1      -4.473  -6.566   0.613  0.00  0.00    -0.506 OA
ATOM     38  H   UNL     1      -3.898  -5.875   0.217  0.00  0.00    +0.292 HD
ENDBRANCH  18  37
ENDBRANCH  13  24
ENDBRANCH   1  13
BRANCH   3  39
ATOM     39  C   UNL     1      -2.540   0.828  -4.456  0.00  0.00    +0.266 C 
BRANCH  39  40
ATOM     40  O   UNL     1      -3.554   1.809  -4.694  0.00  0.00    -0.458 OA
BRANCH  40  41
ATOM     41  C   UNL     1      -3.661   2.757  -3.730  0.00  0.00    +0.340 C 
ATOM     42  O   UNL     1      -2.989   2.851  -2.710  0.00  0.00    -0.245 OA
BRANCH  41  43
ATOM     43  C   UNL     1      -4.708   3.727  -4.095  0.00  0.00    +0.066 A 
ATOM     44  C   UNL     1      -5.316   3.717  -5.367  0.00  0.00    +0.064 A 
ATOM     45  C   UNL     1      -6.284   4.662  -5.647  0.00  0.00    +0.163 A 
ATOM     46  C   UNL     1      -6.644   5.616  -4.704  0.00  0.00    +0.201 A 
ATOM     47  C   UNL     1      -6.039   5.633  -3.454  0.00  0.00    +0.163 A 
ATOM     48  C   UNL     1      -5.065   4.695  -3.142  0.00  0.00    +0.064 A 
BRANCH  45  49
ATOM     49  O   UNL     1      -6.891   4.643  -6.868  0.00  0.00    -0.503 OA
ATOM     50  H   UNL     1      -7.512   5.396  -6.827  0.00  0.00    +0.292 HD
ENDBRANCH  45  49
BRANCH  46  51
ATOM     51  O   UNL     1      -7.616   6.527  -5.018  0.00  0.00    -0.501 OA
ATOM     52  H   UNL     1      -7.697   7.085  -4.217  0.00  0.00    +0.292 HD
ENDBRANCH  46  51
BRANCH  47  53
ATOM     53  O   UNL     1      -6.442   6.583  -2.557  0.00  0.00    -0.503 OA
ATOM     54  H   UNL     1      -5.936   6.462  -1.734  0.00  0.00    +0.292 HD
ENDBRANCH  47  53
ENDBRANCH  41  43
ENDBRANCH  40  41
ENDBRANCH  39  40
ENDBRANCH   3  39
TORSDOF 17
