REMARK  Name = 
REMARK  9 active torsions:
REMARK  status: ('A' for Active; 'I' for Inactive)
REMARK    1  A    between atoms: C_1  and  O_2
REMARK    2  A    between atoms: O_2  and  C_3
REMARK    3  A    between atoms: C_5  and  O_25
REMARK    4  A    between atoms: C_11  and  O_23
REMARK    5  A    between atoms: C_12  and  C_14
REMARK    6  A    between atoms: C_16  and  O_21
REMARK    7  A    between atoms: C_17  and  O_20
REMARK    8  A    between atoms: O_21  and  C_22
REMARK    9  A    between atoms: O_23  and  C_24
REMARK                            x       y       z     vdW  Elec       q    Type
REMARK                         _______ _______ _______ _____ _____    ______ ____
ROOT
ATOM      1  C   UNL     1       3.169  -0.094   1.250  0.00  0.00    +0.138 A 
ATOM      2  C   UNL     1       3.397   1.202   1.766  0.00  0.00    +0.109 A 
ATOM      3  C   UNL     1       3.035   2.423   1.017  0.00  0.00    +0.238 A 
ATOM      4  C   UNL     1       3.388   3.744   1.630  0.00  0.00    +0.211 A 
ATOM      5  C   UNL     1       3.881   3.749   2.890  0.00  0.00    +0.181 A 
ATOM      6  O   UNL     1       4.174   2.595   3.610  0.00  0.00    -0.451 OA
ATOM      7  O   UNL     1       2.471   2.346  -0.067  0.00  0.00    -0.283 OA
ATOM      8  C   UNL     1       3.993   1.367   3.014  0.00  0.00    +0.147 A 
ATOM      9  C   UNL     1       4.426   0.249   3.733  0.00  0.00    +0.092 A 
ATOM     10  C   UNL     1       4.243  -1.023   3.200  0.00  0.00    +0.124 A 
ATOM     11  C   UNL     1       3.613  -1.207   1.973  0.00  0.00    +0.092 A 
ENDROOT
BRANCH   5  12
ATOM     12  C   UNL     1       4.236   5.015   3.619  0.00  0.00    +0.025 A 
ATOM     13  C   UNL     1       5.288   5.047   4.552  0.00  0.00    +0.015 A 
ATOM     14  C   UNL     1       5.713   6.256   5.120  0.00  0.00    +0.050 A 
ATOM     15  C   UNL     1       5.099   7.443   4.743  0.00  0.00    +0.158 A 
ATOM     16  C   UNL     1       4.005   7.446   3.880  0.00  0.00    +0.162 A 
ATOM     17  C   UNL     1       3.551   6.226   3.375  0.00  0.00    +0.061 A 
BRANCH  15  18
ATOM     18  O   UNL     1       5.605   8.622   5.217  0.00  0.00    -0.503 OA
ATOM     19  H   UNL     1       5.101   9.317   4.749  0.00  0.00    +0.292 HD
ENDBRANCH  15  18
BRANCH  16  20
ATOM     20  O   UNL     1       3.487   8.682   3.590  0.00  0.00    -0.491 OA
ATOM     21  C   UNL     1       2.462   8.725   2.600  0.00  0.00    +0.277 C 
ENDBRANCH  16  20
ENDBRANCH   5  12
BRANCH   1  23
ATOM     22  C   UNL     1       1.828  -1.414  -0.215  0.00  0.00    +0.277 C 
ATOM     23  O   UNL     1       2.569  -0.223   0.027  0.00  0.00    -0.494 OA
ENDBRANCH   1  23
BRANCH   4  24
ATOM     24  O   UNL     1       3.256   4.932   0.915  0.00  0.00    -0.488 OA
ATOM     25  C   UNL     1       2.370   4.959  -0.196  0.00  0.00    +0.277 C 
ENDBRANCH   4  24
BRANCH  10  26
ATOM     26  O   UNL     1       4.707  -2.094   3.911  0.00  0.00    -0.507 OA
ATOM     27  H   UNL     1       4.554  -2.907   3.399  0.00  0.00    +0.292 HD
ENDBRANCH  10  26
TORSDOF 6
