REMARK  Name = 
REMARK  8 active torsions:
REMARK  status: ('A' for Active; 'I' for Inactive)
REMARK    1  A    between atoms: C_1  and  O_2
REMARK    2  A    between atoms: O_2  and  C_3
REMARK    3  A    between atoms: C_5  and  O_24
REMARK    4  A    between atoms: C_11  and  O_23
REMARK    5  A    between atoms: C_12  and  C_14
REMARK    6  A    between atoms: C_16  and  O_21
REMARK    7  A    between atoms: C_17  and  O_20
REMARK    8  A    between atoms: O_21  and  C_22
REMARK                            x       y       z     vdW  Elec       q    Type
REMARK                         _______ _______ _______ _____ _____    ______ ____
ROOT
ATOM      1  C   UNL     1       3.040   0.963  -0.809  0.00  0.00    +0.138 A 
ATOM      2  C   UNL     1       2.684   2.284  -0.476  0.00  0.00    +0.109 A 
ATOM      3  C   UNL     1       1.773   2.623   0.641  0.00  0.00    +0.238 A 
ATOM      4  C   UNL     1       1.338   4.041   0.747  0.00  0.00    +0.208 A 
ATOM      5  C   UNL     1       1.871   4.946  -0.087  0.00  0.00    +0.181 A 
ATOM      6  O   UNL     1       2.839   4.662  -1.031  0.00  0.00    -0.451 OA
ATOM      7  O   UNL     1       1.362   1.833   1.484  0.00  0.00    -0.283 OA
ATOM      8  C   UNL     1       3.201   3.350  -1.222  0.00  0.00    +0.147 A 
ATOM      9  C   UNL     1       4.127   3.119  -2.239  0.00  0.00    +0.092 A 
ATOM     10  C   UNL     1       4.525   1.820  -2.517  0.00  0.00    +0.124 A 
ATOM     11  C   UNL     1       3.985   0.743  -1.822  0.00  0.00    +0.092 A 
ENDROOT
BRANCH   5  12
ATOM     12  C   UNL     1       1.472   6.364  -0.063  0.00  0.00    +0.025 A 
ATOM     13  C   UNL     1       0.412   6.806  -0.869  0.00  0.00    +0.015 A 
ATOM     14  C   UNL     1       0.026   8.147  -0.849  0.00  0.00    +0.050 A 
ATOM     15  C   UNL     1       0.700   9.033  -0.023  0.00  0.00    +0.158 A 
ATOM     16  C   UNL     1       1.760   8.617   0.793  0.00  0.00    +0.162 A 
ATOM     17  C   UNL     1       2.147   7.275   0.767  0.00  0.00    +0.061 A 
BRANCH  15  18
ATOM     18  O   UNL     1       0.301  10.343  -0.016  0.00  0.00    -0.503 OA
ATOM     19  H   UNL     1       0.887  10.781   0.632  0.00  0.00    +0.292 HD
ENDBRANCH  15  18
BRANCH  16  20
ATOM     20  O   UNL     1       2.324   9.607   1.556  0.00  0.00    -0.491 OA
ATOM     21  C   UNL     1       3.406   9.222   2.396  0.00  0.00    +0.277 C 
ENDBRANCH  16  20
ENDBRANCH   5  12
BRANCH   1  23
ATOM     22  C   UNL     1       2.318  -1.300  -0.820  0.00  0.00    +0.277 C 
ATOM     23  O   UNL     1       2.466  -0.069  -0.114  0.00  0.00    -0.494 OA
ENDBRANCH   1  23
BRANCH   4  24
ATOM     24  O   UNL     1       0.407   4.348   1.722  0.00  0.00    -0.501 OA
ATOM     25  H   UNL     1       0.249   3.499   2.190  0.00  0.00    +0.292 HD
ENDBRANCH   4  24
BRANCH  10  26
ATOM     26  O   UNL     1       5.454   1.635  -3.497  0.00  0.00    -0.507 OA
ATOM     27  H   UNL     1       5.677   0.690  -3.554  0.00  0.00    +0.292 HD
ENDBRANCH  10  26
TORSDOF 6
