REMARK  Name = 
REMARK  18 active torsions:
REMARK  status: ('A' for Active; 'I' for Inactive)
REMARK    1  A    between atoms: C_3  and  O_54
REMARK    2  A    between atoms: C_4  and  O_53
REMARK    3  A    between atoms: C_6  and  C_7
REMARK    4  A    between atoms: C_8  and  O_20
REMARK    5  A    between atoms: C_12  and  O_19
REMARK    6  A    between atoms: C_14  and  O_18
REMARK    7  A    between atoms: O_20  and  C_21
REMARK    8  A    between atoms: C_23  and  O_36
REMARK    9  A    between atoms: C_25  and  O_35
REMARK   10  A    between atoms: C_27  and  O_34
REMARK   11  A    between atoms: C_29  and  C_32
REMARK   12  A    between atoms: C_32  and  O_33
REMARK   13  A    between atoms: O_36  and  C_37
REMARK   14  A    between atoms: C_39  and  O_52
REMARK   15  A    between atoms: C_41  and  O_51
REMARK   16  A    between atoms: C_43  and  O_50
REMARK   17  A    between atoms: C_45  and  C_48
REMARK   18  A    between atoms: C_48  and  O_49
REMARK                            x       y       z     vdW  Elec       q    Type
REMARK                         _______ _______ _______ _____ _____    ______ ____
ROOT
ATOM      1  C   UNL     1      -2.444  -0.872  -1.084  0.00  0.00    +0.340 C 
ATOM      2  O   UNL     1      -2.615   0.124  -2.103  0.00  0.00    -0.331 OA
ATOM      3  C   UNL     1      -2.892  -0.279  -3.437  0.00  0.00    +0.179 C 
ATOM      4  C   UNL     1      -1.980  -1.429  -3.863  0.00  0.00    +0.177 C 
ATOM      5  C   UNL     1      -1.928  -2.599  -2.872  0.00  0.00    +0.180 C 
ATOM      6  C   UNL     1      -1.664  -2.193  -1.419  0.00  0.00    +0.221 C 
ENDROOT
BRANCH   5   7
ATOM      7  O   UNL     1      -3.124  -3.384  -2.966  0.00  0.00    -0.386 OA
ATOM      8  H   UNL     1      -3.900  -2.808  -2.776  0.00  0.00    +0.210 HD
ENDBRANCH   5   7
BRANCH   4   9
ATOM      9  O   UNL     1      -2.351  -1.924  -5.151  0.00  0.00    -0.386 OA
ATOM     10  H   UNL     1      -2.970  -2.667  -4.983  0.00  0.00    +0.210 HD
ENDBRANCH   4   9
BRANCH   6  11
ATOM     11  O   UNL     1      -0.249  -2.071  -1.091  0.00  0.00    -0.337 OA
BRANCH  11  12
ATOM     12  C   UNL     1       0.532  -3.286  -1.188  0.00  0.00    +0.282 C 
ATOM     13  O   UNL     1       1.326  -3.592  -0.025  0.00  0.00    -0.341 OA
ATOM     14  C   UNL     1       2.412  -2.706   0.326  0.00  0.00    +0.178 C 
ATOM     15  C   UNL     1       3.231  -2.136  -0.858  0.00  0.00    +0.177 C 
ATOM     16  C   UNL     1       2.388  -1.918  -2.122  0.00  0.00    +0.179 C 
ATOM     17  C   UNL     1       1.506  -3.161  -2.370  0.00  0.00    +0.201 C 
BRANCH  17  18
ATOM     18  O   UNL     1       2.335  -4.333  -2.520  0.00  0.00    -0.384 OA
ATOM     19  H   UNL     1       2.261  -4.856  -1.694  0.00  0.00    +0.210 HD
ENDBRANCH  17  18
BRANCH  16  20
ATOM     20  O   UNL     1       1.633  -0.710  -2.038  0.00  0.00    -0.386 OA
ATOM     21  H   UNL     1       0.857  -0.854  -1.479  0.00  0.00    +0.210 HD
ENDBRANCH  16  20
BRANCH  15  22
ATOM     22  O   UNL     1       4.325  -3.030  -1.144  0.00  0.00    -0.386 OA
ATOM     23  H   UNL     1       4.067  -3.600  -1.897  0.00  0.00    +0.210 HD
ENDBRANCH  15  22
BRANCH  14  24
ATOM     24  C   UNL     1       1.908  -1.587   1.243  0.00  0.00    +0.190 C 
BRANCH  24  25
ATOM     25  O   UNL     1       1.278  -2.090   2.421  0.00  0.00    -0.392 OA
ATOM     26  H   UNL     1       1.913  -2.670   2.878  0.00  0.00    +0.210 HD
ENDBRANCH  24  25
ENDBRANCH  14  24
ENDBRANCH  11  12
ENDBRANCH   6  11
BRANCH   3  27
ATOM     27  C   UNL     1      -4.393  -0.448  -3.702  0.00  0.00    +0.190 C 
BRANCH  27  28
ATOM     28  O   UNL     1      -4.928  -1.516  -2.937  0.00  0.00    -0.392 OA
ATOM     29  H   UNL     1      -5.256  -1.093  -2.119  0.00  0.00    +0.210 HD
ENDBRANCH  27  28
ENDBRANCH   3  27
BRANCH   1  30
ATOM     30  O   UNL     1      -3.721  -1.226  -0.486  0.00  0.00    -0.453 OA
BRANCH  30  41
ATOM     31  C   UNL     1      -4.983  -0.797   1.567  0.00  0.00    +0.181 A 
ATOM     32  O   UNL     1      -4.968  -0.148   2.845  0.00  0.00    -0.451 OA
ATOM     33  C   UNL     1      -3.809   0.520   3.242  0.00  0.00    +0.147 A 
ATOM     34  C   UNL     1      -2.577   0.210   2.688  0.00  0.00    +0.109 A 
ATOM     35  C   UNL     1      -1.390   0.866   3.048  0.00  0.00    +0.135 A 
ATOM     36  C   UNL     1      -1.417   1.867   4.000  0.00  0.00    +0.091 A 
ATOM     37  C   UNL     1      -2.640   2.175   4.593  0.00  0.00    +0.124 A 
ATOM     38  C   UNL     1      -2.580  -0.813   1.677  0.00  0.00    +0.238 A 
ATOM     39  O   UNL     1      -1.567  -1.466   1.466  0.00  0.00    -0.283 OA
ATOM     40  C   UNL     1      -3.830   1.513   4.228  0.00  0.00    +0.092 A 
ATOM     41  C   UNL     1      -3.825  -0.943   0.869  0.00  0.00    +0.214 A 
BRANCH  31  43
ATOM     42  C   UNL     1      -7.546  -1.070   1.843  0.00  0.00    +0.015 A 
ATOM     43  C   UNL     1      -6.362  -1.279   1.094  0.00  0.00    +0.025 A 
ATOM     44  C   UNL     1      -6.544  -2.053  -0.077  0.00  0.00    +0.060 A 
ATOM     45  C   UNL     1      -7.809  -2.462  -0.529  0.00  0.00    +0.159 A 
ATOM     46  C   UNL     1      -8.946  -2.230   0.228  0.00  0.00    +0.158 A 
ATOM     47  C   UNL     1      -8.819  -1.551   1.426  0.00  0.00    +0.050 A 
BRANCH  46  48
ATOM     48  O   UNL     1     -10.130  -2.716  -0.258  0.00  0.00    -0.503 OA
ATOM     49  H   UNL     1     -10.722  -2.913   0.489  0.00  0.00    +0.292 HD
ENDBRANCH  46  48
BRANCH  45  50
ATOM     50  O   UNL     1      -7.929  -3.115  -1.724  0.00  0.00    -0.503 OA
ATOM     51  H   UNL     1      -8.894  -3.226  -1.857  0.00  0.00    +0.292 HD
ENDBRANCH  45  50
ENDBRANCH  31  43
BRANCH  37  52
ATOM     52  O   UNL     1      -2.690   3.145   5.551  0.00  0.00    -0.507 OA
ATOM     53  H   UNL     1      -1.787   3.486   5.692  0.00  0.00    +0.292 HD
ENDBRANCH  37  52
BRANCH  35  54
ATOM     54  O   UNL     1      -0.176   0.590   2.487  0.00  0.00    -0.506 OA
ATOM     55  H   UNL     1      -0.209  -0.332   2.134  0.00  0.00    +0.292 HD
ENDBRANCH  35  54
ENDBRANCH  30  41
ENDBRANCH   1  30
TORSDOF 18
