REMARK  Name = 
REMARK  17 active torsions:
REMARK  status: ('A' for Active; 'I' for Inactive)
REMARK    1  A    between atoms: C_1  and  C_2
REMARK    2  A    between atoms: C_3  and  O_43
REMARK    3  A    between atoms: C_4  and  O_42
REMARK    4  A    between atoms: C_5  and  O_30
REMARK    5  A    between atoms: C_6  and  O_8
REMARK    6  A    between atoms: O_8  and  C_9
REMARK    7  A    between atoms: C_10  and  C_22
REMARK    8  A    between atoms: C_14  and  O_21
REMARK    9  A    between atoms: C_16  and  O_20
REMARK   10  A    between atoms: C_24  and  O_29
REMARK   11  A    between atoms: C_25  and  O_28
REMARK   12  A    between atoms: O_30  and  C_31
REMARK   13  A    between atoms: C_32  and  O_41
REMARK   14  A    between atoms: C_33  and  O_40
REMARK   15  A    between atoms: C_34  and  O_39
REMARK   16  A    between atoms: C_35  and  C_37
REMARK   17  A    between atoms: C_37  and  O_38
REMARK                            x       y       z     vdW  Elec       q    Type
REMARK                         _______ _______ _______ _____ _____    ______ ____
ROOT
ATOM      1  C   UNL     1       0.727   0.133   0.480  0.00  0.00    +0.041 C 
ATOM      2  C   UNL     1       2.256   0.099   0.345  0.00  0.00    +0.150 C 
ATOM      3  O   UNL     1       2.785   1.150  -0.485  0.00  0.00    -0.334 OA
ATOM      4  C   UNL     1       2.554   1.040  -1.901  0.00  0.00    +0.340 C 
ATOM      5  C   UNL     1       2.894  -0.396  -2.436  0.00  0.00    +0.221 C 
ATOM      6  C   UNL     1       2.320  -1.519  -1.545  0.00  0.00    +0.180 C 
ATOM      7  C   UNL     1       2.751  -1.286  -0.089  0.00  0.00    +0.174 C 
ENDROOT
BRANCH   7   8
ATOM      8  O   UNL     1       2.262  -2.300   0.798  0.00  0.00    -0.387 OA
ATOM      9  H   UNL     1       1.662  -2.885   0.303  0.00  0.00    +0.210 HD
ENDBRANCH   7   8
BRANCH   6  10
ATOM     10  O   UNL     1       2.808  -2.809  -1.976  0.00  0.00    -0.386 OA
ATOM     11  H   UNL     1       3.783  -2.732  -1.932  0.00  0.00    +0.210 HD
ENDBRANCH   6  10
BRANCH   5  12
ATOM     12  O   UNL     1       4.298  -0.729  -2.469  0.00  0.00    -0.337 OA
BRANCH  12  13
ATOM     13  C   UNL     1       5.084  -0.096  -3.478  0.00  0.00    +0.282 C 
ATOM     14  O   UNL     1       4.483  -0.187  -4.771  0.00  0.00    -0.341 OA
ATOM     15  C   UNL     1       4.295  -1.548  -5.204  0.00  0.00    +0.178 C 
ATOM     16  C   UNL     1       5.642  -2.277  -5.335  0.00  0.00    +0.177 C 
ATOM     17  C   UNL     1       6.409  -2.183  -4.002  0.00  0.00    +0.179 C 
ATOM     18  C   UNL     1       6.480  -0.745  -3.468  0.00  0.00    +0.201 C 
BRANCH  16  19
ATOM     19  O   UNL     1       6.455  -1.770  -6.394  0.00  0.00    -0.386 OA
ATOM     20  H   UNL     1       7.321  -1.505  -6.035  0.00  0.00    +0.210 HD
ENDBRANCH  16  19
BRANCH  17  21
ATOM     21  O   UNL     1       7.760  -2.654  -4.163  0.00  0.00    -0.386 OA
ATOM     22  H   UNL     1       7.749  -3.376  -4.819  0.00  0.00    +0.210 HD
ENDBRANCH  17  21
BRANCH  18  23
ATOM     23  O   UNL     1       7.036  -0.757  -2.140  0.00  0.00    -0.384 OA
ATOM     24  H   UNL     1       7.690  -1.480  -2.124  0.00  0.00    +0.210 HD
ENDBRANCH  18  23
BRANCH  15  25
ATOM     25  C   UNL     1       3.367  -1.561  -6.430  0.00  0.00    +0.190 C 
BRANCH  25  26
ATOM     26  O   UNL     1       3.921  -1.013  -7.614  0.00  0.00    -0.392 OA
ATOM     27  H   UNL     1       3.569  -0.111  -7.709  0.00  0.00    +0.210 HD
ENDBRANCH  25  26
ENDBRANCH  15  25
ENDBRANCH  12  13
ENDBRANCH   5  12
BRANCH   4  28
ATOM     28  O   UNL     1       3.363   2.017  -2.633  0.00  0.00    -0.453 OA
BRANCH  28  29
ATOM     29  C   UNL     1       2.950   3.326  -2.845  0.00  0.00    +0.214 A 
ATOM     30  C   UNL     1       1.496   3.615  -3.112  0.00  0.00    +0.238 A 
ATOM     31  O   UNL     1       0.737   2.730  -3.485  0.00  0.00    -0.283 OA
ATOM     32  C   UNL     1       1.059   5.023  -3.055  0.00  0.00    +0.109 A 
ATOM     33  C   UNL     1       2.052   5.998  -3.164  0.00  0.00    +0.147 A 
ATOM     34  C   UNL     1       1.710   7.365  -3.189  0.00  0.00    +0.092 A 
ATOM     35  C   UNL     1       0.384   7.740  -3.101  0.00  0.00    +0.124 A 
ATOM     36  C   UNL     1      -0.621   6.782  -2.997  0.00  0.00    +0.091 A 
ATOM     37  O   UNL     1       3.384   5.679  -3.294  0.00  0.00    -0.451 OA
ATOM     38  C   UNL     1      -0.288   5.422  -2.988  0.00  0.00    +0.135 A 
ATOM     39  C   UNL     1       3.807   4.360  -3.089  0.00  0.00    +0.181 A 
BRANCH  39  40
ATOM     40  C   UNL     1       5.285   4.255  -3.371  0.00  0.00    +0.025 A 
ATOM     41  C   UNL     1       5.682   4.079  -4.717  0.00  0.00    +0.015 A 
ATOM     42  C   UNL     1       7.033   4.103  -5.112  0.00  0.00    +0.050 A 
ATOM     43  C   UNL     1       8.014   4.331  -4.166  0.00  0.00    +0.158 A 
ATOM     44  C   UNL     1       7.659   4.541  -2.836  0.00  0.00    +0.159 A 
ATOM     45  C   UNL     1       6.308   4.505  -2.429  0.00  0.00    +0.060 A 
BRANCH  43  46
ATOM     46  O   UNL     1       9.323   4.375  -4.562  0.00  0.00    -0.503 OA
ATOM     47  H   UNL     1       9.834   4.565  -3.750  0.00  0.00    +0.292 HD
ENDBRANCH  43  46
BRANCH  44  48
ATOM     48  O   UNL     1       8.693   4.815  -1.976  0.00  0.00    -0.503 OA
ATOM     49  H   UNL     1       8.330   5.007  -1.096  0.00  0.00    +0.292 HD
ENDBRANCH  44  48
ENDBRANCH  39  40
BRANCH  35  50
ATOM     50  O   UNL     1      -0.017   9.048  -3.098  0.00  0.00    -0.507 OA
ATOM     51  H   UNL     1       0.760   9.629  -3.161  0.00  0.00    +0.292 HD
ENDBRANCH  35  50
BRANCH  38  52
ATOM     52  O   UNL     1      -1.305   4.519  -2.882  0.00  0.00    -0.506 OA
ATOM     53  H   UNL     1      -2.162   4.981  -2.974  0.00  0.00    +0.292 HD
ENDBRANCH  38  52
ENDBRANCH  28  29
ENDBRANCH   4  28
TORSDOF 16
