REMARK  Name = 
REMARK  10 active torsions:
REMARK  status: ('A' for Active; 'I' for Inactive)
REMARK    1  A    between atoms: C_1  and  O_2
REMARK    2  A    between atoms: O_2  and  C_3
REMARK    3  A    between atoms: C_4  and  O_25
REMARK    4  A    between atoms: C_6  and  C_9
REMARK    5  A    between atoms: C_10  and  O_23
REMARK    6  A    between atoms: C_17  and  O_22
REMARK    7  A    between atoms: C_19  and  O_20
REMARK    8  A    between atoms: O_20  and  C_21
REMARK    9  A    between atoms: O_23  and  C_24
REMARK   10  A    between atoms: O_25  and  C_26
REMARK                            x       y       z     vdW  Elec       q    Type
REMARK                         _______ _______ _______ _____ _____    ______ ____
ROOT
ATOM      1  C   UNL     1       5.415   4.587   0.846  0.00  0.00    +0.181 A 
ATOM      2  O   UNL     1       4.781   5.823   0.926  0.00  0.00    -0.451 OA
ATOM      3  C   UNL     1       5.546   6.972   0.935  0.00  0.00    +0.147 A 
ATOM      4  C   UNL     1       4.838   8.169   0.781  0.00  0.00    +0.092 A 
ATOM      5  C   UNL     1       5.529   9.367   0.801  0.00  0.00    +0.124 A 
ATOM      6  C   UNL     1       6.908   9.379   0.965  0.00  0.00    +0.092 A 
ATOM      7  C   UNL     1       7.643   8.191   1.128  0.00  0.00    +0.138 A 
ATOM      8  C   UNL     1       6.939   6.972   1.129  0.00  0.00    +0.109 A 
ATOM      9  C   UNL     1       7.503   5.646   1.409  0.00  0.00    +0.238 A 
ATOM     10  O   UNL     1       8.525   5.495   2.075  0.00  0.00    -0.283 OA
ATOM     11  C   UNL     1       6.756   4.430   0.965  0.00  0.00    +0.211 A 
ENDROOT
BRANCH   1  15
ATOM     12  C   UNL     1       2.744   1.219   0.826  0.00  0.00    +0.162 A 
ATOM     13  C   UNL     1       3.208   1.789   2.016  0.00  0.00    +0.050 A 
ATOM     14  C   UNL     1       4.029   2.914   2.006  0.00  0.00    +0.015 A 
ATOM     15  C   UNL     1       4.443   3.475   0.791  0.00  0.00    +0.025 A 
ATOM     16  C   UNL     1       3.915   2.961  -0.403  0.00  0.00    +0.061 A 
ATOM     17  C   UNL     1       3.063   1.833  -0.401  0.00  0.00    +0.162 A 
BRANCH  12  19
ATOM     18  C   UNL     1       1.216  -0.471   0.040  0.00  0.00    +0.277 C 
ATOM     19  O   UNL     1       2.048   0.062   1.057  0.00  0.00    -0.491 OA
ENDBRANCH  12  19
BRANCH  17  20
ATOM     20  O   UNL     1       2.560   1.266  -1.542  0.00  0.00    -0.491 OA
ATOM     21  C   UNL     1       2.677   1.983  -2.763  0.00  0.00    +0.277 C 
ENDBRANCH  17  20
ENDBRANCH   1  15
BRANCH   5  22
ATOM     22  O   UNL     1       4.907  10.572   0.668  0.00  0.00    -0.507 OA
ATOM     23  H   UNL     1       3.947  10.434   0.622  0.00  0.00    +0.292 HD
ENDBRANCH   5  22
BRANCH   7  24
ATOM     24  O   UNL     1       8.965   8.503   1.257  0.00  0.00    -0.494 OA
ATOM     25  C   UNL     1       9.993   7.535   1.337  0.00  0.00    +0.277 C 
ENDBRANCH   7  24
BRANCH  11  26
ATOM     26  O   UNL     1       7.567   3.333   0.893  0.00  0.00    -0.488 OA
ATOM     27  C   UNL     1       7.154   2.006   0.667  0.00  0.00    +0.277 C 
ENDBRANCH  11  26
TORSDOF 6
