REMARK  Name = 
REMARK  28 active torsions:
REMARK  status: ('A' for Active; 'I' for Inactive)
REMARK    1  A    between atoms: C_1  and  C_2
REMARK    2  A    between atoms: C_2  and  O_4
REMARK    3  A    between atoms: O_4  and  C_5
REMARK    4  A    between atoms: C_5  and  C_6
REMARK    5  A    between atoms: C_8  and  O_59
REMARK    6  A    between atoms: C_10  and  O_55
REMARK    7  A    between atoms: C_12  and  O_51
REMARK    8  A    between atoms: C_14  and  O_17
REMARK    9  A    between atoms: O_17  and  C_18
REMARK   10  A    between atoms: C_19  and  C_37
REMARK   11  A    between atoms: C_25  and  O_33
REMARK   12  A    between atoms: C_27  and  O_29
REMARK   13  A    between atoms: O_29  and  C_30
REMARK   14  A    between atoms: C_30  and  C_32
REMARK   15  A    between atoms: O_33  and  C_34
REMARK   16  A    between atoms: C_34  and  C_36
REMARK   17  A    between atoms: C_39  and  O_47
REMARK   18  A    between atoms: C_40  and  O_43
REMARK   19  A    between atoms: O_43  and  C_44
REMARK   20  A    between atoms: C_44  and  C_46
REMARK   21  A    between atoms: O_47  and  C_48
REMARK   22  A    between atoms: C_48  and  C_50
REMARK   23  A    between atoms: O_51  and  C_52
REMARK   24  A    between atoms: C_52  and  C_54
REMARK   25  A    between atoms: O_55  and  C_56
REMARK   26  A    between atoms: C_56  and  C_58
REMARK   27  A    between atoms: O_59  and  C_60
REMARK   28  A    between atoms: C_60  and  C_62
REMARK                            x       y       z     vdW  Elec       q    Type
REMARK                         _______ _______ _______ _____ _____    ______ ____
ROOT
ATOM      1  C   UNL     1       8.950  -1.759   0.193  0.00  0.00    +0.214 A 
ATOM      2  C   UNL     1       8.521  -0.317   0.168  0.00  0.00    +0.238 A 
ATOM      3  O   UNL     1       7.346   0.032   0.199  0.00  0.00    -0.283 OA
ATOM      4  C   UNL     1       9.561   0.715   0.060  0.00  0.00    +0.110 A 
ATOM      5  C   UNL     1       9.262   2.088   0.115  0.00  0.00    +0.150 A 
ATOM      6  C   UNL     1      10.272   3.035  -0.023  0.00  0.00    +0.093 A 
ATOM      7  C   UNL     1      11.581   2.602  -0.239  0.00  0.00    +0.139 A 
ATOM      8  C   UNL     1      11.894   1.242  -0.267  0.00  0.00    +0.093 A 
ATOM      9  C   UNL     1      10.872   0.297  -0.120  0.00  0.00    +0.147 A 
ATOM     10  O   UNL     1      11.234  -1.024  -0.156  0.00  0.00    -0.451 OA
ATOM     11  C   UNL     1      10.268  -2.011   0.011  0.00  0.00    +0.181 A 
ENDROOT
BRANCH  11  12
ATOM     12  C   UNL     1      10.860  -3.386  -0.099  0.00  0.00    +0.025 A 
ATOM     13  C   UNL     1      10.160  -4.443  -0.706  0.00  0.00    +0.015 A 
ATOM     14  C   UNL     1      10.755  -5.684  -0.930  0.00  0.00    +0.051 A 
ATOM     15  C   UNL     1      12.101  -5.881  -0.630  0.00  0.00    +0.174 A 
ATOM     16  C   UNL     1      12.815  -4.863   0.013  0.00  0.00    +0.174 A 
ATOM     17  C   UNL     1      12.188  -3.635   0.301  0.00  0.00    +0.061 A 
BRANCH  15  18
ATOM     18  O   UNL     1      12.751  -7.099  -0.936  0.00  0.00    -0.422 OA
BRANCH  18  19
ATOM     19  C   UNL     1      12.427  -7.770  -2.122  0.00  0.00    +0.309 C 
ATOM     20  C   UNL     1      13.201  -9.050  -2.231  0.00  0.00    +0.136 C 
ATOM     21  O   UNL     1      11.625  -7.414  -2.974  0.00  0.00    -0.251 OA
ENDBRANCH  18  19
ENDBRANCH  15  18
BRANCH  16  22
ATOM     22  O   UNL     1      14.154  -5.146   0.395  0.00  0.00    -0.422 OA
BRANCH  22  23
ATOM     23  C   UNL     1      15.138  -4.159   0.496  0.00  0.00    +0.309 C 
ATOM     24  C   UNL     1      16.434  -4.761   0.959  0.00  0.00    +0.136 C 
ATOM     25  O   UNL     1      15.007  -2.968   0.248  0.00  0.00    -0.251 OA
ENDBRANCH  22  23
ENDBRANCH  16  22
ENDBRANCH  11  12
BRANCH   7  26
ATOM     26  O   UNL     1      12.542   3.629  -0.332  0.00  0.00    -0.426 OA
BRANCH  26  27
ATOM     27  C   UNL     1      13.655   3.530  -1.163  0.00  0.00    +0.309 C 
ATOM     28  C   UNL     1      14.439   4.808  -1.095  0.00  0.00    +0.136 C 
ATOM     29  O   UNL     1      13.965   2.573  -1.859  0.00  0.00    -0.251 OA
ENDBRANCH  26  27
ENDBRANCH   7  26
BRANCH   5  30
ATOM     30  O   UNL     1       7.936   2.478   0.427  0.00  0.00    -0.425 OA
BRANCH  30  31
ATOM     31  C   UNL     1       7.290   3.573  -0.142  0.00  0.00    +0.309 C 
ATOM     32  C   UNL     1       5.856   3.602   0.311  0.00  0.00    +0.136 C 
ATOM     33  O   UNL     1       7.789   4.394  -0.900  0.00  0.00    -0.251 OA
ENDBRANCH  30  31
ENDBRANCH   5  30
BRANCH   1  34
ATOM     34  O   UNL     1       8.044  -2.806   0.368  0.00  0.00    -0.452 OA
BRANCH  34  37
ATOM     35  C   UNL     1       4.632  -3.255   1.523  0.00  0.00    +0.204 C 
ATOM     36  O   UNL     1       6.014  -3.582   1.259  0.00  0.00    -0.328 OA
ATOM     37  C   UNL     1       6.647  -2.529   0.479  0.00  0.00    +0.353 C 
ATOM     38  C   UNL     1       5.954  -2.470  -0.915  0.00  0.00    +0.289 C 
ATOM     39  C   UNL     1       4.481  -2.077  -0.635  0.00  0.00    +0.266 C 
ATOM     40  C   UNL     1       3.844  -3.222   0.194  0.00  0.00    +0.253 C 
BRANCH  38  41
ATOM     41  O   UNL     1       6.583  -1.564  -1.848  0.00  0.00    -0.451 OA
BRANCH  41  42
ATOM     42  C   UNL     1       6.452  -1.903  -3.162  0.00  0.00    +0.305 C 
ATOM     43  C   UNL     1       7.259  -0.989  -4.030  0.00  0.00    +0.136 C 
ATOM     44  O   UNL     1       5.809  -2.855  -3.599  0.00  0.00    -0.251 OA
ENDBRANCH  41  42
ENDBRANCH  38  41
BRANCH  39  45
ATOM     45  O   UNL     1       3.756  -1.849  -1.860  0.00  0.00    -0.454 OA
BRANCH  45  46
ATOM     46  C   UNL     1       2.665  -1.046  -1.742  0.00  0.00    +0.304 C 
ATOM     47  C   UNL     1       2.101  -0.708  -3.088  0.00  0.00    +0.136 C 
ATOM     48  O   UNL     1       2.229  -0.606  -0.687  0.00  0.00    -0.251 OA
ENDBRANCH  45  46
ENDBRANCH  39  45
BRANCH  35  49
ATOM     49  C   UNL     1       4.057  -4.144   2.628  0.00  0.00    +0.267 C 
BRANCH  49  50
ATOM     50  O   UNL     1       2.751  -3.680   3.035  0.00  0.00    -0.462 OA
BRANCH  50  52
ATOM     51  C   UNL     1       1.326  -2.260   4.264  0.00  0.00    +0.136 C 
ATOM     52  C   UNL     1       2.734  -2.670   3.950  0.00  0.00    +0.304 C 
ATOM     53  O   UNL     1       3.725  -2.128   4.421  0.00  0.00    -0.251 OA
ENDBRANCH  50  52
ENDBRANCH  49  50
ENDBRANCH  35  49
BRANCH  40  54
ATOM     54  O   UNL     1       4.061  -4.388  -0.652  0.00  0.00    -0.455 OA
BRANCH  54  55
ATOM     55  C   UNL     1       3.393  -5.545  -0.525  0.00  0.00    +0.304 C 
ATOM     56  C   UNL     1       3.675  -6.402  -1.727  0.00  0.00    +0.136 C 
ATOM     57  O   UNL     1       2.641  -5.837   0.393  0.00  0.00    -0.251 OA
ENDBRANCH  54  55
ENDBRANCH  40  54
ENDBRANCH  34  37
ENDBRANCH   1  34
TORSDOF 20
