REMARK  Name = 
REMARK  22 active torsions:
REMARK  status: ('A' for Active; 'I' for Inactive)
REMARK    1  A    between atoms: C_1  and  C_2
REMARK    2  A    between atoms: C_3  and  O_53
REMARK    3  A    between atoms: C_4  and  O_52
REMARK    4  A    between atoms: C_5  and  O_51
REMARK    5  A    between atoms: C_6  and  O_8
REMARK    6  A    between atoms: O_8  and  C_9
REMARK    7  A    between atoms: C_9  and  C_10
REMARK    8  A    between atoms: C_11  and  O_50
REMARK    9  A    between atoms: C_12  and  O_49
REMARK   10  A    between atoms: C_13  and  O_38
REMARK   11  A    between atoms: C_14  and  O_16
REMARK   12  A    between atoms: O_16  and  C_17
REMARK   13  A    between atoms: C_18  and  C_30
REMARK   14  A    between atoms: C_22  and  O_29
REMARK   15  A    between atoms: C_24  and  O_28
REMARK   16  A    between atoms: C_32  and  O_37
REMARK   17  A    between atoms: C_33  and  O_36
REMARK   18  A    between atoms: O_38  and  C_39
REMARK   19  A    between atoms: C_40  and  O_48
REMARK   20  A    between atoms: C_41  and  O_47
REMARK   21  A    between atoms: C_42  and  O_46
REMARK   22  A    between atoms: C_43  and  C_45
REMARK                            x       y       z     vdW  Elec       q    Type
REMARK                         _______ _______ _______ _____ _____    ______ ____
ROOT
ATOM      1  C   UNL     1       2.904   3.676  -4.430  0.00  0.00    +0.179 C 
ATOM      2  O   UNL     1       3.408   4.554  -3.401  0.00  0.00    -0.331 OA
ATOM      3  C   UNL     1       2.580   5.611  -2.883  0.00  0.00    +0.340 C 
ATOM      4  C   UNL     1       1.636   6.314  -3.944  0.00  0.00    +0.221 C 
ATOM      5  C   UNL     1       0.938   5.186  -4.727  0.00  0.00    +0.180 C 
ATOM      6  C   UNL     1       2.007   4.375  -5.449  0.00  0.00    +0.177 C 
ENDROOT
BRANCH   6   7
ATOM      7  O   UNL     1       1.428   3.489  -6.405  0.00  0.00    -0.386 OA
ATOM      8  H   UNL     1       0.566   3.195  -6.057  0.00  0.00    +0.210 HD
ENDBRANCH   6   7
BRANCH   5   9
ATOM      9  O   UNL     1      -0.050   5.627  -5.661  0.00  0.00    -0.386 OA
ATOM     10  H   UNL     1       0.291   5.472  -6.562  0.00  0.00    +0.210 HD
ENDBRANCH   5   9
BRANCH   4  11
ATOM     11  O   UNL     1       2.333   7.277  -4.796  0.00  0.00    -0.337 OA
BRANCH  11  12
ATOM     12  C   UNL     1       1.509   8.050  -5.703  0.00  0.00    +0.282 C 
ATOM     13  O   UNL     1       2.320   8.945  -6.507  0.00  0.00    -0.343 OA
ATOM     14  C   UNL     1       2.926  10.029  -5.785  0.00  0.00    +0.149 C 
ATOM     15  C   UNL     1       3.688  10.875  -6.809  0.00  0.00    +0.041 C 
ATOM     16  C   UNL     1       1.869  10.866  -5.029  0.00  0.00    +0.174 C 
ATOM     17  C   UNL     1       1.018   9.932  -4.160  0.00  0.00    +0.179 C 
ATOM     18  C   UNL     1       0.369   8.875  -5.057  0.00  0.00    +0.201 C 
BRANCH  18  19
ATOM     19  O   UNL     1      -0.599   8.116  -4.333  0.00  0.00    -0.384 OA
ATOM     20  H   UNL     1      -0.685   8.528  -3.452  0.00  0.00    +0.210 HD
ENDBRANCH  18  19
BRANCH  17  21
ATOM     21  O   UNL     1      -0.009  10.637  -3.450  0.00  0.00    -0.386 OA
ATOM     22  H   UNL     1      -0.541  11.102  -4.124  0.00  0.00    +0.210 HD
ENDBRANCH  17  21
BRANCH  16  23
ATOM     23  O   UNL     1       0.994  11.567  -5.935  0.00  0.00    -0.387 OA
ATOM     24  H   UNL     1       0.952  11.060  -6.768  0.00  0.00    +0.210 HD
ENDBRANCH  16  23
ENDBRANCH  11  12
ENDBRANCH   4  11
BRANCH   3  25
ATOM     25  O   UNL     1       3.382   6.652  -2.254  0.00  0.00    -0.453 OA
BRANCH  25  26
ATOM     26  C   UNL     1       4.023   6.477  -1.033  0.00  0.00    +0.214 A 
ATOM     27  C   UNL     1       3.937   5.236  -0.195  0.00  0.00    +0.238 A 
ATOM     28  O   UNL     1       3.034   4.406  -0.345  0.00  0.00    -0.283 OA
ATOM     29  C   UNL     1       4.962   5.054   0.872  0.00  0.00    +0.109 A 
ATOM     30  C   UNL     1       5.644   6.188   1.291  0.00  0.00    +0.147 A 
ATOM     31  C   UNL     1       6.622   6.147   2.289  0.00  0.00    +0.092 A 
ATOM     32  C   UNL     1       6.918   4.932   2.880  0.00  0.00    +0.124 A 
ATOM     33  C   UNL     1       6.251   3.777   2.492  0.00  0.00    +0.091 A 
ATOM     34  O   UNL     1       5.389   7.408   0.749  0.00  0.00    -0.451 OA
ATOM     35  C   UNL     1       5.270   3.831   1.489  0.00  0.00    +0.135 A 
ATOM     36  C   UNL     1       4.774   7.464  -0.489  0.00  0.00    +0.181 A 
BRANCH  36  37
ATOM     37  C   UNL     1       5.145   8.745  -1.110  0.00  0.00    +0.025 A 
ATOM     38  C   UNL     1       4.497   9.927  -0.721  0.00  0.00    +0.015 A 
ATOM     39  C   UNL     1       5.140  11.157  -0.879  0.00  0.00    +0.050 A 
ATOM     40  C   UNL     1       6.437  11.187  -1.365  0.00  0.00    +0.158 A 
ATOM     41  C   UNL     1       7.059  10.025  -1.815  0.00  0.00    +0.159 A 
ATOM     42  C   UNL     1       6.412   8.807  -1.722  0.00  0.00    +0.060 A 
BRANCH  41  43
ATOM     43  O   UNL     1       8.353  10.104  -2.248  0.00  0.00    -0.503 OA
ATOM     44  H   UNL     1       8.400   9.603  -3.081  0.00  0.00    +0.292 HD
ENDBRANCH  41  43
BRANCH  40  45
ATOM     45  O   UNL     1       7.118  12.366  -1.297  0.00  0.00    -0.503 OA
ATOM     46  H   UNL     1       8.037  12.108  -1.088  0.00  0.00    +0.292 HD
ENDBRANCH  40  45
ENDBRANCH  36  37
BRANCH  35  47
ATOM     47  O   UNL     1       4.656   2.676   1.102  0.00  0.00    -0.506 OA
ATOM     48  H   UNL     1       4.901   1.965   1.713  0.00  0.00    +0.292 HD
ENDBRANCH  35  47
BRANCH  32  49
ATOM     49  O   UNL     1       7.876   4.821   3.845  0.00  0.00    -0.507 OA
ATOM     50  H   UNL     1       8.269   5.702   4.011  0.00  0.00    +0.292 HD
ENDBRANCH  32  49
ENDBRANCH  25  26
ENDBRANCH   3  25
BRANCH   1  51
ATOM     51  C   UNL     1       2.492   2.209  -4.000  0.00  0.00    +0.197 C 
BRANCH  51  52
ATOM     52  O   UNL     1       1.127   1.919  -3.601  0.00  0.00    -0.346 OA
BRANCH  52  56
ATOM     53  C   UNL     1       1.753  -2.436  -4.347  0.00  0.00    +0.041 C 
ATOM     54  C   UNL     1       0.552  -1.573  -4.748  0.00  0.00    +0.149 C 
ATOM     55  O   UNL     1       0.865  -0.165  -4.720  0.00  0.00    -0.343 OA
ATOM     56  C   UNL     1       0.923   0.466  -3.431  0.00  0.00    +0.282 C 
ATOM     57  C   UNL     1      -0.403   0.187  -2.656  0.00  0.00    +0.201 C 
ATOM     58  C   UNL     1      -0.668  -1.331  -2.560  0.00  0.00    +0.179 C 
ATOM     59  C   UNL     1      -0.729  -1.933  -3.973  0.00  0.00    +0.174 C 
BRANCH  59  60
ATOM     60  O   UNL     1      -0.942  -3.351  -3.970  0.00  0.00    -0.387 OA
ATOM     61  H   UNL     1      -0.582  -3.726  -3.148  0.00  0.00    +0.210 HD
ENDBRANCH  59  60
BRANCH  58  62
ATOM     62  O   UNL     1      -1.900  -1.589  -1.870  0.00  0.00    -0.386 OA
ATOM     63  H   UNL     1      -2.573  -1.027  -2.305  0.00  0.00    +0.210 HD
ENDBRANCH  58  62
BRANCH  57  64
ATOM     64  O   UNL     1      -1.539   0.768  -3.332  0.00  0.00    -0.384 OA
ATOM     65  H   UNL     1      -1.178   1.463  -3.916  0.00  0.00    +0.210 HD
ENDBRANCH  57  64
ENDBRANCH  52  56
ENDBRANCH  51  52
ENDBRANCH   1  51
TORSDOF 20
