REMARK  Name = 
REMARK  19 active torsions:
REMARK  status: ('A' for Active; 'I' for Inactive)
REMARK    1  A    between atoms: C_1  and  C_2
REMARK    2  A    between atoms: C_3  and  O_46
REMARK    3  A    between atoms: C_4  and  O_45
REMARK    4  A    between atoms: C_5  and  O_44
REMARK    5  A    between atoms: C_6  and  O_8
REMARK    6  A    between atoms: O_8  and  C_9
REMARK    7  A    between atoms: C_11  and  O_43
REMARK    8  A    between atoms: C_16  and  C_35
REMARK    9  A    between atoms: C_17  and  O_20
REMARK   10  A    between atoms: O_20  and  C_21
REMARK   11  A    between atoms: C_22  and  O_34
REMARK   12  A    between atoms: C_23  and  O_33
REMARK   13  A    between atoms: C_24  and  O_32
REMARK   14  A    between atoms: C_25  and  C_27
REMARK   15  A    between atoms: C_27  and  O_28
REMARK   16  A    between atoms: O_28  and  C_29
REMARK   17  A    between atoms: C_29  and  C_31
REMARK   18  A    between atoms: C_37  and  O_42
REMARK   19  A    between atoms: C_38  and  O_41
REMARK                            x       y       z     vdW  Elec       q    Type
REMARK                         _______ _______ _______ _____ _____    ______ ____
ROOT
ATOM      1  C   UNL     1       2.698   2.814  -3.186  0.00  0.00    +0.131 A 
ATOM      2  C   UNL     1       1.455   3.331  -2.794  0.00  0.00    +0.093 A 
ATOM      3  C   UNL     1       1.267   4.721  -2.692  0.00  0.00    +0.147 A 
ATOM      4  O   UNL     1       0.034   5.183  -2.297  0.00  0.00    -0.451 OA
ATOM      5  C   UNL     1      -0.221   6.562  -2.295  0.00  0.00    +0.181 A 
ATOM      6  C   UNL     1       0.737   7.504  -2.490  0.00  0.00    +0.214 A 
ATOM      7  C   UNL     1       2.141   7.001  -2.688  0.00  0.00    +0.238 A 
ATOM      8  O   UNL     1       3.127   7.718  -2.575  0.00  0.00    -0.283 OA
ATOM      9  C   UNL     1       2.322   5.577  -2.971  0.00  0.00    +0.109 A 
ATOM     10  C   UNL     1       3.542   5.062  -3.430  0.00  0.00    +0.135 A 
ATOM     11  C   UNL     1       3.728   3.689  -3.530  0.00  0.00    +0.092 A 
ENDROOT
BRANCH   5  12
ATOM     12  C   UNL     1      -1.665   6.875  -2.025  0.00  0.00    +0.025 A 
ATOM     13  C   UNL     1      -2.675   5.963  -2.401  0.00  0.00    +0.015 A 
ATOM     14  C   UNL     1      -4.026   6.206  -2.122  0.00  0.00    +0.050 A 
ATOM     15  C   UNL     1      -4.394   7.369  -1.471  0.00  0.00    +0.158 A 
ATOM     16  C   UNL     1      -3.425   8.297  -1.092  0.00  0.00    +0.159 A 
ATOM     17  C   UNL     1      -2.080   8.043  -1.352  0.00  0.00    +0.060 A 
BRANCH  15  18
ATOM     18  O   UNL     1      -5.705   7.611  -1.183  0.00  0.00    -0.503 OA
ATOM     19  H   UNL     1      -5.703   8.467  -0.709  0.00  0.00    +0.292 HD
ENDBRANCH  15  18
BRANCH  16  20
ATOM     20  O   UNL     1      -3.846   9.431  -0.462  0.00  0.00    -0.503 OA
ATOM     21  H   UNL     1      -3.070   9.976  -0.249  0.00  0.00    +0.292 HD
ENDBRANCH  16  20
ENDBRANCH   5  12
BRANCH  10  22
ATOM     22  O   UNL     1       4.561   5.886  -3.812  0.00  0.00    -0.506 OA
ATOM     23  H   UNL     1       5.384   5.382  -3.914  0.00  0.00    +0.292 HD
ENDBRANCH  10  22
BRANCH   6  24
ATOM     24  O   UNL     1       0.429   8.870  -2.495  0.00  0.00    -0.453 OA
BRANCH  24  25
ATOM     25  C   UNL     1       1.512   9.803  -2.348  0.00  0.00    +0.340 C 
ATOM     26  O   UNL     1       2.134   9.705  -1.055  0.00  0.00    -0.330 OA
ATOM     27  C   UNL     1       1.295  10.109   0.037  0.00  0.00    +0.191 C 
ATOM     28  C   UNL     1       1.036  11.605  -0.122  0.00  0.00    +0.178 C 
ATOM     29  C   UNL     1       0.275  11.840  -1.433  0.00  0.00    +0.180 C 
ATOM     30  C   UNL     1       1.045  11.254  -2.627  0.00  0.00    +0.214 C 
BRANCH  28  31
ATOM     31  O   UNL     1       2.286  12.321  -0.181  0.00  0.00    -0.386 OA
ATOM     32  H   UNL     1       2.956  11.714  -0.558  0.00  0.00    +0.210 HD
ENDBRANCH  28  31
BRANCH  29  33
ATOM     33  O   UNL     1       0.082  13.249  -1.612  0.00  0.00    -0.386 OA
ATOM     34  H   UNL     1       0.954  13.665  -1.460  0.00  0.00    +0.210 HD
ENDBRANCH  29  33
BRANCH  30  35
ATOM     35  O   UNL     1       0.293  11.350  -3.844  0.00  0.00    -0.383 OA
ATOM     36  H   UNL     1      -0.605  11.015  -3.674  0.00  0.00    +0.210 HD
ENDBRANCH  30  35
BRANCH  27  37
ATOM     37  C   UNL     1       2.014   9.798   1.358  0.00  0.00    +0.266 C 
BRANCH  37  38
ATOM     38  O   UNL     1       2.142   8.377   1.570  0.00  0.00    -0.462 OA
BRANCH  38  39
ATOM     39  C   UNL     1       1.027   7.741   2.013  0.00  0.00    +0.304 C 
ATOM     40  C   UNL     1       1.302   6.286   2.252  0.00  0.00    +0.136 C 
ATOM     41  O   UNL     1      -0.059   8.275   2.193  0.00  0.00    -0.251 OA
ENDBRANCH  38  39
ENDBRANCH  37  38
ENDBRANCH  27  37
ENDBRANCH  24  25
ENDBRANCH   6  24
BRANCH   1  42
ATOM     42  O   UNL     1       3.071   1.502  -3.272  0.00  0.00    -0.461 OA
BRANCH  42  46
ATOM     43  C   UNL     1      -0.573  -0.169  -1.774  0.00  0.00    +0.041 C 
ATOM     44  C   UNL     1       0.798  -0.405  -1.133  0.00  0.00    +0.150 C 
ATOM     45  O   UNL     1       1.745   0.584  -1.553  0.00  0.00    -0.334 OA
ATOM     46  C   UNL     1       2.124   0.490  -2.930  0.00  0.00    +0.339 C 
ATOM     47  C   UNL     1       2.804  -0.880  -3.172  0.00  0.00    +0.214 C 
ATOM     48  C   UNL     1       1.826  -1.998  -2.805  0.00  0.00    +0.180 C 
ATOM     49  C   UNL     1       1.337  -1.828  -1.355  0.00  0.00    +0.174 C 
BRANCH  49  50
ATOM     50  O   UNL     1       0.330  -2.783  -1.015  0.00  0.00    -0.387 OA
ATOM     51  H   UNL     1       0.206  -3.376  -1.779  0.00  0.00    +0.210 HD
ENDBRANCH  49  50
BRANCH  48  52
ATOM     52  O   UNL     1       2.450  -3.280  -2.950  0.00  0.00    -0.386 OA
ATOM     53  H   UNL     1       3.352  -3.182  -2.577  0.00  0.00    +0.210 HD
ENDBRANCH  48  52
BRANCH  47  54
ATOM     54  O   UNL     1       3.985  -1.053  -2.353  0.00  0.00    -0.383 OA
ATOM     55  H   UNL     1       3.988  -0.325  -1.700  0.00  0.00    +0.210 HD
ENDBRANCH  47  54
ENDBRANCH  42  46
ENDBRANCH   1  42
TORSDOF 17
