REMARK  Name = 
REMARK  18 active torsions:
REMARK  status: ('A' for Active; 'I' for Inactive)
REMARK    1  A    between atoms: C_1  and  N_2
REMARK    2  A    between atoms: N_2  and  C_3
REMARK    3  A    between atoms: C_3  and  C_4
REMARK    4  A    between atoms: C_4  and  C_6
REMARK    5  A    between atoms: C_4  and  O_17
REMARK    6  A    between atoms: C_6  and  C_8
REMARK    7  A    between atoms: C_6  and  O_16
REMARK    8  A    between atoms: C_8  and  C_10
REMARK    9  A    between atoms: C_8  and  O_15
REMARK   10  A    between atoms: C_10  and  C_12
REMARK   11  A    between atoms: C_10  and  O_14
REMARK   12  A    between atoms: C_12  and  O_13
REMARK   13  A    between atoms: C_20  and  O_39
REMARK   14  A    between atoms: C_21  and  O_38
REMARK   15  A    between atoms: C_23  and  C_24
REMARK   16  A    between atoms: C_25  and  O_37
REMARK   17  A    between atoms: C_29  and  O_36
REMARK   18  A    between atoms: C_31  and  O_35
REMARK                            x       y       z     vdW  Elec       q    Type
REMARK                         _______ _______ _______ _____ _____    ______ ____
ROOT
ATOM      1  C   UNL     1       4.344   4.974  -0.786  0.00  0.00    +0.175 C 
ENDROOT
BRANCH   1   2
ATOM      2  O   UNL     1       4.502   3.566  -1.076  0.00  0.00    -0.387 OA
ATOM      3  H   UNL     1       5.313   3.503  -1.616  0.00  0.00    +0.210 HD
ENDBRANCH   1   2
BRANCH   1   4
ATOM      4  C   UNL     1       3.598   5.168   0.552  0.00  0.00    +0.159 C 
BRANCH   4   5
ATOM      5  O   UNL     1       2.271   4.641   0.412  0.00  0.00    -0.388 OA
ATOM      6  H   UNL     1       1.843   4.666   1.286  0.00  0.00    +0.210 HD
ENDBRANCH   4   5
BRANCH   4   7
ATOM      7  C   UNL     1       4.312   4.529   1.766  0.00  0.00    +0.114 C 
BRANCH   7   9
ATOM      8  C   UNL     1       5.731   6.433   2.371  0.00  0.00    +0.101 C 
ATOM      9  N   UNL     1       5.670   5.013   2.046  0.00  0.00    -0.316 NA
ATOM     10  H   UNL     1       6.041   4.486   2.840  0.00  0.00    +0.122 HD
ENDBRANCH   7   9
ENDBRANCH   4   7
ENDBRANCH   1   4
BRANCH   1  11
ATOM     11  C   UNL     1       3.587   5.600  -1.979  0.00  0.00    +0.176 C 
BRANCH  11  12
ATOM     12  O   UNL     1       4.375   5.397  -3.166  0.00  0.00    -0.387 OA
ATOM     13  H   UNL     1       4.247   4.464  -3.419  0.00  0.00    +0.210 HD
ENDBRANCH  11  12
BRANCH  11  14
ATOM     14  C   UNL     1       3.265   7.103  -1.809  0.00  0.00    +0.171 C 
BRANCH  14  15
ATOM     15  O   UNL     1       2.515   7.608  -2.933  0.00  0.00    -0.387 OA
ATOM     16  H   UNL     1       1.743   7.030  -3.054  0.00  0.00    +0.210 HD
ENDBRANCH  14  15
BRANCH  14  17
ATOM     17  C   UNL     1       4.506   7.981  -1.665  0.00  0.00    +0.189 C 
BRANCH  17  18
ATOM     18  O   UNL     1       4.091   9.326  -1.404  0.00  0.00    -0.392 OA
ATOM     19  H   UNL     1       3.439   9.520  -2.108  0.00  0.00    +0.210 HD
ENDBRANCH  17  18
ENDBRANCH  14  17
ENDBRANCH  11  14
ENDBRANCH   1  11
TORSDOF 11
REMARK  Name = 
REMARK  18 active torsions:
REMARK  status: ('A' for Active; 'I' for Inactive)
REMARK    1  A    between atoms: C_1  and  N_2
REMARK    2  A    between atoms: N_2  and  C_3
REMARK    3  A    between atoms: C_3  and  C_4
REMARK    4  A    between atoms: C_4  and  C_6
REMARK    5  A    between atoms: C_4  and  O_17
REMARK    6  A    between atoms: C_6  and  C_8
REMARK    7  A    between atoms: C_6  and  O_16
REMARK    8  A    between atoms: C_8  and  C_10
REMARK    9  A    between atoms: C_8  and  O_15
REMARK   10  A    between atoms: C_10  and  C_12
REMARK   11  A    between atoms: C_10  and  O_14
REMARK   12  A    between atoms: C_12  and  O_13
REMARK   13  A    between atoms: C_20  and  O_39
REMARK   14  A    between atoms: C_21  and  O_38
REMARK   15  A    between atoms: C_23  and  C_24
REMARK   16  A    between atoms: C_25  and  O_37
REMARK   17  A    between atoms: C_29  and  O_36
REMARK   18  A    between atoms: C_31  and  O_35
REMARK                            x       y       z     vdW  Elec       q    Type
REMARK                         _______ _______ _______ _____ _____    ______ ____
ROOT
ATOM      1  C   UNL     1      -1.511  -2.543  -0.188  0.00  0.00    +0.181 A 
ATOM      2  O   UNL     1      -0.738  -3.665   0.068  0.00  0.00    -0.451 OA
ATOM      3  C   UNL     1      -1.292  -4.904  -0.114  0.00  0.00    +0.147 A 
ATOM      4  C   UNL     1      -2.631  -5.087  -0.451  0.00  0.00    +0.109 A 
ATOM      5  C   UNL     1      -3.138  -6.383  -0.611  0.00  0.00    +0.135 A 
ATOM      6  C   UNL     1      -2.312  -7.492  -0.446  0.00  0.00    +0.091 A 
ATOM      7  C   UNL     1      -0.974  -7.292  -0.118  0.00  0.00    +0.124 A 
ATOM      8  C   UNL     1      -3.469  -3.900  -0.661  0.00  0.00    +0.238 A 
ATOM      9  O   UNL     1      -4.660  -4.038  -0.926  0.00  0.00    -0.283 OA
ATOM     10  C   UNL     1      -0.460  -6.010   0.057  0.00  0.00    +0.092 A 
ATOM     11  C   UNL     1      -2.804  -2.570  -0.563  0.00  0.00    +0.208 A 
ENDROOT
BRANCH   1  13
ATOM     12  C   UNL     1       0.017  -0.744  -1.009  0.00  0.00    +0.015 A 
ATOM     13  C   UNL     1      -0.754  -1.299   0.027  0.00  0.00    +0.025 A 
ATOM     14  C   UNL     1      -0.737  -0.703   1.297  0.00  0.00    +0.060 A 
ATOM     15  C   UNL     1       0.085   0.391   1.520  0.00  0.00    +0.159 A 
ATOM     16  C   UNL     1       0.880   0.917   0.504  0.00  0.00    +0.158 A 
ATOM     17  C   UNL     1       0.836   0.369  -0.773  0.00  0.00    +0.050 A 
BRANCH  15  18
ATOM     18  O   UNL     1       0.137   0.948   2.766  0.00  0.00    -0.503 OA
ATOM     19  H   UNL     1       0.817   1.647   2.687  0.00  0.00    +0.292 HD
ENDBRANCH  15  18
BRANCH  16  20
ATOM     20  O   UNL     1       1.702   1.958   0.835  0.00  0.00    -0.503 OA
ATOM     21  H   UNL     1       2.190   2.268   0.046  0.00  0.00    +0.292 HD
ENDBRANCH  16  20
ENDBRANCH   1  13
BRANCH   5  22
ATOM     22  O   UNL     1      -4.444  -6.638  -0.938  0.00  0.00    -0.506 OA
ATOM     23  H   UNL     1      -4.913  -5.775  -1.015  0.00  0.00    +0.292 HD
ENDBRANCH   5  22
BRANCH   7  24
ATOM     24  O   UNL     1      -0.124  -8.345   0.055  0.00  0.00    -0.507 OA
ATOM     25  H   UNL     1      -0.614  -9.172  -0.092  0.00  0.00    +0.292 HD
ENDBRANCH   7  24
BRANCH  11  26
ATOM     26  O   UNL     1      -3.561  -1.454  -0.868  0.00  0.00    -0.501 OA
ATOM     27  H   UNL     1      -2.976  -0.682  -0.932  0.00  0.00    +0.292 HD
ENDBRANCH  11  26
TORSDOF 6
