REMARK  Name = 
REMARK  15 active torsions:
REMARK  status: ('A' for Active; 'I' for Inactive)
REMARK    1  A    between atoms: C_1  and  C_2
REMARK    2  A    between atoms: C_4  and  O_52
REMARK    3  A    between atoms: C_6  and  O_51
REMARK    4  A    between atoms: C_8  and  O_50
REMARK    5  A    between atoms: C_10  and  O_13
REMARK    6  A    between atoms: O_13  and  C_14
REMARK    7  A    between atoms: C_16  and  O_49
REMARK    8  A    between atoms: C_21  and  C_41
REMARK    9  A    between atoms: C_22  and  O_25
REMARK   10  A    between atoms: O_25  and  C_26
REMARK   11  A    between atoms: C_28  and  O_40
REMARK   12  A    between atoms: C_30  and  O_39
REMARK   13  A    between atoms: C_32  and  O_38
REMARK   14  A    between atoms: C_34  and  C_37
REMARK   15  A    between atoms: C_43  and  O_48
REMARK                            x       y       z     vdW  Elec       q    Type
REMARK                         _______ _______ _______ _____ _____    ______ ____
ROOT
ATOM      1  C   UNL     1      -0.644   1.060  -4.047  0.00  0.00    +0.131 A 
ATOM      2  C   UNL     1      -1.721   1.797  -3.536  0.00  0.00    +0.093 A 
ATOM      3  C   UNL     1      -1.686   3.201  -3.516  0.00  0.00    +0.147 A 
ATOM      4  O   UNL     1      -2.787   3.840  -3.025  0.00  0.00    -0.451 OA
ATOM      5  C   UNL     1      -2.753   5.225  -2.832  0.00  0.00    +0.181 A 
ATOM      6  C   UNL     1      -1.738   6.028  -3.251  0.00  0.00    +0.214 A 
ATOM      7  C   UNL     1      -0.630   5.358  -4.003  0.00  0.00    +0.238 A 
ATOM      8  O   UNL     1       0.189   6.030  -4.622  0.00  0.00    -0.283 OA
ATOM      9  C   UNL     1      -0.585   3.885  -4.008  0.00  0.00    +0.109 A 
ATOM     10  C   UNL     1       0.495   3.153  -4.509  0.00  0.00    +0.135 A 
ATOM     11  C   UNL     1       0.474   1.753  -4.512  0.00  0.00    +0.092 A 
ENDROOT
BRANCH   5  12
ATOM     12  C   UNL     1      -3.957   5.632  -2.087  0.00  0.00    +0.024 A 
ATOM     13  C   UNL     1      -5.177   5.816  -2.753  0.00  0.00    +0.011 A 
ATOM     14  C   UNL     1      -6.358   6.068  -2.032  0.00  0.00    -0.004 A 
ATOM     15  C   UNL     1      -6.388   6.161  -0.634  0.00  0.00    -0.066 A 
ATOM     16  O   UNL     1      -7.448   6.405   0.038  0.00  0.00    -0.871 OA
ATOM     17  C   UNL     1      -5.130   5.971  -0.020  0.00  0.00    +0.110 A 
ATOM     18  C   UNL     1      -3.941   5.699  -0.697  0.00  0.00    +0.056 A 
BRANCH  17  19
ATOM     19  O   UNL     1      -5.094   6.092   1.351  0.00  0.00    -0.507 OA
ATOM     20  H   UNL     1      -6.037   6.351   1.496  0.00  0.00    +0.292 HD
ENDBRANCH  17  19
ENDBRANCH   5  12
BRANCH  10  21
ATOM     21  O   UNL     1       1.602   3.783  -5.002  0.00  0.00    -0.506 OA
ATOM     22  H   UNL     1       2.202   3.149  -5.423  0.00  0.00    +0.292 HD
ENDBRANCH  10  21
BRANCH   1  23
ATOM     23  O   UNL     1      -0.801  -0.304  -4.052  0.00  0.00    -0.461 OA
BRANCH  23  27
ATOM     24  C   UNL     1       0.223  -1.582  -1.489  0.00  0.00    +0.041 C 
ATOM     25  C   UNL     1       1.011  -2.251  -2.611  0.00  0.00    +0.150 C 
ATOM     26  O   UNL     1       1.315  -1.357  -3.697  0.00  0.00    -0.334 OA
ATOM     27  C   UNL     1       0.253  -1.098  -4.626  0.00  0.00    +0.339 C 
ATOM     28  C   UNL     1      -0.310  -2.410  -5.212  0.00  0.00    +0.214 C 
ATOM     29  C   UNL     1      -0.750  -3.367  -4.103  0.00  0.00    +0.180 C 
ATOM     30  C   UNL     1       0.400  -3.577  -3.108  0.00  0.00    +0.174 C 
BRANCH  28  31
ATOM     31  O   UNL     1      -1.380  -2.161  -6.129  0.00  0.00    -0.383 OA
ATOM     32  H   UNL     1      -2.182  -2.007  -5.595  0.00  0.00    +0.210 HD
ENDBRANCH  28  31
BRANCH  29  33
ATOM     33  O   UNL     1      -1.947  -2.904  -3.467  0.00  0.00    -0.386 OA
ATOM     34  H   UNL     1      -1.895  -1.938  -3.340  0.00  0.00    +0.210 HD
ENDBRANCH  29  33
BRANCH  30  35
ATOM     35  O   UNL     1       1.434  -4.338  -3.763  0.00  0.00    -0.387 OA
ATOM     36  H   UNL     1       2.070  -3.714  -4.160  0.00  0.00    +0.210 HD
ENDBRANCH  30  35
ENDBRANCH  23  27
ENDBRANCH   1  23
BRANCH   6  37
ATOM     37  O   UNL     1      -1.541   7.384  -3.133  0.00  0.00    -0.453 OA
BRANCH  37  38
ATOM     38  C   UNL     1      -2.603   8.310  -2.980  0.00  0.00    +0.339 C 
ATOM     39  O   UNL     1      -2.804   8.605  -1.599  0.00  0.00    -0.334 OA
ATOM     40  C   UNL     1      -3.964   9.425  -1.402  0.00  0.00    +0.150 C 
ATOM     41  C   UNL     1      -4.207   9.542   0.094  0.00  0.00    +0.041 C 
ATOM     42  C   UNL     1      -3.777  10.808  -2.065  0.00  0.00    +0.174 C 
ATOM     43  C   UNL     1      -3.386  10.619  -3.546  0.00  0.00    +0.180 C 
ATOM     44  C   UNL     1      -2.201   9.641  -3.671  0.00  0.00    +0.214 C 
BRANCH  42  45
ATOM     45  O   UNL     1      -4.969  11.596  -1.952  0.00  0.00    -0.387 OA
ATOM     46  H   UNL     1      -5.705  11.087  -2.330  0.00  0.00    +0.210 HD
ENDBRANCH  42  45
BRANCH  43  47
ATOM     47  O   UNL     1      -3.102  11.888  -4.154  0.00  0.00    -0.386 OA
ATOM     48  H   UNL     1      -2.684  11.721  -5.014  0.00  0.00    +0.210 HD
ENDBRANCH  43  47
BRANCH  44  49
ATOM     49  O   UNL     1      -1.030  10.224  -3.060  0.00  0.00    -0.383 OA
ATOM     50  H   UNL     1      -0.980   9.856  -2.155  0.00  0.00    +0.210 HD
ENDBRANCH  44  49
ENDBRANCH  37  38
ENDBRANCH   6  37
TORSDOF 13
