REMARK  Name = 
REMARK  23 active torsions:
REMARK  status: ('A' for Active; 'I' for Inactive)
REMARK    1  A    between atoms: C_1  and  C_2
REMARK    2  A    between atoms: C_4  and  O_69
REMARK    3  A    between atoms: C_6  and  O_68
REMARK    4  A    between atoms: C_8  and  O_67
REMARK    5  A    between atoms: C_10  and  O_13
REMARK    6  A    between atoms: O_13  and  C_14
REMARK    7  A    between atoms: C_16  and  O_66
REMARK    8  A    between atoms: C_21  and  C_58
REMARK    9  A    between atoms: C_22  and  O_25
REMARK   10  A    between atoms: O_25  and  C_26
REMARK   11  A    between atoms: C_28  and  O_41
REMARK   12  A    between atoms: C_30  and  O_40
REMARK   13  A    between atoms: C_32  and  O_39
REMARK   14  A    between atoms: C_34  and  C_37
REMARK   15  A    between atoms: C_37  and  O_38
REMARK   16  A    between atoms: O_41  and  C_42
REMARK   17  A    between atoms: C_44  and  O_57
REMARK   18  A    between atoms: C_46  and  O_56
REMARK   19  A    between atoms: C_48  and  O_55
REMARK   20  A    between atoms: C_50  and  C_53
REMARK   21  A    between atoms: C_53  and  O_54
REMARK   22  A    between atoms: C_60  and  O_65
REMARK   23  A    between atoms: C_61  and  O_64
REMARK                            x       y       z     vdW  Elec       q    Type
REMARK                         _______ _______ _______ _____ _____    ______ ____
ROOT
ATOM      1  C   UNL     1       0.502   2.000  -2.650  0.00  0.00    +0.131 A 
ATOM      2  C   UNL     1      -0.890   2.100  -2.708  0.00  0.00    +0.093 A 
ATOM      3  C   UNL     1      -1.529   3.357  -2.725  0.00  0.00    +0.147 A 
ATOM      4  O   UNL     1      -2.899   3.406  -2.770  0.00  0.00    -0.451 OA
ATOM      5  C   UNL     1      -3.561   4.632  -2.988  0.00  0.00    +0.181 A 
ATOM      6  C   UNL     1      -2.918   5.830  -2.987  0.00  0.00    +0.214 A 
ATOM      7  C   UNL     1      -1.496   5.784  -2.521  0.00  0.00    +0.238 A 
ATOM      8  O   UNL     1      -0.986   6.755  -1.971  0.00  0.00    -0.283 OA
ATOM      9  C   UNL     1      -0.774   4.513  -2.664  0.00  0.00    +0.109 A 
ATOM     10  C   UNL     1       0.613   4.435  -2.657  0.00  0.00    +0.135 A 
ATOM     11  C   UNL     1       1.253   3.191  -2.626  0.00  0.00    +0.092 A 
ENDROOT
BRANCH   5  12
ATOM     12  C   UNL     1      -5.038   4.412  -3.126  0.00  0.00    +0.025 A 
ATOM     13  C   UNL     1      -5.603   3.264  -2.510  0.00  0.00    +0.015 A 
ATOM     14  C   UNL     1      -6.965   2.959  -2.602  0.00  0.00    +0.050 A 
ATOM     15  C   UNL     1      -7.794   3.814  -3.298  0.00  0.00    +0.158 A 
ATOM     16  C   UNL     1      -7.274   4.957  -3.899  0.00  0.00    +0.159 A 
ATOM     17  C   UNL     1      -5.908   5.255  -3.835  0.00  0.00    +0.060 A 
BRANCH  16  18
ATOM     18  O   UNL     1      -8.163   5.774  -4.551  0.00  0.00    -0.503 OA
ATOM     19  H   UNL     1      -7.702   6.592  -4.812  0.00  0.00    +0.292 HD
ENDBRANCH  16  18
BRANCH  15  20
ATOM     20  O   UNL     1      -9.127   3.530  -3.377  0.00  0.00    -0.503 OA
ATOM     21  H   UNL     1      -9.511   4.276  -3.880  0.00  0.00    +0.292 HD
ENDBRANCH  15  20
ENDBRANCH   5  12
BRANCH  10  22
ATOM     22  O   UNL     1       1.372   5.567  -2.729  0.00  0.00    -0.506 OA
ATOM     23  H   UNL     1       2.305   5.371  -2.538  0.00  0.00    +0.292 HD
ENDBRANCH  10  22
BRANCH   6  24
ATOM     24  O   UNL     1      -3.517   7.079  -3.207  0.00  0.00    -0.453 OA
BRANCH  24  25
ATOM     25  C   UNL     1      -2.666   8.090  -3.835  0.00  0.00    +0.340 C 
ATOM     26  O   UNL     1      -2.375   9.218  -3.015  0.00  0.00    -0.331 OA
ATOM     27  C   UNL     1      -3.366  10.218  -2.816  0.00  0.00    +0.179 C 
ATOM     28  C   UNL     1      -4.080  10.686  -4.098  0.00  0.00    +0.177 C 
ATOM     29  C   UNL     1      -4.293   9.585  -5.151  0.00  0.00    +0.180 C 
ATOM     30  C   UNL     1      -3.221   8.475  -5.221  0.00  0.00    +0.221 C 
BRANCH  29  31
ATOM     31  O   UNL     1      -5.569   8.941  -4.921  0.00  0.00    -0.386 OA
ATOM     32  H   UNL     1      -5.723   8.911  -3.952  0.00  0.00    +0.210 HD
ENDBRANCH  29  31
BRANCH  28  33
ATOM     33  O   UNL     1      -3.371  11.765  -4.724  0.00  0.00    -0.386 OA
ATOM     34  H   UNL     1      -2.920  12.299  -4.048  0.00  0.00    +0.210 HD
ENDBRANCH  28  33
BRANCH  30  35
ATOM     35  O   UNL     1      -2.181   8.761  -6.200  0.00  0.00    -0.337 OA
BRANCH  35  36
ATOM     36  C   UNL     1      -1.345   7.634  -6.598  0.00  0.00    +0.282 C 
ATOM     37  O   UNL     1      -0.319   8.156  -7.454  0.00  0.00    -0.341 OA
ATOM     38  C   UNL     1      -0.020   7.587  -8.749  0.00  0.00    +0.178 C 
ATOM     39  C   UNL     1      -1.083   6.703  -9.428  0.00  0.00    +0.177 C 
ATOM     40  C   UNL     1      -2.414   6.786  -8.694  0.00  0.00    +0.179 C 
ATOM     41  C   UNL     1      -2.186   6.494  -7.216  0.00  0.00    +0.201 C 
BRANCH  41  42
ATOM     42  O   UNL     1      -1.578   5.210  -7.017  0.00  0.00    -0.384 OA
ATOM     43  H   UNL     1      -1.534   5.044  -6.058  0.00  0.00    +0.210 HD
ENDBRANCH  41  42
BRANCH  40  44
ATOM     44  O   UNL     1      -3.042   8.058  -8.901  0.00  0.00    -0.386 OA
ATOM     45  H   UNL     1      -2.575   8.746  -8.384  0.00  0.00    +0.210 HD
ENDBRANCH  40  44
BRANCH  39  46
ATOM     46  O   UNL     1      -0.591   5.354  -9.510  0.00  0.00    -0.386 OA
ATOM     47  H   UNL     1      -1.254   4.754  -9.115  0.00  0.00    +0.210 HD
ENDBRANCH  39  46
BRANCH  38  48
ATOM     48  C   UNL     1       0.256   8.808  -9.652  0.00  0.00    +0.190 C 
BRANCH  48  49
ATOM     49  O   UNL     1       1.391   9.536  -9.183  0.00  0.00    -0.392 OA
ATOM     50  H   UNL     1       1.425   9.397  -8.218  0.00  0.00    +0.210 HD
ENDBRANCH  48  49
ENDBRANCH  38  48
ENDBRANCH  35  36
ENDBRANCH  30  35
BRANCH  27  51
ATOM     51  C   UNL     1      -4.344   9.816  -1.708  0.00  0.00    +0.190 C 
BRANCH  51  52
ATOM     52  O   UNL     1      -5.231   8.799  -2.162  0.00  0.00    -0.392 OA
ATOM     53  H   UNL     1      -4.724   7.964  -2.070  0.00  0.00    +0.210 HD
ENDBRANCH  51  52
ENDBRANCH  27  51
ENDBRANCH  24  25
ENDBRANCH   6  24
BRANCH   1  54
ATOM     54  O   UNL     1       1.049   0.739  -2.629  0.00  0.00    -0.461 OA
BRANCH  54  58
ATOM     55  C   UNL     1       1.397  -0.277   0.260  0.00  0.00    +0.041 C 
ATOM     56  C   UNL     1       2.798  -0.299  -0.345  0.00  0.00    +0.150 C 
ATOM     57  O   UNL     1       3.023   0.786  -1.265  0.00  0.00    -0.334 OA
ATOM     58  C   UNL     1       2.492   0.628  -2.589  0.00  0.00    +0.339 C 
ATOM     59  C   UNL     1       2.967  -0.690  -3.235  0.00  0.00    +0.214 C 
ATOM     60  C   UNL     1       2.644  -1.892  -2.347  0.00  0.00    +0.180 C 
ATOM     61  C   UNL     1       3.208  -1.662  -0.937  0.00  0.00    +0.174 C 
BRANCH  61  62
ATOM     62  O   UNL     1       4.645  -1.720  -1.006  0.00  0.00    -0.387 OA
ATOM     63  H   UNL     1       4.989  -0.817  -1.133  0.00  0.00    +0.210 HD
ENDBRANCH  61  62
BRANCH  60  64
ATOM     64  O   UNL     1       1.236  -2.157  -2.337  0.00  0.00    -0.386 OA
ATOM     65  H   UNL     1       0.750  -1.313  -2.296  0.00  0.00    +0.210 HD
ENDBRANCH  60  64
BRANCH  59  66
ATOM     66  O   UNL     1       2.417  -0.851  -4.546  0.00  0.00    -0.383 OA
ATOM     67  H   UNL     1       1.515  -1.205  -4.437  0.00  0.00    +0.210 HD
ENDBRANCH  59  66
ENDBRANCH  54  58
ENDBRANCH   1  54
TORSDOF 22
