REMARK  Name = 
REMARK  13 active torsions:
REMARK  status: ('A' for Active; 'I' for Inactive)
REMARK    1  A    between atoms: C_1  and  C_2
REMARK    2  A    between atoms: C_4  and  O_37
REMARK    3  A    between atoms: C_6  and  O_36
REMARK    4  A    between atoms: C_8  and  O_35
REMARK    5  A    between atoms: C_10  and  O_13
REMARK    6  A    between atoms: O_13  and  C_14
REMARK    7  A    between atoms: C_15  and  C_27
REMARK    8  A    between atoms: C_19  and  O_26
REMARK    9  A    between atoms: C_21  and  O_25
REMARK   10  A    between atoms: C_29  and  O_34
REMARK   11  A    between atoms: C_30  and  O_33
REMARK   12  A    between atoms: O_37  and  C_38
REMARK   13  A    between atoms: C_38  and  C_40
REMARK                            x       y       z     vdW  Elec       q    Type
REMARK                         _______ _______ _______ _____ _____    ______ ____
ROOT
ATOM      1  C   UNL     1       2.774   2.884  -3.191  0.00  0.00    +0.214 A 
ATOM      2  C   UNL     1       1.362   3.324  -2.947  0.00  0.00    +0.238 A 
ATOM      3  O   UNL     1       0.438   2.514  -2.927  0.00  0.00    -0.283 OA
ATOM      4  C   UNL     1       1.118   4.758  -2.763  0.00  0.00    +0.109 A 
ATOM      5  C   UNL     1       2.170   5.632  -3.021  0.00  0.00    +0.147 A 
ATOM      6  C   UNL     1       1.963   7.013  -2.940  0.00  0.00    +0.092 A 
ATOM      7  C   UNL     1       0.705   7.500  -2.588  0.00  0.00    +0.124 A 
ATOM      8  C   UNL     1      -0.343   6.637  -2.300  0.00  0.00    +0.091 A 
ATOM      9  O   UNL     1       3.428   5.209  -3.368  0.00  0.00    -0.451 OA
ATOM     10  C   UNL     1      -0.135   5.263  -2.381  0.00  0.00    +0.135 A 
ATOM     11  C   UNL     1       3.707   3.841  -3.403  0.00  0.00    +0.181 A 
ENDROOT
BRANCH  11  12
ATOM     12  C   UNL     1       5.139   3.551  -3.747  0.00  0.00    +0.025 A 
ATOM     13  C   UNL     1       5.875   4.471  -4.526  0.00  0.00    +0.015 A 
ATOM     14  C   UNL     1       7.217   4.239  -4.866  0.00  0.00    +0.050 A 
ATOM     15  C   UNL     1       7.834   3.077  -4.442  0.00  0.00    +0.158 A 
ATOM     16  C   UNL     1       7.138   2.158  -3.668  0.00  0.00    +0.159 A 
ATOM     17  C   UNL     1       5.814   2.396  -3.306  0.00  0.00    +0.060 A 
BRANCH  15  18
ATOM     18  O   UNL     1       9.137   2.844  -4.778  0.00  0.00    -0.503 OA
ATOM     19  H   UNL     1       9.350   1.988  -4.353  0.00  0.00    +0.292 HD
ENDBRANCH  15  18
BRANCH  16  20
ATOM     20  O   UNL     1       7.799   1.020  -3.289  0.00  0.00    -0.503 OA
ATOM     21  H   UNL     1       7.164   0.440  -2.833  0.00  0.00    +0.292 HD
ENDBRANCH  16  20
ENDBRANCH  11  12
BRANCH   7  22
ATOM     22  O   UNL     1       0.455   8.829  -2.504  0.00  0.00    -0.507 OA
ATOM     23  H   UNL     1       1.243   9.335  -2.757  0.00  0.00    +0.292 HD
ENDBRANCH   7  22
BRANCH  10  24
ATOM     24  O   UNL     1      -1.166   4.423  -2.067  0.00  0.00    -0.506 OA
ATOM     25  H   UNL     1      -1.981   4.930  -1.922  0.00  0.00    +0.292 HD
ENDBRANCH  10  24
BRANCH   1  26
ATOM     26  O   UNL     1       3.080   1.533  -3.296  0.00  0.00    -0.453 OA
BRANCH  26  30
ATOM     27  C   UNL     1       1.838  -0.521   0.317  0.00  0.00    +0.042 C 
ATOM     28  C   UNL     1       2.592  -1.153  -0.857  0.00  0.00    +0.163 C 
ATOM     29  O   UNL     1       3.239  -0.156  -1.680  0.00  0.00    -0.333 OA
ATOM     30  C   UNL     1       2.328   0.619  -2.482  0.00  0.00    +0.340 C 
ATOM     31  C   UNL     1       1.514  -0.302  -3.423  0.00  0.00    +0.215 C 
ATOM     32  C   UNL     1       0.757  -1.354  -2.603  0.00  0.00    +0.192 C 
ATOM     33  C   UNL     1       1.734  -2.119  -1.706  0.00  0.00    +0.236 C 
BRANCH  31  34
ATOM     34  O   UNL     1       0.587   0.369  -4.284  0.00  0.00    -0.383 OA
ATOM     35  H   UNL     1       0.206   1.133  -3.799  0.00  0.00    +0.210 HD
ENDBRANCH  31  34
BRANCH  32  36
ATOM     36  O   UNL     1      -0.294  -0.799  -1.800  0.00  0.00    -0.385 OA
ATOM     37  H   UNL     1      -0.346   0.164  -1.939  0.00  0.00    +0.210 HD
ENDBRANCH  32  36
BRANCH  33  38
ATOM     38  O   UNL     1       2.596  -2.877  -2.590  0.00  0.00    -0.456 OA
BRANCH  38  39
ATOM     39  C   UNL     1       3.217  -3.953  -2.044  0.00  0.00    +0.304 C 
ATOM     40  C   UNL     1       4.083  -4.634  -3.061  0.00  0.00    +0.136 C 
ATOM     41  O   UNL     1       3.116  -4.310  -0.879  0.00  0.00    -0.251 OA
ENDBRANCH  38  39
ENDBRANCH  33  38
ENDBRANCH  26  30
ENDBRANCH   1  26
TORSDOF 11
