REMARK  Name = 
REMARK  16 active torsions:
REMARK  status: ('A' for Active; 'I' for Inactive)
REMARK    1  A    between atoms: C_3  and  O_39
REMARK    2  A    between atoms: C_4  and  O_38
REMARK    3  A    between atoms: C_6  and  C_7
REMARK    4  A    between atoms: C_8  and  O_20
REMARK    5  A    between atoms: C_12  and  O_19
REMARK    6  A    between atoms: C_14  and  O_18
REMARK    7  A    between atoms: O_20  and  C_21
REMARK    8  A    between atoms: C_22  and  O_37
REMARK    9  A    between atoms: C_23  and  O_36
REMARK   10  A    between atoms: C_24  and  O_35
REMARK   11  A    between atoms: C_25  and  C_27
REMARK   12  A    between atoms: C_27  and  O_28
REMARK   13  A    between atoms: O_28  and  C_29
REMARK   14  A    between atoms: C_29  and  C_31
REMARK   15  A    between atoms: C_31  and  C_32
REMARK   16  A    between atoms: C_32  and  O_34
REMARK                            x       y       z     vdW  Elec       q    Type
REMARK                         _______ _______ _______ _____ _____    ______ ____
ROOT
ATOM      1  C   UNL     1      -1.278  -2.834   0.023  0.00  0.00    +0.181 A 
ATOM      2  O   UNL     1      -0.692  -4.084   0.223  0.00  0.00    -0.451 OA
ATOM      3  C   UNL     1      -1.462  -5.197   0.341  0.00  0.00    +0.147 A 
ATOM      4  C   UNL     1      -2.840  -5.168   0.235  0.00  0.00    +0.109 A 
ATOM      5  C   UNL     1      -3.536  -6.385   0.331  0.00  0.00    +0.135 A 
ATOM      6  C   UNL     1      -2.859  -7.603   0.531  0.00  0.00    +0.091 A 
ATOM      7  C   UNL     1      -1.481  -7.600   0.642  0.00  0.00    +0.124 A 
ATOM      8  C   UNL     1      -3.485  -3.848   0.029  0.00  0.00    +0.238 A 
ATOM      9  O   UNL     1      -4.703  -3.778  -0.107  0.00  0.00    -0.283 OA
ATOM     10  C   UNL     1      -0.774  -6.401   0.554  0.00  0.00    +0.092 A 
ATOM     11  C   UNL     1      -2.614  -2.617  -0.063  0.00  0.00    +0.214 A 
ENDROOT
BRANCH   1  13
ATOM     12  C   UNL     1      -0.441  -0.448  -0.343  0.00  0.00    +0.015 A 
ATOM     13  C   UNL     1      -0.197  -1.815  -0.208  0.00  0.00    +0.025 A 
ATOM     14  C   UNL     1       1.118  -2.246  -0.475  0.00  0.00    +0.060 A 
ATOM     15  C   UNL     1       2.041  -1.383  -1.048  0.00  0.00    +0.159 A 
ATOM     16  C   UNL     1       1.684  -0.087  -1.389  0.00  0.00    +0.158 A 
ATOM     17  C   UNL     1       0.454   0.399  -1.000  0.00  0.00    +0.050 A 
BRANCH  16  18
ATOM     18  O   UNL     1       2.560   0.665  -2.114  0.00  0.00    -0.503 OA
ATOM     19  H   UNL     1       2.083   1.460  -2.428  0.00  0.00    +0.292 HD
ENDBRANCH  16  18
BRANCH  15  20
ATOM     20  O   UNL     1       3.301  -1.834  -1.316  0.00  0.00    -0.503 OA
ATOM     21  H   UNL     1       3.762  -1.057  -1.692  0.00  0.00    +0.292 HD
ENDBRANCH  15  20
ENDBRANCH   1  13
BRANCH   7  22
ATOM     22  O   UNL     1      -0.765  -8.742   0.835  0.00  0.00    -0.507 OA
ATOM     23  H   UNL     1      -1.367  -9.504   0.862  0.00  0.00    +0.292 HD
ENDBRANCH   7  22
BRANCH   5  24
ATOM     24  O   UNL     1      -4.897  -6.477   0.224  0.00  0.00    -0.506 OA
ATOM     25  H   UNL     1      -5.265  -5.579   0.087  0.00  0.00    +0.292 HD
ENDBRANCH   5  24
BRANCH  11  26
ATOM     26  O   UNL     1      -3.213  -1.365   0.035  0.00  0.00    -0.453 OA
BRANCH  26  27
ATOM     27  C   UNL     1      -3.577  -0.591  -1.139  0.00  0.00    +0.340 C 
ATOM     28  O   UNL     1      -3.238   0.812  -0.985  0.00  0.00    -0.330 OA
ATOM     29  C   UNL     1      -3.927   1.570   0.040  0.00  0.00    +0.191 C 
ATOM     30  C   UNL     1      -5.391   1.147   0.356  0.00  0.00    +0.178 C 
ATOM     31  C   UNL     1      -5.766  -0.284  -0.067  0.00  0.00    +0.180 C 
ATOM     32  C   UNL     1      -5.089  -0.589  -1.412  0.00  0.00    +0.214 C 
BRANCH  32  33
ATOM     33  O   UNL     1      -5.570  -1.754  -2.065  0.00  0.00    -0.383 OA
ATOM     34  H   UNL     1      -5.006  -2.511  -1.835  0.00  0.00    +0.210 HD
ENDBRANCH  32  33
BRANCH  31  35
ATOM     35  O   UNL     1      -7.196  -0.349  -0.185  0.00  0.00    -0.386 OA
ATOM     36  H   UNL     1      -7.573   0.084   0.603  0.00  0.00    +0.210 HD
ENDBRANCH  31  35
BRANCH  30  37
ATOM     37  O   UNL     1      -6.333   2.051  -0.269  0.00  0.00    -0.386 OA
ATOM     38  H   UNL     1      -6.859   1.532  -0.913  0.00  0.00    +0.210 HD
ENDBRANCH  30  37
BRANCH  29  39
ATOM     39  C   UNL     1      -3.933   3.054  -0.416  0.00  0.00    +0.266 C 
BRANCH  39  40
ATOM     40  O   UNL     1      -2.638   3.573  -0.760  0.00  0.00    -0.462 OA
BRANCH  40  41
ATOM     41  C   UNL     1      -1.865   4.004   0.266  0.00  0.00    +0.318 C 
ATOM     42  O   UNL     1      -2.169   3.920   1.447  0.00  0.00    -0.250 OA
BRANCH  41  43
ATOM     43  C   UNL     1      -0.661   4.734  -0.243  0.00  0.00    +0.240 C 
BRANCH  43  44
ATOM     44  C   UNL     1      -0.165   4.293  -1.589  0.00  0.00    +0.316 C 
ATOM     45  O   UNL     1       0.930   3.775  -1.771  0.00  0.00    -0.250 OA
BRANCH  44  46
ATOM     46  O   UNL     1      -1.008   4.531  -2.618  0.00  0.00    -0.480 OA
ATOM     47  H   UNL     1      -1.910   4.799  -2.344  0.00  0.00    +0.295 HD
ENDBRANCH  44  46
ENDBRANCH  43  44
ENDBRANCH  41  43
ENDBRANCH  40  41
ENDBRANCH  39  40
ENDBRANCH  29  39
ENDBRANCH  26  27
ENDBRANCH  11  26
TORSDOF 16
