REMARK  Name = 
REMARK  9 active torsions:
REMARK  status: ('A' for Active; 'I' for Inactive)
REMARK    1  A    between atoms: C_1  and  O_2
REMARK    2  A    between atoms: O_2  and  C_3
REMARK    3  A    between atoms: C_7  and  O_9
REMARK    4  A    between atoms: O_9  and  C_10
REMARK    5  A    between atoms: C_13  and  O_24
REMARK    6  A    between atoms: C_14  and  C_16
REMARK    7  A    between atoms: C_18  and  O_23
REMARK    8  A    between atoms: C_19  and  O_22
REMARK    9  A    between atoms: O_24  and  C_25
REMARK                            x       y       z     vdW  Elec       q    Type
REMARK                         _______ _______ _______ _____ _____    ______ ____
ROOT
ATOM      1  C   UNL     1       3.031   1.227  -0.412  0.00  0.00    +0.127 A 
ATOM      2  C   UNL     1       4.240   1.050  -1.094  0.00  0.00    +0.092 A 
ATOM      3  C   UNL     1       4.975   2.146  -1.559  0.00  0.00    +0.138 A 
ATOM      4  C   UNL     1       4.479   3.444  -1.336  0.00  0.00    +0.109 A 
ATOM      5  C   UNL     1       5.165   4.653  -1.839  0.00  0.00    +0.238 A 
ATOM      6  C   UNL     1       4.511   5.980  -1.590  0.00  0.00    +0.211 A 
ATOM      7  C   UNL     1       3.391   6.000  -0.835  0.00  0.00    +0.181 A 
ATOM      8  O   UNL     1       2.776   4.858  -0.333  0.00  0.00    -0.451 OA
ATOM      9  O   UNL     1       6.232   4.576  -2.438  0.00  0.00    -0.283 OA
ATOM     10  C   UNL     1       3.292   3.622  -0.631  0.00  0.00    +0.147 A 
ATOM     11  C   UNL     1       2.563   2.517  -0.172  0.00  0.00    +0.092 A 
ENDROOT
BRANCH   7  12
ATOM     12  C   UNL     1       2.680   7.257  -0.433  0.00  0.00    +0.025 A 
ATOM     13  C   UNL     1       1.291   7.242  -0.185  0.00  0.00    +0.015 A 
ATOM     14  C   UNL     1       0.615   8.383   0.271  0.00  0.00    +0.050 A 
ATOM     15  C   UNL     1       1.324   9.556   0.472  0.00  0.00    +0.158 A 
ATOM     16  C   UNL     1       2.686   9.606   0.217  0.00  0.00    +0.159 A 
ATOM     17  C   UNL     1       3.366   8.469  -0.211  0.00  0.00    +0.060 A 
BRANCH  15  18
ATOM     18  O   UNL     1       0.674  10.663   0.935  0.00  0.00    -0.503 OA
ATOM     19  H   UNL     1       1.377  11.339   1.026  0.00  0.00    +0.292 HD
ENDBRANCH  15  18
BRANCH  16  20
ATOM     20  O   UNL     1       3.328  10.799   0.413  0.00  0.00    -0.503 OA
ATOM     21  H   UNL     1       4.237  10.711   0.076  0.00  0.00    +0.292 HD
ENDBRANCH  16  20
ENDBRANCH   7  12
BRANCH   1  23
ATOM     22  C   UNL     1       1.198   0.157   0.674  0.00  0.00    +0.277 C 
ATOM     23  O   UNL     1       2.421   0.060  -0.045  0.00  0.00    -0.495 OA
ENDBRANCH   1  23
BRANCH   3  24
ATOM     24  O   UNL     1       6.164   2.028  -2.221  0.00  0.00    -0.494 OA
ATOM     25  C   UNL     1       6.718   0.741  -2.443  0.00  0.00    +0.277 C 
ENDBRANCH   3  24
BRANCH   6  26
ATOM     26  O   UNL     1       5.014   7.146  -2.158  0.00  0.00    -0.488 OA
ATOM     27  C   UNL     1       6.424   7.222  -2.346  0.00  0.00    +0.277 C 
ENDBRANCH   6  26
TORSDOF 6
