REMARK  Name = 
REMARK  8 active torsions:
REMARK  status: ('A' for Active; 'I' for Inactive)
REMARK    1  A    between atoms: C_3  and  O_26
REMARK    2  A    between atoms: C_4  and  O_25
REMARK    3  A    between atoms: C_6  and  C_7
REMARK    4  A    between atoms: C_8  and  O_24
REMARK    5  A    between atoms: C_14  and  S_20
REMARK    6  A    between atoms: C_15  and  O_19
REMARK    7  A    between atoms: C_17  and  O_18
REMARK    8  A    between atoms: S_20  and  O_23
REMARK                            x       y       z     vdW  Elec       q    Type
REMARK                         _______ _______ _______ _____ _____    ______ ____
ROOT
ATOM      1  C   UNL     1      -1.453  -2.521  -0.191  0.00  0.00    +0.181 A 
ATOM      2  O   UNL     1      -0.694  -3.668   0.025  0.00  0.00    -0.449 OA
ATOM      3  C   UNL     1      -1.263  -4.915  -0.119  0.00  0.00    +0.174 A 
ATOM      4  C   UNL     1      -0.456  -6.057   0.051  0.00  0.00    +0.201 A 
ATOM      5  C   UNL     1      -1.008  -7.338  -0.080  0.00  0.00    +0.151 A 
ATOM      6  C   UNL     1      -2.349  -7.489  -0.418  0.00  0.00    +0.093 A 
ATOM      7  C   UNL     1      -3.149  -6.367  -0.601  0.00  0.00    +0.135 A 
ATOM      8  C   UNL     1      -2.617  -5.077  -0.441  0.00  0.00    +0.111 A 
ATOM      9  C   UNL     1      -3.448  -3.867  -0.632  0.00  0.00    +0.238 A 
ATOM     10  O   UNL     1      -4.649  -3.910  -0.867  0.00  0.00    -0.283 OA
ATOM     11  C   UNL     1      -2.752  -2.554  -0.553  0.00  0.00    +0.208 A 
ENDROOT
BRANCH   1  13
ATOM     12  C   UNL     1      -1.303  -0.053   0.403  0.00  0.00    +0.015 A 
ATOM     13  C   UNL     1      -0.686  -1.247  -0.033  0.00  0.00    +0.025 A 
ATOM     14  C   UNL     1       0.684  -1.192  -0.333  0.00  0.00    +0.060 A 
ATOM     15  C   UNL     1       1.362   0.025  -0.298  0.00  0.00    +0.159 A 
ATOM     16  C   UNL     1       0.706   1.206   0.035  0.00  0.00    +0.158 A 
ATOM     17  C   UNL     1      -0.626   1.174   0.407  0.00  0.00    +0.050 A 
BRANCH  15  18
ATOM     18  O   UNL     1       2.689   0.059  -0.622  0.00  0.00    -0.503 OA
ATOM     19  H   UNL     1       2.944   0.999  -0.517  0.00  0.00    +0.292 HD
ENDBRANCH  15  18
BRANCH  16  20
ATOM     20  O   UNL     1       1.416   2.372  -0.019  0.00  0.00    -0.503 OA
ATOM     21  H   UNL     1       0.805   3.112   0.143  0.00  0.00    +0.292 HD
ENDBRANCH  16  20
ENDBRANCH   1  13
BRANCH   4  22
ATOM     22  S   UNL     1       1.268  -5.885   0.385  0.00  0.00    +0.117 S 
ATOM     23  O   UNL     1       1.768  -7.196   0.763  0.00  0.00    -0.142 OA
ATOM     24  O   UNL     1       1.494  -4.737   1.228  0.00  0.00    -0.142 OA
BRANCH  22  25
ATOM     25  O   UNL     1       1.906  -5.529  -1.052  0.00  0.00    -0.250 OA
ATOM     26  H   UNL     1       2.354  -4.659  -0.982  0.00  0.00    +0.245 HD
ENDBRANCH  22  25
ENDBRANCH   4  22
BRANCH   5  27
ATOM     27  O   UNL     1      -0.336  -8.518   0.083  0.00  0.00    -0.505 OA
ATOM     28  H   UNL     1       0.572  -8.374   0.430  0.00  0.00    +0.292 HD
ENDBRANCH   5  27
BRANCH   7  29
ATOM     29  O   UNL     1      -4.454  -6.555  -0.951  0.00  0.00    -0.506 OA
ATOM     30  H   UNL     1      -4.667  -7.500  -1.007  0.00  0.00    +0.292 HD
ENDBRANCH   7  29
BRANCH  11  31
ATOM     31  O   UNL     1      -3.510  -1.447  -0.893  0.00  0.00    -0.501 OA
ATOM     32  H   UNL     1      -2.934  -0.818  -1.358  0.00  0.00    +0.292 HD
ENDBRANCH  11  31
TORSDOF 8
