REMARK  Name = 
REMARK  15 active torsions:
REMARK  status: ('A' for Active; 'I' for Inactive)
REMARK    1  A    between atoms: C_4  and  O_11
REMARK    2  A    between atoms: C_6  and  C_7
REMARK    3  A    between atoms: C_6  and  O_10
REMARK    4  A    between atoms: C_7  and  C_8
REMARK    5  A    between atoms: C_8  and  O_9
REMARK    6  A    between atoms: C_14  and  O_31
REMARK    7  A    between atoms: C_15  and  C_17
REMARK    8  A    between atoms: C_19  and  C_27
REMARK    9  A    between atoms: C_19  and  O_30
REMARK   10  A    between atoms: C_20  and  C_23
REMARK   11  A    between atoms: C_20  and  O_26
REMARK   12  A    between atoms: C_23  and  C_24
REMARK   13  A    between atoms: C_24  and  O_25
REMARK   14  A    between atoms: C_27  and  C_28
REMARK   15  A    between atoms: C_28  and  O_29
REMARK                            x       y       z     vdW  Elec       q    Type
REMARK                         _______ _______ _______ _____ _____    ______ ____
ROOT
ATOM      1  C   UNL     1       0.976   1.323  -0.948  0.00  0.00    +0.114 C 
ATOM      2  C   UNL     1       2.317   0.583  -1.248  0.00  0.00    +0.097 C 
ATOM      3  C   UNL     1       2.402  -0.779  -0.609  0.00  0.00    +0.054 C 
ATOM      4  C   UNL     1       1.345  -1.416  -0.088  0.00  0.00    +0.130 C 
ATOM      5  C   UNL     1       0.029  -0.810  -0.074  0.00  0.00    +0.105 A 
ATOM      6  C   UNL     1      -1.152  -1.541   0.423  0.00  0.00    +0.238 A 
ATOM      7  C   UNL     1      -2.443  -0.824   0.497  0.00  0.00    +0.208 A 
ATOM      8  C   UNL     1      -2.516   0.434   0.018  0.00  0.00    +0.180 A 
ATOM      9  O   UNL     1      -1.397   1.093  -0.479  0.00  0.00    -0.455 OA
ATOM     10  O   UNL     1      -1.092  -2.714   0.798  0.00  0.00    -0.283 OA
ATOM     11  C   UNL     1      -0.163   0.458  -0.473  0.00  0.00    +0.123 A 
ENDROOT
BRANCH   8  12
ATOM     12  C   UNL     1      -3.744   1.263   0.019  0.00  0.00    +0.020 C 
ATOM     13  C   UNL     1      -3.726   2.722   0.113  0.00  0.00    +0.010 C 
ATOM     14  C   UNL     1      -4.829   3.479  -0.010  0.00  0.00    +0.011 C 
ATOM     15  C   UNL     1      -6.230   2.921  -0.210  0.00  0.00    +0.119 C 
ATOM     16  C   UNL     1      -6.289   1.365   0.152  0.00  0.00    +0.119 C 
ATOM     17  C   UNL     1      -4.958   0.678  -0.063  0.00  0.00    +0.022 C 
BRANCH  15  18
ATOM     18  O   UNL     1      -7.051   3.721   0.648  0.00  0.00    -0.381 OA
ATOM     19  H   UNL     1      -6.611   3.777   1.515  0.00  0.00    +0.211 HD
ENDBRANCH  15  18
BRANCH  16  20
ATOM     20  O   UNL     1      -7.204   0.630  -0.667  0.00  0.00    -0.381 OA
ATOM     21  H   UNL     1      -6.799   0.525  -1.549  0.00  0.00    +0.211 HD
ENDBRANCH  16  20
BRANCH  15  22
ATOM     22  C   UNL     1      -6.686   3.255  -1.652  0.00  0.00    +0.070 C 
BRANCH  22  23
ATOM     23  C   UNL     1      -8.161   2.991  -1.969  0.00  0.00    +0.159 C 
BRANCH  23  24
ATOM     24  O   UNL     1      -8.422   3.384  -3.315  0.00  0.00    -0.395 OA
ATOM     25  H   UNL     1      -8.397   4.356  -3.334  0.00  0.00    +0.209 HD
ENDBRANCH  23  24
ENDBRANCH  22  23
ENDBRANCH  15  22
BRANCH  16  26
ATOM     26  C   UNL     1      -6.680   1.040   1.619  0.00  0.00    +0.070 C 
BRANCH  26  27
ATOM     27  C   UNL     1      -8.089   1.429   2.059  0.00  0.00    +0.159 C 
BRANCH  27  28
ATOM     28  O   UNL     1      -8.313   0.934   3.382  0.00  0.00    -0.395 OA
ATOM     29  H   UNL     1      -8.296  -0.037   3.328  0.00  0.00    +0.209 HD
ENDBRANCH  27  28
ENDBRANCH  26  27
ENDBRANCH  16  26
ENDBRANCH   8  12
BRANCH   2  30
ATOM     30  O   UNL     1       3.386   1.359  -0.697  0.00  0.00    -0.384 OA
ATOM     31  H   UNL     1       3.352   1.260   0.274  0.00  0.00    +0.211 HD
ENDBRANCH   2  30
BRANCH   4  32
ATOM     32  O   UNL     1       1.504  -2.689   0.418  0.00  0.00    -0.506 OA
ATOM     33  H   UNL     1       0.624  -3.062   0.649  0.00  0.00    +0.292 HD
ENDBRANCH   4  32
BRANCH   7  34
ATOM     34  O   UNL     1      -3.492  -1.518   1.075  0.00  0.00    -0.501 OA
ATOM     35  H   UNL     1      -3.134  -2.407   1.289  0.00  0.00    +0.292 HD
ENDBRANCH   7  34
BRANCH   2  36
ATOM     36  C   UNL     1       2.592   0.410  -2.754  0.00  0.00    +0.067 C 
BRANCH  36  37
ATOM     37  C   UNL     1       2.643   1.711  -3.551  0.00  0.00    +0.159 C 
BRANCH  37  38
ATOM     38  O   UNL     1       2.915   1.422  -4.919  0.00  0.00    -0.395 OA
ATOM     39  H   UNL     1       3.819   1.062  -4.966  0.00  0.00    +0.209 HD
ENDBRANCH  37  38
ENDBRANCH  36  37
ENDBRANCH   2  36
TORSDOF 15
