REMARK  Name = 
REMARK  14 active torsions:
REMARK  status: ('A' for Active; 'I' for Inactive)
REMARK    1  A    between atoms: C_1  and  C_2
REMARK    2  A    between atoms: C_2  and  O_4
REMARK    3  A    between atoms: O_4  and  C_5
REMARK    4  A    between atoms: C_5  and  C_6
REMARK    5  A    between atoms: C_7  and  O_36
REMARK    6  A    between atoms: C_8  and  O_35
REMARK    7  A    between atoms: C_9  and  O_34
REMARK    8  A    between atoms: C_10  and  O_12
REMARK    9  A    between atoms: O_12  and  C_13
REMARK   10  A    between atoms: C_14  and  C_26
REMARK   11  A    between atoms: C_18  and  O_25
REMARK   12  A    between atoms: C_20  and  O_24
REMARK   13  A    between atoms: C_28  and  O_33
REMARK   14  A    between atoms: C_29  and  O_32
REMARK                            x       y       z     vdW  Elec       q    Type
REMARK                         _______ _______ _______ _____ _____    ______ ____
ROOT
ATOM      1  C   UNL     1       4.075   5.250  -1.826  0.00  0.00    +0.214 A 
ATOM      2  C   UNL     1       2.808   4.478  -2.078  0.00  0.00    +0.238 A 
ATOM      3  O   UNL     1       2.821   3.280  -2.343  0.00  0.00    -0.283 OA
ATOM      4  C   UNL     1       1.537   5.208  -2.063  0.00  0.00    +0.109 A 
ATOM      5  C   UNL     1       1.595   6.595  -2.045  0.00  0.00    +0.147 A 
ATOM      6  C   UNL     1       0.417   7.344  -2.124  0.00  0.00    +0.092 A 
ATOM      7  C   UNL     1      -0.806   6.687  -2.212  0.00  0.00    +0.124 A 
ATOM      8  C   UNL     1      -0.879   5.299  -2.206  0.00  0.00    +0.091 A 
ATOM      9  O   UNL     1       2.775   7.289  -1.970  0.00  0.00    -0.451 OA
ATOM     10  C   UNL     1       0.295   4.558  -2.124  0.00  0.00    +0.135 A 
ATOM     11  C   UNL     1       3.980   6.600  -1.814  0.00  0.00    +0.181 A 
ENDROOT
BRANCH  11  12
ATOM     12  C   UNL     1       5.153   7.530  -1.695  0.00  0.00    +0.025 A 
ATOM     13  C   UNL     1       5.098   8.798  -2.314  0.00  0.00    +0.015 A 
ATOM     14  C   UNL     1       6.165   9.705  -2.233  0.00  0.00    +0.050 A 
ATOM     15  C   UNL     1       7.305   9.353  -1.535  0.00  0.00    +0.158 A 
ATOM     16  C   UNL     1       7.388   8.115  -0.913  0.00  0.00    +0.159 A 
ATOM     17  C   UNL     1       6.323   7.212  -0.977  0.00  0.00    +0.060 A 
BRANCH  15  18
ATOM     18  O   UNL     1       8.350  10.227  -1.462  0.00  0.00    -0.503 OA
ATOM     19  H   UNL     1       9.024   9.763  -0.924  0.00  0.00    +0.292 HD
ENDBRANCH  15  18
BRANCH  16  20
ATOM     20  O   UNL     1       8.546   7.818  -0.248  0.00  0.00    -0.503 OA
ATOM     21  H   UNL     1       8.481   6.907   0.089  0.00  0.00    +0.292 HD
ENDBRANCH  16  20
ENDBRANCH  11  12
BRANCH   7  22
ATOM     22  O   UNL     1      -1.979   7.367  -2.302  0.00  0.00    -0.507 OA
ATOM     23  H   UNL     1      -1.804   8.316  -2.324  0.00  0.00    +0.292 HD
ENDBRANCH   7  22
BRANCH  10  24
ATOM     24  O   UNL     1       0.207   3.195  -2.084  0.00  0.00    -0.506 OA
ATOM     25  H   UNL     1      -0.704   2.913  -2.265  0.00  0.00    +0.292 HD
ENDBRANCH  10  24
BRANCH   1  26
ATOM     26  O   UNL     1       5.305   4.608  -1.679  0.00  0.00    -0.453 OA
BRANCH  26  29
ATOM     27  C   UNL     1       6.618   1.274  -0.918  0.00  0.00    +0.191 C 
ATOM     28  O   UNL     1       6.492   2.718  -0.953  0.00  0.00    -0.330 OA
ATOM     29  C   UNL     1       5.345   3.173  -1.702  0.00  0.00    +0.340 C 
ATOM     30  C   UNL     1       5.484   2.702  -3.172  0.00  0.00    +0.214 C 
ATOM     31  C   UNL     1       5.616   1.183  -3.224  0.00  0.00    +0.180 C 
ATOM     32  C   UNL     1       6.789   0.725  -2.343  0.00  0.00    +0.178 C 
BRANCH  30  33
ATOM     33  O   UNL     1       6.670   3.257  -3.796  0.00  0.00    -0.383 OA
ATOM     34  H   UNL     1       7.185   3.687  -3.085  0.00  0.00    +0.210 HD
ENDBRANCH  30  33
BRANCH  31  35
ATOM     35  O   UNL     1       5.851   0.736  -4.567  0.00  0.00    -0.386 OA
ATOM     36  H   UNL     1       6.407   1.431  -4.979  0.00  0.00    +0.210 HD
ENDBRANCH  31  35
BRANCH  32  37
ATOM     37  O   UNL     1       6.877  -0.701  -2.321  0.00  0.00    -0.386 OA
ATOM     38  H   UNL     1       6.379  -1.032  -3.093  0.00  0.00    +0.210 HD
ENDBRANCH  32  37
BRANCH  27  39
ATOM     39  C   UNL     1       5.457   0.548  -0.194  0.00  0.00    +0.266 C 
BRANCH  39  40
ATOM     40  O   UNL     1       5.325   0.971   1.169  0.00  0.00    -0.462 OA
BRANCH  40  42
ATOM     41  C   UNL     1       5.764   0.686   3.449  0.00  0.00    +0.136 C 
ATOM     42  C   UNL     1       6.109   0.291   2.049  0.00  0.00    +0.304 C 
ATOM     43  O   UNL     1       6.954  -0.542   1.754  0.00  0.00    -0.251 OA
ENDBRANCH  40  42
ENDBRANCH  39  40
ENDBRANCH  27  39
ENDBRANCH  26  29
ENDBRANCH   1  26
TORSDOF 13
