REMARK  Name = 
REMARK  11 active torsions:
REMARK  status: ('A' for Active; 'I' for Inactive)
REMARK    1  A    between atoms: C_1  and  C_2
REMARK    2  A    between atoms: C_4  and  O_37
REMARK    3  A    between atoms: C_6  and  O_36
REMARK    4  A    between atoms: C_8  and  O_35
REMARK    5  A    between atoms: C_10  and  O_13
REMARK    6  A    between atoms: O_13  and  C_14
REMARK    7  A    between atoms: C_15  and  C_27
REMARK    8  A    between atoms: C_19  and  O_26
REMARK    9  A    between atoms: C_21  and  O_25
REMARK   10  A    between atoms: C_29  and  O_34
REMARK   11  A    between atoms: C_30  and  O_33
REMARK                            x       y       z     vdW  Elec       q    Type
REMARK                         _______ _______ _______ _____ _____    ______ ____
ROOT
ATOM      1  C   UNL     1       0.619   1.864  -2.500  0.00  0.00    +0.214 A 
ATOM      2  C   UNL     1      -0.882   1.867  -2.486  0.00  0.00    +0.238 A 
ATOM      3  O   UNL     1      -1.494   0.809  -2.387  0.00  0.00    -0.283 OA
ATOM      4  C   UNL     1      -1.579   3.164  -2.617  0.00  0.00    +0.109 A 
ATOM      5  C   UNL     1      -0.792   4.313  -2.632  0.00  0.00    +0.147 A 
ATOM      6  C   UNL     1      -1.386   5.575  -2.769  0.00  0.00    +0.092 A 
ATOM      7  C   UNL     1      -2.768   5.675  -2.890  0.00  0.00    +0.124 A 
ATOM      8  C   UNL     1      -3.570   4.543  -2.870  0.00  0.00    +0.091 A 
ATOM      9  O   UNL     1       0.573   4.293  -2.506  0.00  0.00    -0.451 OA
ATOM     10  C   UNL     1      -2.978   3.286  -2.736  0.00  0.00    +0.135 A 
ATOM     11  C   UNL     1       1.262   3.069  -2.462  0.00  0.00    +0.181 A 
ENDROOT
BRANCH  11  12
ATOM     12  C   UNL     1       2.749   3.303  -2.397  0.00  0.00    +0.025 A 
ATOM     13  C   UNL     1       3.605   2.464  -1.664  0.00  0.00    +0.015 A 
ATOM     14  C   UNL     1       5.002   2.528  -1.797  0.00  0.00    +0.050 A 
ATOM     15  C   UNL     1       5.566   3.541  -2.545  0.00  0.00    +0.158 A 
ATOM     16  C   UNL     1       4.752   4.493  -3.144  0.00  0.00    +0.159 A 
ATOM     17  C   UNL     1       3.355   4.373  -3.093  0.00  0.00    +0.060 A 
BRANCH  15  18
ATOM     18  O   UNL     1       6.923   3.603  -2.676  0.00  0.00    -0.503 OA
ATOM     19  H   UNL     1       7.087   4.383  -3.242  0.00  0.00    +0.292 HD
ENDBRANCH  15  18
BRANCH  16  20
ATOM     20  O   UNL     1       5.373   5.531  -3.785  0.00  0.00    -0.503 OA
ATOM     21  H   UNL     1       4.709   6.215  -3.973  0.00  0.00    +0.292 HD
ENDBRANCH  16  20
ENDBRANCH  11  12
BRANCH   7  22
ATOM     22  O   UNL     1      -3.391   6.879  -3.029  0.00  0.00    -0.507 OA
ATOM     23  H   UNL     1      -2.732   7.592  -3.018  0.00  0.00    +0.292 HD
ENDBRANCH   7  22
BRANCH  10  24
ATOM     24  O   UNL     1      -3.798   2.189  -2.731  0.00  0.00    -0.506 OA
ATOM     25  H   UNL     1      -4.731   2.450  -2.786  0.00  0.00    +0.292 HD
ENDBRANCH  10  24
BRANCH   1  26
ATOM     26  O   UNL     1       1.142   0.577  -2.528  0.00  0.00    -0.453 OA
BRANCH  26  30
ATOM     27  C   UNL     1       4.398  -1.652  -1.039  0.00  0.00    +0.041 C 
ATOM     28  C   UNL     1       3.205  -1.470  -1.971  0.00  0.00    +0.150 C 
ATOM     29  O   UNL     1       3.351  -0.165  -2.519  0.00  0.00    -0.334 OA
ATOM     30  C   UNL     1       2.272   0.289  -3.345  0.00  0.00    +0.339 C 
ATOM     31  C   UNL     1       1.985  -0.707  -4.485  0.00  0.00    +0.214 C 
ATOM     32  C   UNL     1       1.990  -2.167  -4.020  0.00  0.00    +0.180 C 
ATOM     33  C   UNL     1       3.195  -2.476  -3.121  0.00  0.00    +0.174 C 
BRANCH  31  34
ATOM     34  O   UNL     1       3.021  -0.558  -5.484  0.00  0.00    -0.383 OA
ATOM     35  H   UNL     1       2.982  -1.384  -6.010  0.00  0.00    +0.210 HD
ENDBRANCH  31  34
BRANCH  32  36
ATOM     36  O   UNL     1       2.057  -3.018  -5.184  0.00  0.00    -0.386 OA
ATOM     37  H   UNL     1       2.210  -3.916  -4.827  0.00  0.00    +0.210 HD
ENDBRANCH  32  36
BRANCH  33  38
ATOM     38  O   UNL     1       3.090  -3.833  -2.679  0.00  0.00    -0.387 OA
ATOM     39  H   UNL     1       3.921  -4.053  -2.220  0.00  0.00    +0.210 HD
ENDBRANCH  33  38
ENDBRANCH  26  30
ENDBRANCH   1  26
TORSDOF 10
