REMARK  Name = 
REMARK  12 active torsions:
REMARK  status: ('A' for Active; 'I' for Inactive)
REMARK    1  A    between atoms: C_2  and  C_37
REMARK    2  A    between atoms: C_4  and  O_36
REMARK    3  A    between atoms: C_6  and  O_35
REMARK    4  A    between atoms: C_8  and  O_34
REMARK    5  A    between atoms: C_10  and  O_12
REMARK    6  A    between atoms: O_12  and  C_13
REMARK    7  A    between atoms: C_14  and  C_26
REMARK    8  A    between atoms: C_18  and  O_25
REMARK    9  A    between atoms: C_20  and  O_24
REMARK   10  A    between atoms: C_28  and  O_33
REMARK   11  A    between atoms: C_29  and  O_32
REMARK   12  A    between atoms: C_37  and  O_38
REMARK                            x       y       z     vdW  Elec       q    Type
REMARK                         _______ _______ _______ _____ _____    ______ ____
ROOT
ATOM      1  C   UNL     1       2.308   1.163   2.162  0.00  0.00    +0.211 A 
ATOM      2  C   UNL     1       2.091   2.576   1.738  0.00  0.00    +0.238 A 
ATOM      3  O   UNL     1       1.718   2.876   0.611  0.00  0.00    -0.283 OA
ATOM      4  C   UNL     1       2.428   3.617   2.718  0.00  0.00    +0.109 A 
ATOM      5  C   UNL     1       3.310   3.271   3.740  0.00  0.00    +0.147 A 
ATOM      6  C   UNL     1       3.776   4.257   4.615  0.00  0.00    +0.092 A 
ATOM      7  C   UNL     1       3.334   5.573   4.463  0.00  0.00    +0.124 A 
ATOM      8  C   UNL     1       2.417   5.916   3.475  0.00  0.00    +0.091 A 
ATOM      9  O   UNL     1       3.768   1.985   3.920  0.00  0.00    -0.451 OA
ATOM     10  C   UNL     1       1.953   4.933   2.610  0.00  0.00    +0.135 A 
ATOM     11  C   UNL     1       3.170   0.961   3.187  0.00  0.00    +0.181 A 
ENDROOT
BRANCH  11  12
ATOM     12  C   UNL     1       3.555  -0.413   3.627  0.00  0.00    +0.025 A 
ATOM     13  C   UNL     1       3.727  -0.736   4.986  0.00  0.00    +0.015 A 
ATOM     14  C   UNL     1       3.994  -2.055   5.387  0.00  0.00    +0.050 A 
ATOM     15  C   UNL     1       4.079  -3.056   4.432  0.00  0.00    +0.158 A 
ATOM     16  C   UNL     1       3.968  -2.751   3.084  0.00  0.00    +0.159 A 
ATOM     17  C   UNL     1       3.747  -1.440   2.680  0.00  0.00    +0.060 A 
BRANCH  15  18
ATOM     18  O   UNL     1       4.267  -4.351   4.823  0.00  0.00    -0.503 OA
ATOM     19  H   UNL     1       4.232  -4.864   3.990  0.00  0.00    +0.292 HD
ENDBRANCH  15  18
BRANCH  16  20
ATOM     20  O   UNL     1       4.062  -3.778   2.184  0.00  0.00    -0.503 OA
ATOM     21  H   UNL     1       3.813  -3.430   1.309  0.00  0.00    +0.292 HD
ENDBRANCH  16  20
ENDBRANCH  11  12
BRANCH   7  22
ATOM     22  O   UNL     1       3.768   6.578   5.270  0.00  0.00    -0.507 OA
ATOM     23  H   UNL     1       4.437   6.231   5.883  0.00  0.00    +0.292 HD
ENDBRANCH   7  22
BRANCH  10  24
ATOM     24  O   UNL     1       1.004   5.262   1.684  0.00  0.00    -0.506 OA
ATOM     25  H   UNL     1       0.820   6.214   1.713  0.00  0.00    +0.292 HD
ENDBRANCH  10  24
BRANCH   1  26
ATOM     26  O   UNL     1       1.632   0.101   1.579  0.00  0.00    -0.479 OA
BRANCH  26  28
ATOM     27  C   UNL     1      -0.157   0.752   0.035  0.00  0.00    +0.055 C 
ATOM     28  C   UNL     1       1.242   0.137   0.202  0.00  0.00    +0.205 C 
ATOM     29  C   UNL     1       1.248  -1.316  -0.358  0.00  0.00    +0.186 C 
ATOM     30  C   UNL     1       0.075  -2.204   0.132  0.00  0.00    +0.175 C 
ATOM     31  C   UNL     1      -1.283  -1.479   0.012  0.00  0.00    +0.151 C 
ATOM     32  C   UNL     1      -1.275  -0.089   0.665  0.00  0.00    +0.049 C 
BRANCH  29  33
ATOM     33  O   UNL     1       1.254  -1.273  -1.794  0.00  0.00    -0.385 OA
ATOM     34  H   UNL     1       0.320  -1.201  -2.085  0.00  0.00    +0.210 HD
ENDBRANCH  29  33
BRANCH  30  35
ATOM     35  O   UNL     1       0.314  -2.671   1.457  0.00  0.00    -0.387 OA
ATOM     36  H   UNL     1      -0.436  -3.242   1.704  0.00  0.00    +0.210 HD
ENDBRANCH  30  35
BRANCH  31  37
ATOM     37  O   UNL     1      -1.570  -1.321  -1.390  0.00  0.00    -0.389 OA
ATOM     38  H   UNL     1      -2.329  -0.712  -1.462  0.00  0.00    +0.210 HD
ENDBRANCH  31  37
BRANCH  32  39
ATOM     39  C   UNL     1      -1.217  -0.146   2.196  0.00  0.00    +0.162 C 
BRANCH  39  40
ATOM     40  O   UNL     1      -2.369  -0.836   2.671  0.00  0.00    -0.395 OA
ATOM     41  H   UNL     1      -2.154  -1.151   3.567  0.00  0.00    +0.209 HD
ENDBRANCH  39  40
ENDBRANCH  32  39
ENDBRANCH  26  28
ENDBRANCH   1  26
TORSDOF 12
