REMARK  Name = 
REMARK  10 active torsions:
REMARK  status: ('A' for Active; 'I' for Inactive)
REMARK    1  A    between atoms: C_1  and  C_2
REMARK    2  A    between atoms: C_2  and  C_4
REMARK    3  A    between atoms: C_2  and  N_28
REMARK    4  A    between atoms: C_4  and  O_6
REMARK    5  A    between atoms: O_6  and  C_7
REMARK    6  A    between atoms: C_8  and  O_27
REMARK    7  A    between atoms: C_11  and  C_13
REMARK    8  A    between atoms: C_14  and  O_26
REMARK    9  A    between atoms: C_18  and  O_25
REMARK   10  A    between atoms: C_20  and  O_24
REMARK                            x       y       z     vdW  Elec       q    Type
REMARK                         _______ _______ _______ _____ _____    ______ ____
ROOT
ATOM      1  C   UNL     1       2.518  -5.682   3.549  0.00  0.00    +0.181 A 
ATOM      2  O   UNL     1       3.422  -6.680   3.888  0.00  0.00    -0.451 OA
ATOM      3  C   UNL     1       3.091  -7.987   3.640  0.00  0.00    +0.147 A 
ATOM      4  C   UNL     1       1.913  -8.360   3.003  0.00  0.00    +0.109 A 
ATOM      5  C   UNL     1       1.653  -9.711   2.742  0.00  0.00    +0.135 A 
ATOM      6  C   UNL     1       2.560 -10.689   3.136  0.00  0.00    +0.091 A 
ATOM      7  C   UNL     1       3.727 -10.306   3.791  0.00  0.00    +0.124 A 
ATOM      8  C   UNL     1       0.959  -7.314   2.632  0.00  0.00    +0.238 A 
ATOM      9  O   UNL     1      -0.074  -7.614   2.039  0.00  0.00    -0.283 OA
ATOM     10  C   UNL     1       4.003  -8.963   4.042  0.00  0.00    +0.092 A 
ATOM     11  C   UNL     1       1.302  -5.915   3.004  0.00  0.00    +0.208 A 
ENDROOT
BRANCH   1  14
ATOM     12  C   UNL     1       3.276  -1.996   3.114  0.00  0.00    +0.173 A 
ATOM     13  C   UNL     1       2.834  -3.299   2.872  0.00  0.00    +0.061 A 
ATOM     14  C   UNL     1       3.050  -4.322   3.805  0.00  0.00    +0.025 A 
ATOM     15  C   UNL     1       3.839  -4.031   4.929  0.00  0.00    +0.015 A 
ATOM     16  C   UNL     1       4.346  -2.738   5.136  0.00  0.00    +0.050 A 
ATOM     17  C   UNL     1       4.055  -1.723   4.232  0.00  0.00    +0.159 A 
BRANCH  17  18
ATOM     18  O   UNL     1       4.569  -0.484   4.471  0.00  0.00    -0.503 OA
ATOM     19  H   UNL     1       4.308   0.090   3.730  0.00  0.00    +0.292 HD
ENDBRANCH  17  18
BRANCH  12  20
ATOM     20  O   UNL     1       3.029  -0.980   2.179  0.00  0.00    -0.421 OA
BRANCH  20  21
ATOM     21  C   UNL     1       1.726  -0.955   1.676  0.00  0.00    +0.329 C 
ATOM     22  O   UNL     1       0.736  -1.429   2.228  0.00  0.00    -0.249 OA
BRANCH  21  24
ATOM     23  C   UNL     1       2.725  -0.864  -0.640  0.00  0.00    +0.036 C 
ATOM     24  C   UNL     1       1.703  -0.248   0.310  0.00  0.00    +0.158 C 
BRANCH  24  25
ATOM     25  N   UNL     1       0.361  -0.368  -0.313  0.00  0.00    -0.319 NA
ATOM     26  H   UNL     1       0.137  -1.360  -0.428  0.00  0.00    +0.119 HD
ATOM     27  H   UNL     1      -0.334  -0.034   0.360  0.00  0.00    +0.119 HD
ENDBRANCH  24  25
ENDBRANCH  21  24
ENDBRANCH  20  21
ENDBRANCH  12  20
ENDBRANCH   1  14
BRANCH   5  28
ATOM     28  O   UNL     1       0.524 -10.142   2.098  0.00  0.00    -0.506 OA
ATOM     29  H   UNL     1      -0.019  -9.352   1.871  0.00  0.00    +0.292 HD
ENDBRANCH   5  28
BRANCH   7  30
ATOM     30  O   UNL     1       4.640 -11.229   4.206  0.00  0.00    -0.507 OA
ATOM     31  H   UNL     1       4.317 -12.116   3.971  0.00  0.00    +0.292 HD
ENDBRANCH   7  30
BRANCH  11  32
ATOM     32  O   UNL     1       0.344  -4.955   2.729  0.00  0.00    -0.501 OA
ATOM     33  H   UNL     1       0.512  -4.154   3.257  0.00  0.00    +0.292 HD
ENDBRANCH  11  32
TORSDOF 9
