REMARK  Name = 
REMARK  9 active torsions:
REMARK  status: ('A' for Active; 'I' for Inactive)
REMARK    1  A    between atoms: C_3  and  N_31
REMARK    2  A    between atoms: C_6  and  C_7
REMARK    3  A    between atoms: C_7  and  O_9
REMARK    4  A    between atoms: O_9  and  C_10
REMARK    5  A    between atoms: C_11  and  O_30
REMARK    6  A    between atoms: C_14  and  C_16
REMARK    7  A    between atoms: C_17  and  O_29
REMARK    8  A    between atoms: C_21  and  O_28
REMARK    9  A    between atoms: C_23  and  O_27
REMARK                            x       y       z     vdW  Elec       q    Type
REMARK                         _______ _______ _______ _____ _____    ______ ____
ROOT
ATOM      1  C   UNL     1      -5.086   0.754  -0.494  0.00  0.00    +0.174 A 
ATOM      2  C   UNL     1      -5.647   2.035  -0.667  0.00  0.00    +0.061 A 
ATOM      3  C   UNL     1      -7.026   2.211  -0.897  0.00  0.00    +0.025 A 
ATOM      4  C   UNL     1      -7.822   1.057  -0.963  0.00  0.00    +0.015 A 
ATOM      5  C   UNL     1      -7.268  -0.217  -0.772  0.00  0.00    +0.050 A 
ATOM      6  C   UNL     1      -5.904  -0.371  -0.532  0.00  0.00    +0.159 A 
ENDROOT
BRANCH   3   7
ATOM      7  C   UNL     1      -7.642   3.554  -1.121  0.00  0.00    +0.181 A 
ATOM      8  O   UNL     1      -8.651   3.532  -2.086  0.00  0.00    -0.451 OA
ATOM      9  C   UNL     1      -9.284   4.702  -2.428  0.00  0.00    +0.147 A 
ATOM     10  C   UNL     1      -8.964   5.927  -1.854  0.00  0.00    +0.109 A 
ATOM     11  C   UNL     1      -9.638   7.091  -2.252  0.00  0.00    +0.135 A 
ATOM     12  C   UNL     1     -10.628   7.034  -3.228  0.00  0.00    +0.091 A 
ATOM     13  C   UNL     1     -10.945   5.804  -3.795  0.00  0.00    +0.124 A 
ATOM     14  C   UNL     1      -7.924   5.963  -0.825  0.00  0.00    +0.238 A 
ATOM     15  O   UNL     1      -7.639   7.029  -0.285  0.00  0.00    -0.283 OA
ATOM     16  C   UNL     1     -10.284   4.638  -3.402  0.00  0.00    +0.092 A 
ATOM     17  C   UNL     1      -7.270   4.675  -0.464  0.00  0.00    +0.208 A 
BRANCH  11  18
ATOM     18  O   UNL     1      -9.374   8.325  -1.722  0.00  0.00    -0.506 OA
ATOM     19  H   UNL     1      -8.666   8.221  -1.044  0.00  0.00    +0.292 HD
ENDBRANCH  11  18
BRANCH  13  20
ATOM     20  O   UNL     1     -11.909   5.703  -4.753  0.00  0.00    -0.507 OA
ATOM     21  H   UNL     1     -12.267   6.588  -4.938  0.00  0.00    +0.292 HD
ENDBRANCH  13  20
BRANCH  17  22
ATOM     22  O   UNL     1      -6.331   4.728   0.551  0.00  0.00    -0.501 OA
ATOM     23  H   UNL     1      -6.366   3.890   1.041  0.00  0.00    +0.292 HD
ENDBRANCH  17  22
ENDBRANCH   3   7
BRANCH   6  24
ATOM     24  O   UNL     1      -5.481  -1.650  -0.326  0.00  0.00    -0.503 OA
ATOM     25  H   UNL     1      -4.553  -1.723  -0.633  0.00  0.00    +0.292 HD
ENDBRANCH   6  24
BRANCH   1  26
ATOM     26  O   UNL     1      -3.695   0.767  -0.206  0.00  0.00    -0.419 OA
BRANCH  26  27
ATOM     27  C   UNL     1      -2.785  -0.226  -0.561  0.00  0.00    +0.345 C 
ATOM     28  O   UNL     1      -3.061  -1.268  -1.131  0.00  0.00    -0.245 OA
BRANCH  27  30
ATOM     29  C   UNL     1      -0.339  -0.695  -0.465  0.00  0.00    +0.017 A 
ATOM     30  C   UNL     1      -1.409   0.145  -0.119  0.00  0.00    +0.060 A 
ATOM     31  C   UNL     1      -1.147   1.298   0.628  0.00  0.00    +0.017 A 
ATOM     32  C   UNL     1       0.155   1.582   1.055  0.00  0.00    +0.023 A 
ATOM     33  C   UNL     1       1.208   0.706   0.786  0.00  0.00    +0.025 A 
ATOM     34  C   UNL     1       0.962  -0.399  -0.033  0.00  0.00    +0.023 A 
BRANCH  33  35
ATOM     35  N   UNL     1       2.516   1.054   1.136  0.00  0.00    -0.358 N 
ATOM     36  H   UNL     1       2.579   1.664   1.947  0.00  0.00    +0.142 HD
ATOM     37  H   UNL     1       3.150   0.263   1.209  0.00  0.00    +0.142 HD
ENDBRANCH  33  35
ENDBRANCH  27  30
ENDBRANCH  26  27
ENDBRANCH   1  26
TORSDOF 9
