REMARK  Name = 
REMARK  11 active torsions:
REMARK  status: ('A' for Active; 'I' for Inactive)
REMARK    1  A    between atoms: C_3  and  O_28
REMARK    2  A    between atoms: C_4  and  O_21
REMARK    3  A    between atoms: C_6  and  C_7
REMARK    4  A    between atoms: C_8  and  O_20
REMARK    5  A    between atoms: C_12  and  O_19
REMARK    6  A    between atoms: C_14  and  O_18
REMARK    7  A    between atoms: O_21  and  C_22
REMARK    8  A    between atoms: C_22  and  C_24
REMARK    9  A    between atoms: C_24  and  C_25
REMARK   10  A    between atoms: C_25  and  C_26
REMARK   11  A    between atoms: C_26  and  N_27
REMARK                            x       y       z     vdW  Elec       q    Type
REMARK                         _______ _______ _______ _____ _____    ______ ____
ROOT
ATOM      1  C   UNL     1      -1.378   0.014   0.180  0.00  0.00    +0.015 A 
ATOM      2  C   UNL     1      -0.769  -1.242   0.009  0.00  0.00    +0.025 A 
ATOM      3  C   UNL     1       0.634  -1.282  -0.035  0.00  0.00    +0.061 A 
ATOM      4  C   UNL     1       1.390  -0.105  -0.043  0.00  0.00    +0.173 A 
ATOM      5  C   UNL     1       0.756   1.136   0.038  0.00  0.00    +0.159 A 
ATOM      6  C   UNL     1      -0.627   1.198   0.172  0.00  0.00    +0.050 A 
ENDROOT
BRANCH   2   7
ATOM      7  C   UNL     1      -1.545  -2.511  -0.129  0.00  0.00    +0.181 A 
ATOM      8  O   UNL     1      -0.857  -3.624   0.354  0.00  0.00    -0.451 OA
ATOM      9  C   UNL     1      -1.385  -4.877   0.165  0.00  0.00    +0.147 A 
ATOM     10  C   UNL     1      -2.651  -5.085  -0.368  0.00  0.00    +0.109 A 
ATOM     11  C   UNL     1      -3.149  -6.386  -0.514  0.00  0.00    +0.135 A 
ATOM     12  C   UNL     1      -2.380  -7.482  -0.133  0.00  0.00    +0.091 A 
ATOM     13  C   UNL     1      -1.108  -7.264   0.387  0.00  0.00    +0.124 A 
ATOM     14  C   UNL     1      -3.428  -3.921  -0.791  0.00  0.00    +0.238 A 
ATOM     15  O   UNL     1      -4.565  -4.070  -1.233  0.00  0.00    -0.283 OA
ATOM     16  C   UNL     1      -0.604  -5.973   0.538  0.00  0.00    +0.092 A 
ATOM     17  C   UNL     1      -2.759  -2.591  -0.719  0.00  0.00    +0.208 A 
BRANCH  11  18
ATOM     18  O   UNL     1      -4.387  -6.657  -1.035  0.00  0.00    -0.506 OA
ATOM     19  H   UNL     1      -4.817  -5.799  -1.261  0.00  0.00    +0.292 HD
ENDBRANCH  11  18
BRANCH  13  20
ATOM     20  O   UNL     1      -0.316  -8.308   0.768  0.00  0.00    -0.507 OA
ATOM     21  H   UNL     1      -0.794  -9.139   0.607  0.00  0.00    +0.292 HD
ENDBRANCH  13  20
BRANCH  17  22
ATOM     22  O   UNL     1      -3.431  -1.540  -1.313  0.00  0.00    -0.501 OA
ATOM     23  H   UNL     1      -2.772  -0.924  -1.675  0.00  0.00    +0.292 HD
ENDBRANCH  17  22
ENDBRANCH   2   7
BRANCH   5  24
ATOM     24  O   UNL     1       1.501   2.280  -0.021  0.00  0.00    -0.503 OA
ATOM     25  H   UNL     1       0.903   3.046  -0.018  0.00  0.00    +0.292 HD
ENDBRANCH   5  24
BRANCH   4  26
ATOM     26  O   UNL     1       2.804  -0.105  -0.096  0.00  0.00    -0.422 OA
BRANCH  26  27
ATOM     27  C   UNL     1       3.506  -1.100  -0.768  0.00  0.00    +0.312 C 
ATOM     28  O   UNL     1       3.033  -2.063  -1.352  0.00  0.00    -0.250 OA
BRANCH  27  29
ATOM     29  C   UNL     1       4.981  -0.793  -0.747  0.00  0.00    +0.122 C 
BRANCH  29  30
ATOM     30  C   UNL     1       5.497  -0.694  -2.182  0.00  0.00    +0.026 C 
BRANCH  30  31
ATOM     31  C   UNL     1       4.834   0.417  -3.002  0.00  0.00    +0.078 C 
BRANCH  31  32
ATOM     32  N   UNL     1       5.098   1.735  -2.441  0.00  0.00    -0.330 NA
ATOM     33  H   UNL     1       4.634   2.440  -3.015  0.00  0.00    +0.118 HD
ATOM     34  H   UNL     1       4.673   1.823  -1.518  0.00  0.00    +0.118 HD
ENDBRANCH  31  32
ENDBRANCH  30  31
ENDBRANCH  29  30
ENDBRANCH  27  29
ENDBRANCH  26  27
ENDBRANCH   4  26
TORSDOF 11
