REMARK  Name = 
REMARK  13 active torsions:
REMARK  status: ('A' for Active; 'I' for Inactive)
REMARK    1  A    between atoms: C_3  and  O_30
REMARK    2  A    between atoms: C_4  and  O_21
REMARK    3  A    between atoms: C_6  and  C_7
REMARK    4  A    between atoms: C_8  and  O_20
REMARK    5  A    between atoms: C_12  and  O_19
REMARK    6  A    between atoms: C_14  and  O_18
REMARK    7  A    between atoms: O_21  and  C_22
REMARK    8  A    between atoms: C_22  and  C_24
REMARK    9  A    between atoms: C_24  and  C_25
REMARK   10  A    between atoms: C_25  and  C_26
REMARK   11  A    between atoms: C_26  and  C_27
REMARK   12  A    between atoms: C_27  and  C_28
REMARK   13  A    between atoms: C_28  and  N_29
REMARK                            x       y       z     vdW  Elec       q    Type
REMARK                         _______ _______ _______ _____ _____    ______ ____
ROOT
ATOM      1  C   UNL     1      -1.377   0.005   0.190  0.00  0.00    +0.015 A 
ATOM      2  C   UNL     1      -0.758  -1.243  -0.016  0.00  0.00    +0.025 A 
ATOM      3  C   UNL     1       0.646  -1.271  -0.097  0.00  0.00    +0.061 A 
ATOM      4  C   UNL     1       1.390  -0.087  -0.034  0.00  0.00    +0.173 A 
ATOM      5  C   UNL     1       0.745   1.146   0.062  0.00  0.00    +0.159 A 
ATOM      6  C   UNL     1      -0.637   1.196   0.196  0.00  0.00    +0.050 A 
ENDROOT
BRANCH   2   7
ATOM      7  C   UNL     1      -1.533  -2.511  -0.152  0.00  0.00    +0.181 A 
ATOM      8  O   UNL     1      -0.850  -3.622   0.345  0.00  0.00    -0.451 OA
ATOM      9  C   UNL     1      -1.385  -4.873   0.169  0.00  0.00    +0.147 A 
ATOM     10  C   UNL     1      -2.654  -5.080  -0.360  0.00  0.00    +0.109 A 
ATOM     11  C   UNL     1      -3.154  -6.381  -0.507  0.00  0.00    +0.135 A 
ATOM     12  C   UNL     1      -2.386  -7.475  -0.130  0.00  0.00    +0.091 A 
ATOM     13  C   UNL     1      -1.114  -7.260   0.390  0.00  0.00    +0.124 A 
ATOM     14  C   UNL     1      -3.429  -3.915  -0.785  0.00  0.00    +0.238 A 
ATOM     15  O   UNL     1      -4.571  -4.064  -1.211  0.00  0.00    -0.283 OA
ATOM     16  C   UNL     1      -0.606  -5.970   0.543  0.00  0.00    +0.092 A 
ATOM     17  C   UNL     1      -2.753  -2.592  -0.732  0.00  0.00    +0.208 A 
BRANCH  11  18
ATOM     18  O   UNL     1      -4.393  -6.650  -1.026  0.00  0.00    -0.506 OA
ATOM     19  H   UNL     1      -4.826  -5.792  -1.242  0.00  0.00    +0.292 HD
ENDBRANCH  11  18
BRANCH  13  20
ATOM     20  O   UNL     1      -0.322  -8.309   0.763  0.00  0.00    -0.507 OA
ATOM     21  H   UNL     1      -0.807  -9.139   0.604  0.00  0.00    +0.292 HD
ENDBRANCH  13  20
BRANCH  17  22
ATOM     22  O   UNL     1      -3.426  -1.543  -1.332  0.00  0.00    -0.501 OA
ATOM     23  H   UNL     1      -2.769  -0.909  -1.661  0.00  0.00    +0.292 HD
ENDBRANCH  17  22
ENDBRANCH   2   7
BRANCH   5  24
ATOM     24  O   UNL     1       1.481   2.296   0.018  0.00  0.00    -0.503 OA
ATOM     25  H   UNL     1       0.878   3.057  -0.031  0.00  0.00    +0.292 HD
ENDBRANCH   5  24
BRANCH   4  26
ATOM     26  O   UNL     1       2.793  -0.078  -0.181  0.00  0.00    -0.422 OA
BRANCH  26  27
ATOM     27  C   UNL     1       3.566  -1.008   0.509  0.00  0.00    +0.312 C 
ATOM     28  O   UNL     1       3.156  -1.878   1.268  0.00  0.00    -0.250 OA
BRANCH  27  29
ATOM     29  C   UNL     1       5.024  -0.827   0.151  0.00  0.00    +0.121 C 
BRANCH  29  30
ATOM     30  C   UNL     1       5.506  -2.039  -0.638  0.00  0.00    +0.011 C 
BRANCH  30  31
ATOM     31  C   UNL     1       6.993  -1.973  -0.988  0.00  0.00    +0.002 C 
BRANCH  31  32
ATOM     32  C   UNL     1       7.401  -3.222  -1.777  0.00  0.00    +0.015 C 
BRANCH  32  33
ATOM     33  C   UNL     1       8.880  -3.213  -2.154  0.00  0.00    +0.077 C 
BRANCH  33  34
ATOM     34  N   UNL     1       9.203  -4.417  -2.910  0.00  0.00    -0.330 NA
ATOM     35  H   UNL     1      10.203  -4.436  -3.111  0.00  0.00    +0.118 HD
ATOM     36  H   UNL     1       9.011  -5.243  -2.345  0.00  0.00    +0.118 HD
ENDBRANCH  33  34
ENDBRANCH  32  33
ENDBRANCH  31  32
ENDBRANCH  30  31
ENDBRANCH  29  30
ENDBRANCH  27  29
ENDBRANCH  26  27
ENDBRANCH   4  26
TORSDOF 13
