REMARK  Name = 
REMARK  17 active torsions:
REMARK  status: ('A' for Active; 'I' for Inactive)
REMARK    1  A    between atoms: C_1  and  C_2
REMARK    2  A    between atoms: C_4  and  O_53
REMARK    3  A    between atoms: C_6  and  O_52
REMARK    4  A    between atoms: C_8  and  O_51
REMARK    5  A    between atoms: C_10  and  O_13
REMARK    6  A    between atoms: O_13  and  C_14
REMARK    7  A    between atoms: C_16  and  C_49
REMARK    8  A    between atoms: C_19  and  O_27
REMARK    9  A    between atoms: C_21  and  O_26
REMARK   10  A    between atoms: C_23  and  O_25
REMARK   11  A    between atoms: O_27  and  C_28
REMARK   12  A    between atoms: C_29  and  C_41
REMARK   13  A    between atoms: C_33  and  O_40
REMARK   14  A    between atoms: C_35  and  O_39
REMARK   15  A    between atoms: C_43  and  O_48
REMARK   16  A    between atoms: C_44  and  O_47
REMARK   17  A    between atoms: C_49  and  O_50
REMARK                            x       y       z     vdW  Elec       q    Type
REMARK                         _______ _______ _______ _____ _____    ______ ____
ROOT
ATOM      1  C   UNL     1       2.904   3.038  -3.086  0.00  0.00    +0.184 C 
ATOM      2  C   UNL     1       1.763   2.584  -4.032  0.00  0.00    +0.180 C 
ATOM      3  C   UNL     1       1.907   2.951  -5.535  0.00  0.00    +0.214 C 
ATOM      4  C   UNL     1       3.206   3.695  -5.984  0.00  0.00    +0.340 C 
ATOM      5  O   UNL     1       4.099   4.041  -4.911  0.00  0.00    -0.331 OA
ATOM      6  C   UNL     1       3.432   4.358  -3.683  0.00  0.00    +0.179 C 
ENDROOT
BRANCH   3   7
ATOM      7  O   UNL     1       0.781   3.818  -5.847  0.00  0.00    -0.383 OA
ATOM      8  H   UNL     1       0.588   3.681  -6.795  0.00  0.00    +0.210 HD
ENDBRANCH   3   7
BRANCH   2   9
ATOM      9  O   UNL     1       1.512   1.175  -3.890  0.00  0.00    -0.386 OA
ATOM     10  H   UNL     1       2.393   0.751  -3.898  0.00  0.00    +0.210 HD
ENDBRANCH   2   9
BRANCH   6  11
ATOM     11  C   UNL     1       4.375   5.205  -2.817  0.00  0.00    +0.190 C 
BRANCH  11  12
ATOM     12  O   UNL     1       4.822   6.344  -3.557  0.00  0.00    -0.392 OA
ATOM     13  H   UNL     1       5.300   5.981  -4.328  0.00  0.00    +0.210 HD
ENDBRANCH  11  12
ENDBRANCH   6  11
BRANCH   4  14
ATOM     14  O   UNL     1       3.920   2.851  -6.918  0.00  0.00    -0.453 OA
BRANCH  14  15
ATOM     15  C   UNL     1       4.181   3.388  -8.174  0.00  0.00    +0.214 A 
ATOM     16  C   UNL     1       3.204   3.076  -9.280  0.00  0.00    +0.238 A 
ATOM     17  O   UNL     1       2.102   2.615  -9.002  0.00  0.00    -0.283 OA
ATOM     18  C   UNL     1       3.622   3.396 -10.677  0.00  0.00    +0.109 A 
ATOM     19  C   UNL     1       4.769   4.162 -10.835  0.00  0.00    +0.147 A 
ATOM     20  C   UNL     1       5.196   4.616 -12.088  0.00  0.00    +0.092 A 
ATOM     21  C   UNL     1       4.473   4.264 -13.219  0.00  0.00    +0.124 A 
ATOM     22  C   UNL     1       3.359   3.450 -13.106  0.00  0.00    +0.091 A 
ATOM     23  O   UNL     1       5.566   4.526  -9.788  0.00  0.00    -0.451 OA
ATOM     24  C   UNL     1       2.930   3.012 -11.844  0.00  0.00    +0.135 A 
ATOM     25  C   UNL     1       5.318   4.038  -8.509  0.00  0.00    +0.181 A 
BRANCH  25  26
ATOM     26  C   UNL     1       6.440   4.413  -7.591  0.00  0.00    +0.025 A 
ATOM     27  C   UNL     1       6.677   3.788  -6.358  0.00  0.00    +0.015 A 
ATOM     28  C   UNL     1       7.629   4.281  -5.458  0.00  0.00    +0.050 A 
ATOM     29  C   UNL     1       8.405   5.367  -5.823  0.00  0.00    +0.158 A 
ATOM     30  C   UNL     1       8.299   5.910  -7.093  0.00  0.00    +0.159 A 
ATOM     31  C   UNL     1       7.325   5.449  -7.971  0.00  0.00    +0.060 A 
BRANCH  30  32
ATOM     32  O   UNL     1       9.166   6.907  -7.440  0.00  0.00    -0.503 OA
ATOM     33  H   UNL     1       9.180   6.971  -8.411  0.00  0.00    +0.292 HD
ENDBRANCH  30  32
BRANCH  29  34
ATOM     34  O   UNL     1       9.276   5.903  -4.921  0.00  0.00    -0.503 OA
ATOM     35  H   UNL     1       9.625   6.703  -5.364  0.00  0.00    +0.292 HD
ENDBRANCH  29  34
ENDBRANCH  25  26
BRANCH  24  36
ATOM     36  O   UNL     1       1.848   2.184 -11.782  0.00  0.00    -0.506 OA
ATOM     37  H   UNL     1       1.537   1.972 -12.675  0.00  0.00    +0.292 HD
ENDBRANCH  24  36
BRANCH  21  38
ATOM     38  O   UNL     1       4.844   4.702 -14.458  0.00  0.00    -0.507 OA
ATOM     39  H   UNL     1       5.582   5.317 -14.377  0.00  0.00    +0.292 HD
ENDBRANCH  21  38
ENDBRANCH  14  15
ENDBRANCH   4  14
BRANCH   1  40
ATOM     40  O   UNL     1       3.836   1.932  -2.963  0.00  0.00    -0.340 OA
BRANCH  40  44
ATOM     41  C   UNL     1       7.944  -0.074  -1.723  0.00  0.00    +0.041 C 
ATOM     42  C   UNL     1       7.028   1.111  -1.450  0.00  0.00    +0.149 C 
ATOM     43  O   UNL     1       5.757   0.894  -2.099  0.00  0.00    -0.343 OA
ATOM     44  C   UNL     1       4.942   2.089  -2.063  0.00  0.00    +0.282 C 
ATOM     45  C   UNL     1       4.574   2.398  -0.579  0.00  0.00    +0.201 C 
ATOM     46  C   UNL     1       5.846   2.491   0.286  0.00  0.00    +0.179 C 
ATOM     47  C   UNL     1       6.793   1.313   0.055  0.00  0.00    +0.174 C 
BRANCH  47  48
ATOM     48  O   UNL     1       6.213   0.137   0.630  0.00  0.00    -0.387 OA
ATOM     49  H   UNL     1       5.620  -0.259  -0.039  0.00  0.00    +0.210 HD
ENDBRANCH  47  48
BRANCH  46  50
ATOM     50  O   UNL     1       6.479   3.765   0.047  0.00  0.00    -0.386 OA
ATOM     51  H   UNL     1       6.859   3.800  -0.847  0.00  0.00    +0.210 HD
ENDBRANCH  46  50
BRANCH  45  52
ATOM     52  O   UNL     1       3.862   3.633  -0.415  0.00  0.00    -0.384 OA
ATOM     53  H   UNL     1       4.478   4.262   0.018  0.00  0.00    +0.210 HD
ENDBRANCH  45  52
ENDBRANCH  40  44
ENDBRANCH   1  40
TORSDOF 16
