REMARK  Name = 
REMARK  11 active torsions:
REMARK  status: ('A' for Active; 'I' for Inactive)
REMARK    1  A    between atoms: C_1  and  C_2
REMARK    2  A    between atoms: C_4  and  O_36
REMARK    3  A    between atoms: C_6  and  O_35
REMARK    4  A    between atoms: C_8  and  O_34
REMARK    5  A    between atoms: C_10  and  O_12
REMARK    6  A    between atoms: O_12  and  C_13
REMARK    7  A    between atoms: C_14  and  C_26
REMARK    8  A    between atoms: C_18  and  O_25
REMARK    9  A    between atoms: C_20  and  O_24
REMARK   10  A    between atoms: C_28  and  O_33
REMARK   11  A    between atoms: C_29  and  O_32
REMARK                            x       y       z     vdW  Elec       q    Type
REMARK                         _______ _______ _______ _____ _____    ______ ____
ROOT
ATOM      1  C   UNL     1       2.655   2.814  -3.206  0.00  0.00    +0.214 A 
ATOM      2  C   UNL     1       1.242   3.277  -2.989  0.00  0.00    +0.238 A 
ATOM      3  O   UNL     1       0.275   2.537  -3.134  0.00  0.00    -0.283 OA
ATOM      4  C   UNL     1       1.027   4.704  -2.730  0.00  0.00    +0.109 A 
ATOM      5  C   UNL     1       2.081   5.569  -2.995  0.00  0.00    +0.147 A 
ATOM      6  C   UNL     1       1.886   6.951  -2.915  0.00  0.00    +0.092 A 
ATOM      7  C   UNL     1       0.631   7.446  -2.562  0.00  0.00    +0.124 A 
ATOM      8  C   UNL     1      -0.421   6.590  -2.258  0.00  0.00    +0.091 A 
ATOM      9  O   UNL     1       3.327   5.135  -3.366  0.00  0.00    -0.451 OA
ATOM     10  C   UNL     1      -0.220   5.215  -2.335  0.00  0.00    +0.135 A 
ATOM     11  C   UNL     1       3.597   3.766  -3.408  0.00  0.00    +0.181 A 
ENDROOT
BRANCH  11  12
ATOM     12  C   UNL     1       5.028   3.481  -3.779  0.00  0.00    +0.025 A 
ATOM     13  C   UNL     1       5.740   4.409  -4.573  0.00  0.00    +0.015 A 
ATOM     14  C   UNL     1       7.076   4.196  -4.945  0.00  0.00    +0.050 A 
ATOM     15  C   UNL     1       7.719   3.044  -4.529  0.00  0.00    +0.158 A 
ATOM     16  C   UNL     1       7.047   2.110  -3.752  0.00  0.00    +0.159 A 
ATOM     17  C   UNL     1       5.722   2.326  -3.364  0.00  0.00    +0.060 A 
BRANCH  15  18
ATOM     18  O   UNL     1       9.019   2.834  -4.890  0.00  0.00    -0.503 OA
ATOM     19  H   UNL     1       9.252   1.979  -4.474  0.00  0.00    +0.292 HD
ENDBRANCH  15  18
BRANCH  16  20
ATOM     20  O   UNL     1       7.730   0.980  -3.390  0.00  0.00    -0.503 OA
ATOM     21  H   UNL     1       7.106   0.388  -2.931  0.00  0.00    +0.292 HD
ENDBRANCH  16  20
ENDBRANCH  11  12
BRANCH   7  22
ATOM     22  O   UNL     1       0.378   8.783  -2.493  0.00  0.00    -0.507 OA
ATOM     23  H   UNL     1       1.173   9.273  -2.757  0.00  0.00    +0.292 HD
ENDBRANCH   7  22
BRANCH  10  24
ATOM     24  O   UNL     1      -1.251   4.382  -2.003  0.00  0.00    -0.506 OA
ATOM     25  H   UNL     1      -2.074   4.887  -1.907  0.00  0.00    +0.292 HD
ENDBRANCH  10  24
BRANCH   1  26
ATOM     26  O   UNL     1       2.974   1.466  -3.300  0.00  0.00    -0.453 OA
BRANCH  26  30
ATOM     27  C   UNL     1      -0.070  -0.070   0.047  0.00  0.00    +0.041 C 
ATOM     28  C   UNL     1       0.419  -0.300  -1.381  0.00  0.00    +0.150 C 
ATOM     29  O   UNL     1       1.539   0.564  -1.620  0.00  0.00    -0.334 OA
ATOM     30  C   UNL     1       1.966   0.500  -2.992  0.00  0.00    +0.339 C 
ATOM     31  C   UNL     1       2.518  -0.904  -3.299  0.00  0.00    +0.214 C 
ATOM     32  C   UNL     1       1.400  -1.914  -3.037  0.00  0.00    +0.180 C 
ATOM     33  C   UNL     1       0.830  -1.764  -1.617  0.00  0.00    +0.174 C 
BRANCH  31  34
ATOM     34  O   UNL     1       3.661  -1.230  -2.489  0.00  0.00    -0.383 OA
ATOM     35  H   UNL     1       3.761  -2.199  -2.591  0.00  0.00    +0.210 HD
ENDBRANCH  31  34
BRANCH  32  36
ATOM     36  O   UNL     1       1.909  -3.246  -3.209  0.00  0.00    -0.386 OA
ATOM     37  H   UNL     1       1.167  -3.827  -2.943  0.00  0.00    +0.210 HD
ENDBRANCH  32  36
BRANCH  33  38
ATOM     38  O   UNL     1      -0.271  -2.673  -1.495  0.00  0.00    -0.387 OA
ATOM     39  H   UNL     1      -0.502  -2.723  -0.550  0.00  0.00    +0.210 HD
ENDBRANCH  33  38
ENDBRANCH  26  30
ENDBRANCH   1  26
TORSDOF 10
