REMARK  Name = 
REMARK  9 active torsions:
REMARK  status: ('A' for Active; 'I' for Inactive)
REMARK    1  A    between atoms: C_3  and  O_25
REMARK    2  A    between atoms: C_4  and  O_24
REMARK    3  A    between atoms: C_6  and  C_7
REMARK    4  A    between atoms: C_8  and  O_20
REMARK    5  A    between atoms: C_12  and  O_19
REMARK    6  A    between atoms: C_14  and  O_18
REMARK    7  A    between atoms: O_20  and  C_21
REMARK    8  A    between atoms: C_21  and  C_22
REMARK    9  A    between atoms: C_22  and  O_23
REMARK                            x       y       z     vdW  Elec       q    Type
REMARK                         _______ _______ _______ _____ _____    ______ ____
ROOT
ATOM      1  C   UNL     1      -1.332  -2.489  -0.190  0.00  0.00    +0.181 A 
ATOM      2  O   UNL     1      -0.599  -3.637   0.072  0.00  0.00    -0.451 OA
ATOM      3  C   UNL     1      -1.191  -4.858  -0.106  0.00  0.00    +0.147 A 
ATOM      4  C   UNL     1      -2.522  -5.003  -0.472  0.00  0.00    +0.109 A 
ATOM      5  C   UNL     1      -3.066  -6.283  -0.634  0.00  0.00    +0.135 A 
ATOM      6  C   UNL     1      -2.280  -7.417  -0.441  0.00  0.00    +0.091 A 
ATOM      7  C   UNL     1      -0.945  -7.257  -0.075  0.00  0.00    +0.124 A 
ATOM      8  C   UNL     1      -3.317  -3.790  -0.696  0.00  0.00    +0.238 A 
ATOM      9  O   UNL     1      -4.507  -3.894  -0.986  0.00  0.00    -0.283 OA
ATOM     10  C   UNL     1      -0.396  -5.988   0.099  0.00  0.00    +0.092 A 
ATOM     11  C   UNL     1      -2.629  -2.468  -0.588  0.00  0.00    +0.211 A 
ENDROOT
BRANCH   1  13
ATOM     12  C   UNL     1      -0.685  -0.551   1.251  0.00  0.00    +0.015 A 
ATOM     13  C   UNL     1      -0.530  -1.279   0.057  0.00  0.00    +0.025 A 
ATOM     14  C   UNL     1       0.349  -0.809  -0.928  0.00  0.00    +0.060 A 
ATOM     15  C   UNL     1       0.982   0.413  -0.747  0.00  0.00    +0.159 A 
ATOM     16  C   UNL     1       0.766   1.168   0.403  0.00  0.00    +0.158 A 
ATOM     17  C   UNL     1      -0.040   0.680   1.423  0.00  0.00    +0.050 A 
BRANCH  15  18
ATOM     18  O   UNL     1       1.796   0.893  -1.733  0.00  0.00    -0.503 OA
ATOM     19  H   UNL     1       2.143   1.737  -1.378  0.00  0.00    +0.292 HD
ENDBRANCH  15  18
BRANCH  16  20
ATOM     20  O   UNL     1       1.350   2.402   0.471  0.00  0.00    -0.503 OA
ATOM     21  H   UNL     1       0.910   2.904   1.179  0.00  0.00    +0.292 HD
ENDBRANCH  16  20
ENDBRANCH   1  13
BRANCH   5  22
ATOM     22  O   UNL     1      -4.370  -6.503  -0.992  0.00  0.00    -0.506 OA
ATOM     23  H   UNL     1      -4.813  -5.629  -1.083  0.00  0.00    +0.292 HD
ENDBRANCH   5  22
BRANCH   7  24
ATOM     24  O   UNL     1      -0.132  -8.332   0.118  0.00  0.00    -0.507 OA
ATOM     25  H   UNL     1      -0.634  -9.145  -0.065  0.00  0.00    +0.292 HD
ENDBRANCH   7  24
BRANCH  11  26
ATOM     26  O   UNL     1      -3.429  -1.375  -0.876  0.00  0.00    -0.483 OA
BRANCH  26  27
ATOM     27  C   UNL     1      -2.852  -0.297  -1.621  0.00  0.00    +0.257 C 
BRANCH  27  28
ATOM     28  C   UNL     1      -3.968   0.574  -2.196  0.00  0.00    +0.196 C 
BRANCH  28  29
ATOM     29  O   UNL     1      -4.765   1.121  -1.147  0.00  0.00    -0.392 OA
ATOM     30  H   UNL     1      -5.123   0.357  -0.657  0.00  0.00    +0.210 HD
ENDBRANCH  28  29
ENDBRANCH  27  28
ENDBRANCH  26  27
ENDBRANCH  11  26
TORSDOF 9
