REMARK  Name = 
REMARK  9 active torsions:
REMARK  status: ('A' for Active; 'I' for Inactive)
REMARK    1  A    between atoms: C_3  and  O_26
REMARK    2  A    between atoms: C_4  and  O_21
REMARK    3  A    between atoms: C_6  and  C_7
REMARK    4  A    between atoms: C_8  and  O_20
REMARK    5  A    between atoms: C_12  and  O_19
REMARK    6  A    between atoms: C_14  and  O_18
REMARK    7  A    between atoms: O_21  and  P_22
REMARK    8  A    between atoms: P_22  and  O_24
REMARK    9  A    between atoms: P_22  and  O_25
REMARK                            x       y       z     vdW  Elec       q    Type
REMARK                         _______ _______ _______ _____ _____    ______ ____
ROOT
ATOM      1  C   UNL     1      -1.452  -2.480  -0.193  0.00  0.00    +0.181 A 
ATOM      2  O   UNL     1      -0.689  -3.620   0.078  0.00  0.00    -0.451 OA
ATOM      3  C   UNL     1      -1.255  -4.863  -0.096  0.00  0.00    +0.147 A 
ATOM      4  C   UNL     1      -2.591  -5.048  -0.427  0.00  0.00    +0.109 A 
ATOM      5  C   UNL     1      -3.112  -6.340  -0.596  0.00  0.00    +0.135 A 
ATOM      6  C   UNL     1      -2.293  -7.454  -0.439  0.00  0.00    +0.091 A 
ATOM      7  C   UNL     1      -0.956  -7.263  -0.111  0.00  0.00    +0.124 A 
ATOM      8  C   UNL     1      -3.424  -3.867  -0.628  0.00  0.00    +0.238 A 
ATOM      9  O   UNL     1      -4.621  -3.998  -0.877  0.00  0.00    -0.283 OA
ATOM     10  C   UNL     1      -0.430  -5.980   0.064  0.00  0.00    +0.092 A 
ATOM     11  C   UNL     1      -2.753  -2.540  -0.570  0.00  0.00    +0.208 A 
ENDROOT
BRANCH   1  13
ATOM     12  C   UNL     1      -1.332  -0.018   0.384  0.00  0.00    +0.015 A 
ATOM     13  C   UNL     1      -0.691  -1.198  -0.042  0.00  0.00    +0.025 A 
ATOM     14  C   UNL     1       0.694  -1.119  -0.318  0.00  0.00    +0.061 A 
ATOM     15  C   UNL     1       1.376   0.111  -0.246  0.00  0.00    +0.174 A 
ATOM     16  C   UNL     1       0.672   1.276   0.055  0.00  0.00    +0.159 A 
ATOM     17  C   UNL     1      -0.672   1.215   0.394  0.00  0.00    +0.050 A 
BRANCH  16  18
ATOM     18  O   UNL     1       1.324   2.476   0.029  0.00  0.00    -0.503 OA
ATOM     19  H   UNL     1       0.675   3.195   0.086  0.00  0.00    +0.292 HD
ENDBRANCH  16  18
BRANCH  15  20
ATOM     20  O   UNL     1       2.722   0.256  -0.499  0.00  0.00    -0.400 OA
BRANCH  20  21
ATOM     21  P   UNL     1       3.776  -1.043  -0.059  0.00  0.00    +0.528 P 
ATOM     22  O   UNL     1       4.779  -0.701  -1.161  0.00  0.00    -0.216 OA
BRANCH  21  23
ATOM     23  O   UNL     1       4.830  -2.342   0.382  0.00  0.00    -0.293 OA
ATOM     24  H   UNL     1       5.654  -2.130  -0.102  0.00  0.00    +0.223 HD
ENDBRANCH  21  23
BRANCH  21  25
ATOM     25  O   UNL     1       4.303  -0.201   1.234  0.00  0.00    -0.293 OA
ATOM     26  H   UNL     1       4.972   0.440   0.932  0.00  0.00    +0.223 HD
ENDBRANCH  21  25
ENDBRANCH  20  21
ENDBRANCH  15  20
ENDBRANCH   1  13
BRANCH   5  27
ATOM     27  O   UNL     1      -4.418  -6.583  -0.928  0.00  0.00    -0.506 OA
ATOM     28  H   UNL     1      -4.884  -5.718  -0.997  0.00  0.00    +0.292 HD
ENDBRANCH   5  27
BRANCH   7  29
ATOM     29  O   UNL     1      -0.120  -8.327   0.048  0.00  0.00    -0.507 OA
ATOM     30  H   UNL     1      -0.616  -9.149  -0.101  0.00  0.00    +0.292 HD
ENDBRANCH   7  29
BRANCH  11  31
ATOM     31  O   UNL     1      -3.530  -1.461  -0.945  0.00  0.00    -0.501 OA
ATOM     32  H   UNL     1      -2.954  -0.785  -1.338  0.00  0.00    +0.292 HD
ENDBRANCH  11  31
TORSDOF 9
