REMARK  Name = 
REMARK  8 active torsions:
REMARK  status: ('A' for Active; 'I' for Inactive)
REMARK    1  A    between atoms: C_3  and  O_26
REMARK    2  A    between atoms: C_4  and  O_21
REMARK    3  A    between atoms: C_6  and  C_7
REMARK    4  A    between atoms: C_8  and  O_20
REMARK    5  A    between atoms: C_12  and  O_19
REMARK    6  A    between atoms: C_14  and  O_18
REMARK    7  A    between atoms: O_21  and  S_22
REMARK    8  A    between atoms: S_22  and  O_25
REMARK                            x       y       z     vdW  Elec       q    Type
REMARK                         _______ _______ _______ _____ _____    ______ ____
ROOT
ATOM      1  C   UNL     1      -1.503  -2.521  -0.166  0.00  0.00    +0.181 A 
ATOM      2  O   UNL     1      -0.737  -3.657   0.098  0.00  0.00    -0.451 OA
ATOM      3  C   UNL     1      -1.290  -4.898  -0.099  0.00  0.00    +0.147 A 
ATOM      4  C   UNL     1      -2.627  -5.084  -0.434  0.00  0.00    +0.109 A 
ATOM      5  C   UNL     1      -3.140  -6.375  -0.610  0.00  0.00    +0.135 A 
ATOM      6  C   UNL     1      -2.317  -7.486  -0.454  0.00  0.00    +0.091 A 
ATOM      7  C   UNL     1      -0.978  -7.292  -0.126  0.00  0.00    +0.124 A 
ATOM      8  C   UNL     1      -3.464  -3.900  -0.625  0.00  0.00    +0.238 A 
ATOM      9  O   UNL     1      -4.659  -4.031  -0.884  0.00  0.00    -0.283 OA
ATOM     10  C   UNL     1      -0.458  -6.009   0.053  0.00  0.00    +0.092 A 
ATOM     11  C   UNL     1      -2.799  -2.573  -0.548  0.00  0.00    +0.208 A 
ENDROOT
BRANCH   1  13
ATOM     12  C   UNL     1      -1.333  -0.054   0.409  0.00  0.00    +0.015 A 
ATOM     13  C   UNL     1      -0.732  -1.250  -0.024  0.00  0.00    +0.025 A 
ATOM     14  C   UNL     1       0.641  -1.218  -0.336  0.00  0.00    +0.064 A 
ATOM     15  C   UNL     1       1.363  -0.019  -0.289  0.00  0.00    +0.201 A 
ATOM     16  C   UNL     1       0.710   1.168   0.045  0.00  0.00    +0.161 A 
ATOM     17  C   UNL     1      -0.630   1.156   0.413  0.00  0.00    +0.050 A 
BRANCH  16  18
ATOM     18  O   UNL     1       1.406   2.344   0.009  0.00  0.00    -0.503 OA
ATOM     19  H   UNL     1       0.786   3.084   0.122  0.00  0.00    +0.292 HD
ENDBRANCH  16  18
BRANCH  15  20
ATOM     20  O   UNL     1       2.684   0.085  -0.644  0.00  0.00    -0.321 OA
BRANCH  20  21
ATOM     21  S   UNL     1       3.765  -1.054  -0.213  0.00  0.00    +0.251 S 
ATOM     22  O   UNL     1       3.659  -2.172  -1.121  0.00  0.00    -0.108 OA
ATOM     23  O   UNL     1       3.719  -1.228   1.223  0.00  0.00    -0.108 OA
BRANCH  21  24
ATOM     24  O   UNL     1       5.171  -0.322  -0.505  0.00  0.00    -0.222 OA
ATOM     25  H   UNL     1       5.335   0.310   0.222  0.00  0.00    +0.248 HD
ENDBRANCH  21  24
ENDBRANCH  20  21
ENDBRANCH  15  20
ENDBRANCH   1  13
BRANCH   5  26
ATOM     26  O   UNL     1      -4.446  -6.623  -0.946  0.00  0.00    -0.506 OA
ATOM     27  H   UNL     1      -4.910  -5.756  -1.022  0.00  0.00    +0.292 HD
ENDBRANCH   5  26
BRANCH   7  28
ATOM     28  O   UNL     1      -0.134  -8.351   0.031  0.00  0.00    -0.507 OA
ATOM     29  H   UNL     1      -0.630  -9.174  -0.124  0.00  0.00    +0.292 HD
ENDBRANCH   7  28
BRANCH  11  30
ATOM     30  O   UNL     1      -3.569  -1.485  -0.917  0.00  0.00    -0.501 OA
ATOM     31  H   UNL     1      -2.986  -0.816  -1.311  0.00  0.00    +0.292 HD
ENDBRANCH  11  30
TORSDOF 8
