REMARK  Name = 
REMARK  9 active torsions:
REMARK  status: ('A' for Active; 'I' for Inactive)
REMARK    1  A    between atoms: C_3  and  O_30
REMARK    2  A    between atoms: C_4  and  O_29
REMARK    3  A    between atoms: C_6  and  C_7
REMARK    4  A    between atoms: C_8  and  O_24
REMARK    5  A    between atoms: C_12  and  O_23
REMARK    6  A    between atoms: C_14  and  O_18
REMARK    7  A    between atoms: O_18  and  S_19
REMARK    8  A    between atoms: O_24  and  S_25
REMARK    9  A    between atoms: O_30  and  S_31
REMARK                            x       y       z     vdW  Elec       q    Type
REMARK                         _______ _______ _______ _____ _____    ______ ____
ROOT
ATOM      1  C   UNL     1      -1.320  -2.525  -0.125  0.00  0.00    +0.184 A 
ATOM      2  O   UNL     1      -0.597  -3.728  -0.074  0.00  0.00    -0.451 OA
ATOM      3  C   UNL     1      -1.240  -4.927  -0.222  0.00  0.00    +0.147 A 
ATOM      4  C   UNL     1      -2.588  -5.008  -0.510  0.00  0.00    +0.109 A 
ATOM      5  C   UNL     1      -3.205  -6.259  -0.659  0.00  0.00    +0.135 A 
ATOM      6  C   UNL     1      -2.466  -7.433  -0.519  0.00  0.00    +0.095 A 
ATOM      7  C   UNL     1      -1.098  -7.361  -0.255  0.00  0.00    +0.162 A 
ATOM      8  C   UNL     1      -3.338  -3.763  -0.649  0.00  0.00    +0.241 A 
ATOM      9  O   UNL     1      -4.526  -3.830  -0.972  0.00  0.00    -0.283 OA
ATOM     10  C   UNL     1      -0.492  -6.104  -0.089  0.00  0.00    +0.095 A 
ATOM     11  C   UNL     1      -2.650  -2.464  -0.383  0.00  0.00    +0.244 A 
ENDROOT
BRANCH   1  13
ATOM     12  C   UNL     1       0.457  -0.977  -0.919  0.00  0.00    +0.015 A 
ATOM     13  C   UNL     1      -0.379  -1.410   0.126  0.00  0.00    +0.025 A 
ATOM     14  C   UNL     1      -0.152  -0.910   1.414  0.00  0.00    +0.061 A 
ATOM     15  C   UNL     1       0.915  -0.035   1.639  0.00  0.00    +0.162 A 
ATOM     16  C   UNL     1       1.787   0.340   0.609  0.00  0.00    +0.196 A 
ATOM     17  C   UNL     1       1.529  -0.104  -0.682  0.00  0.00    +0.053 A 
BRANCH  15  18
ATOM     18  O   UNL     1       1.116   0.439   2.913  0.00  0.00    -0.503 OA
ATOM     19  H   UNL     1       1.861   1.064   2.823  0.00  0.00    +0.292 HD
ENDBRANCH  15  18
BRANCH  16  20
ATOM     20  O   UNL     1       2.825   1.175   0.947  0.00  0.00    -0.357 OA
BRANCH  20  21
ATOM     21  S   UNL     1       4.324   1.018   0.293  0.00  0.00    +0.043 S 
ATOM     22  O   UNL     1       5.154   1.854   1.166  0.00  0.00    -0.259 OA
ATOM     23  O   UNL     1       4.209   1.542  -1.067  0.00  0.00    -0.336 OA
ATOM     24  O   UNL     1       4.647  -0.403   0.377  0.00  0.00    -0.336 OA
ENDBRANCH  20  21
ENDBRANCH  16  20
ENDBRANCH   1  13
BRANCH   5  25
ATOM     25  O   UNL     1      -4.540  -6.396  -0.943  0.00  0.00    -0.506 OA
ATOM     26  H   UNL     1      -4.897  -5.487  -1.076  0.00  0.00    +0.292 HD
ENDBRANCH   5  25
BRANCH   7  27
ATOM     27  O   UNL     1      -0.268  -8.448  -0.119  0.00  0.00    -0.360 OA
BRANCH  27  28
ATOM     28  S   UNL     1      -0.604  -9.933  -0.733  0.00  0.00    +0.042 S 
ATOM     29  O   UNL     1       0.694 -10.610  -0.723  0.00  0.00    -0.259 OA
ATOM     30  O   UNL     1      -1.129  -9.699  -2.077  0.00  0.00    -0.336 OA
ATOM     31  O   UNL     1      -1.572 -10.510   0.201  0.00  0.00    -0.336 OA
ENDBRANCH  27  28
ENDBRANCH   7  27
BRANCH  11  32
ATOM     32  O   UNL     1      -3.538  -1.421  -0.440  0.00  0.00    -0.353 OA
BRANCH  32  33
ATOM     33  S   UNL     1      -3.301   0.173  -0.529  0.00  0.00    +0.043 S 
ATOM     34  O   UNL     1      -4.621   0.682  -0.908  0.00  0.00    -0.259 OA
ATOM     35  O   UNL     1      -2.296   0.355  -1.573  0.00  0.00    -0.336 OA
ATOM     36  O   UNL     1      -2.904   0.555   0.823  0.00  0.00    -0.336 OA
ENDBRANCH  32  33
ENDBRANCH  11  32
TORSDOF 9
