REMARK  Name = 
REMARK  15 active torsions:
REMARK  status: ('A' for Active; 'I' for Inactive)
REMARK    1  A    between atoms: C_2  and  O_46
REMARK    2  A    between atoms: C_4  and  O_45
REMARK    3  A    between atoms: C_6  and  O_33
REMARK    4  A    between atoms: C_8  and  O_11
REMARK    5  A    between atoms: O_11  and  C_12
REMARK    6  A    between atoms: C_13  and  C_25
REMARK    7  A    between atoms: C_17  and  O_24
REMARK    8  A    between atoms: C_19  and  O_23
REMARK    9  A    between atoms: C_27  and  O_32
REMARK   10  A    between atoms: C_28  and  O_31
REMARK   11  A    between atoms: O_33  and  C_34
REMARK   12  A    between atoms: C_36  and  O_44
REMARK   13  A    between atoms: C_38  and  C_41
REMARK   14  A    between atoms: C_38  and  O_43
REMARK   15  A    between atoms: C_41  and  O_42
REMARK                            x       y       z     vdW  Elec       q    Type
REMARK                         _______ _______ _______ _____ _____    ______ ____
ROOT
ATOM      1  C   UNL     1       2.345  -2.946  -0.515  0.00  0.00    +0.214 A 
ATOM      2  C   UNL     1       3.197  -2.024  -1.348  0.00  0.00    +0.238 A 
ATOM      3  O   UNL     1       2.826  -0.892  -1.642  0.00  0.00    -0.283 OA
ATOM      4  C   UNL     1       4.459  -2.545  -1.904  0.00  0.00    +0.109 A 
ATOM      5  C   UNL     1       4.673  -3.914  -1.819  0.00  0.00    +0.147 A 
ATOM      6  C   UNL     1       5.797  -4.505  -2.411  0.00  0.00    +0.092 A 
ATOM      7  C   UNL     1       6.709  -3.705  -3.089  0.00  0.00    +0.124 A 
ATOM      8  C   UNL     1       6.528  -2.328  -3.163  0.00  0.00    +0.091 A 
ATOM      9  O   UNL     1       3.806  -4.758  -1.188  0.00  0.00    -0.451 OA
ATOM     10  C   UNL     1       5.406  -1.750  -2.567  0.00  0.00    +0.135 A 
ATOM     11  C   UNL     1       2.704  -4.251  -0.506  0.00  0.00    +0.181 A 
ENDROOT
BRANCH  11  12
ATOM     12  C   UNL     1       1.946  -5.363   0.146  0.00  0.00    +0.025 A 
ATOM     13  C   UNL     1       2.643  -6.508   0.595  0.00  0.00    +0.015 A 
ATOM     14  C   UNL     1       1.968  -7.660   1.016  0.00  0.00    +0.050 A 
ATOM     15  C   UNL     1       0.585  -7.674   0.997  0.00  0.00    +0.158 A 
ATOM     16  C   UNL     1      -0.126  -6.541   0.620  0.00  0.00    +0.159 A 
ATOM     17  C   UNL     1       0.543  -5.392   0.199  0.00  0.00    +0.060 A 
BRANCH  15  18
ATOM     18  O   UNL     1      -0.079  -8.816   1.336  0.00  0.00    -0.503 OA
ATOM     19  H   UNL     1      -1.023  -8.604   1.188  0.00  0.00    +0.292 HD
ENDBRANCH  15  18
BRANCH  16  20
ATOM     20  O   UNL     1      -1.491  -6.614   0.656  0.00  0.00    -0.503 OA
ATOM     21  H   UNL     1      -1.863  -5.731   0.474  0.00  0.00    +0.292 HD
ENDBRANCH  16  20
ENDBRANCH  11  12
BRANCH   7  22
ATOM     22  O   UNL     1       7.803  -4.229  -3.709  0.00  0.00    -0.507 OA
ATOM     23  H   UNL     1       7.788  -5.198  -3.630  0.00  0.00    +0.292 HD
ENDBRANCH   7  22
BRANCH  10  24
ATOM     24  O   UNL     1       5.254  -0.392  -2.646  0.00  0.00    -0.506 OA
ATOM     25  H   UNL     1       5.987   0.001  -3.145  0.00  0.00    +0.292 HD
ENDBRANCH  10  24
BRANCH   1  26
ATOM     26  O   UNL     1       1.223  -2.502   0.193  0.00  0.00    -0.453 OA
BRANCH  26  29
ATOM     27  C   UNL     1       0.794   1.101  -0.028  0.00  0.00    +0.198 C 
ATOM     28  O   UNL     1       1.257  -0.156   0.488  0.00  0.00    -0.337 OA
ATOM     29  C   UNL     1       0.611  -1.253  -0.172  0.00  0.00    +0.340 C 
ATOM     30  C   UNL     1      -0.886  -1.259   0.251  0.00  0.00    +0.221 C 
ATOM     31  C   UNL     1      -1.511   0.126  -0.072  0.00  0.00    +0.180 C 
ATOM     32  C   UNL     1      -0.660   1.316   0.395  0.00  0.00    +0.171 C 
BRANCH  31  33
ATOM     33  O   UNL     1      -2.850   0.190   0.431  0.00  0.00    -0.386 OA
ATOM     34  H   UNL     1      -3.200   1.071   0.215  0.00  0.00    +0.210 HD
ENDBRANCH  31  33
BRANCH  32  35
ATOM     35  O   UNL     1      -0.748   1.494   1.808  0.00  0.00    -0.387 OA
ATOM     36  H   UNL     1      -0.188   0.814   2.223  0.00  0.00    +0.210 HD
ENDBRANCH  32  35
BRANCH  30  37
ATOM     37  O   UNL     1      -1.655  -2.372  -0.280  0.00  0.00    -0.337 OA
BRANCH  37  38
ATOM     38  C   UNL     1      -1.704  -2.476  -1.697  0.00  0.00    +0.282 C 
ATOM     39  O   UNL     1      -2.220  -1.313  -2.333  0.00  0.00    -0.346 OA
ATOM     40  C   UNL     1      -2.993  -1.701  -3.472  0.00  0.00    +0.202 C 
ATOM     41  C   UNL     1      -2.874  -3.214  -3.589  0.00  0.00    +0.142 C 
ATOM     42  C   UNL     1      -2.622  -3.627  -2.141  0.00  0.00    +0.206 C 
BRANCH  41  43
ATOM     43  O   UNL     1      -1.703  -3.535  -4.373  0.00  0.00    -0.381 OA
ATOM     44  H   UNL     1      -1.379  -4.394  -4.043  0.00  0.00    +0.210 HD
ENDBRANCH  41  43
BRANCH  42  45
ATOM     45  O   UNL     1      -2.023  -4.924  -2.056  0.00  0.00    -0.384 OA
ATOM     46  H   UNL     1      -1.062  -4.834  -1.949  0.00  0.00    +0.210 HD
ENDBRANCH  42  45
BRANCH  41  47
ATOM     47  C   UNL     1      -4.104  -3.813  -4.264  0.00  0.00    +0.195 C 
BRANCH  47  48
ATOM     48  O   UNL     1      -4.008  -5.226  -4.381  0.00  0.00    -0.392 OA
ATOM     49  H   UNL     1      -3.179  -5.415  -4.853  0.00  0.00    +0.210 HD
ENDBRANCH  47  48
ENDBRANCH  41  47
ENDBRANCH  37  38
ENDBRANCH  30  37
ENDBRANCH  26  29
ENDBRANCH   1  26
TORSDOF 15
