REMARK  Name = 
REMARK  15 active torsions:
REMARK  status: ('A' for Active; 'I' for Inactive)
REMARK    1  A    between atoms: C_2  and  O_46
REMARK    2  A    between atoms: C_4  and  O_45
REMARK    3  A    between atoms: C_6  and  O_33
REMARK    4  A    between atoms: C_8  and  O_11
REMARK    5  A    between atoms: O_11  and  C_12
REMARK    6  A    between atoms: C_13  and  C_25
REMARK    7  A    between atoms: C_17  and  O_24
REMARK    8  A    between atoms: C_19  and  O_23
REMARK    9  A    between atoms: C_27  and  O_32
REMARK   10  A    between atoms: C_28  and  O_31
REMARK   11  A    between atoms: O_33  and  C_34
REMARK   12  A    between atoms: C_36  and  O_44
REMARK   13  A    between atoms: C_38  and  C_41
REMARK   14  A    between atoms: C_38  and  O_43
REMARK   15  A    between atoms: C_41  and  O_42
REMARK                            x       y       z     vdW  Elec       q    Type
REMARK                         _______ _______ _______ _____ _____    ______ ____
ROOT
ATOM      1  C   UNL     1       2.353  -2.939  -0.513  0.00  0.00    +0.214 A 
ATOM      2  C   UNL     1       3.207  -2.014  -1.349  0.00  0.00    +0.238 A 
ATOM      3  O   UNL     1       2.850  -0.876  -1.626  0.00  0.00    -0.283 OA
ATOM      4  C   UNL     1       4.464  -2.547  -1.915  0.00  0.00    +0.109 A 
ATOM      5  C   UNL     1       4.670  -3.922  -1.829  0.00  0.00    +0.147 A 
ATOM      6  C   UNL     1       5.791  -4.519  -2.420  0.00  0.00    +0.092 A 
ATOM      7  C   UNL     1       6.707  -3.724  -3.098  0.00  0.00    +0.124 A 
ATOM      8  C   UNL     1       6.529  -2.350  -3.178  0.00  0.00    +0.091 A 
ATOM      9  O   UNL     1       3.803  -4.761  -1.191  0.00  0.00    -0.451 OA
ATOM     10  C   UNL     1       5.407  -1.760  -2.593  0.00  0.00    +0.135 A 
ATOM     11  C   UNL     1       2.705  -4.248  -0.507  0.00  0.00    +0.181 A 
ENDROOT
BRANCH  11  12
ATOM     12  C   UNL     1       1.945  -5.357   0.150  0.00  0.00    +0.025 A 
ATOM     13  C   UNL     1       2.635  -6.506   0.599  0.00  0.00    +0.015 A 
ATOM     14  C   UNL     1       1.954  -7.655   1.019  0.00  0.00    +0.050 A 
ATOM     15  C   UNL     1       0.572  -7.664   0.998  0.00  0.00    +0.158 A 
ATOM     16  C   UNL     1      -0.133  -6.526   0.625  0.00  0.00    +0.159 A 
ATOM     17  C   UNL     1       0.542  -5.381   0.205  0.00  0.00    +0.060 A 
BRANCH  15  18
ATOM     18  O   UNL     1      -0.098  -8.804   1.335  0.00  0.00    -0.503 OA
ATOM     19  H   UNL     1      -1.041  -8.587   1.184  0.00  0.00    +0.292 HD
ENDBRANCH  15  18
BRANCH  16  20
ATOM     20  O   UNL     1      -1.498  -6.592   0.669  0.00  0.00    -0.503 OA
ATOM     21  H   UNL     1      -1.866  -5.705   0.501  0.00  0.00    +0.292 HD
ENDBRANCH  16  20
ENDBRANCH  11  12
BRANCH   7  22
ATOM     22  O   UNL     1       7.808  -4.250  -3.705  0.00  0.00    -0.507 OA
ATOM     23  H   UNL     1       7.808  -5.217  -3.599  0.00  0.00    +0.292 HD
ENDBRANCH   7  22
BRANCH  10  24
ATOM     24  O   UNL     1       5.268  -0.403  -2.673  0.00  0.00    -0.506 OA
ATOM     25  H   UNL     1       5.990  -0.022  -3.198  0.00  0.00    +0.292 HD
ENDBRANCH  10  24
BRANCH   1  26
ATOM     26  O   UNL     1       1.242  -2.490   0.206  0.00  0.00    -0.453 OA
BRANCH  26  29
ATOM     27  C   UNL     1       0.763   1.104  -0.041  0.00  0.00    +0.198 C 
ATOM     28  O   UNL     1       1.263  -0.138   0.460  0.00  0.00    -0.337 OA
ATOM     29  C   UNL     1       0.615  -1.249  -0.173  0.00  0.00    +0.340 C 
ATOM     30  C   UNL     1      -0.876  -1.263   0.273  0.00  0.00    +0.221 C 
ATOM     31  C   UNL     1      -1.514   0.105  -0.071  0.00  0.00    +0.180 C 
ATOM     32  C   UNL     1      -0.688   1.304   0.392  0.00  0.00    +0.171 C 
BRANCH  31  33
ATOM     33  O   UNL     1      -2.845   0.201   0.453  0.00  0.00    -0.386 OA
ATOM     34  H   UNL     1      -3.208   1.017   0.057  0.00  0.00    +0.210 HD
ENDBRANCH  31  33
BRANCH  32  35
ATOM     35  O   UNL     1      -1.261   2.475  -0.213  0.00  0.00    -0.387 OA
ATOM     36  H   UNL     1      -0.811   3.254   0.156  0.00  0.00    +0.210 HD
ENDBRANCH  32  35
BRANCH  30  37
ATOM     37  O   UNL     1      -1.645  -2.391  -0.224  0.00  0.00    -0.337 OA
BRANCH  37  38
ATOM     38  C   UNL     1      -1.741  -2.502  -1.638  0.00  0.00    +0.282 C 
ATOM     39  O   UNL     1      -2.301  -1.354  -2.262  0.00  0.00    -0.346 OA
ATOM     40  C   UNL     1      -3.086  -1.757  -3.386  0.00  0.00    +0.202 C 
ATOM     41  C   UNL     1      -2.958  -3.270  -3.490  0.00  0.00    +0.142 C 
ATOM     42  C   UNL     1      -2.660  -3.665  -2.046  0.00  0.00    +0.206 C 
BRANCH  41  43
ATOM     43  O   UNL     1      -1.811  -3.592  -4.306  0.00  0.00    -0.381 OA
ATOM     44  H   UNL     1      -1.470  -4.443  -3.974  0.00  0.00    +0.210 HD
ENDBRANCH  41  43
BRANCH  42  45
ATOM     45  O   UNL     1      -2.051  -4.957  -1.964  0.00  0.00    -0.384 OA
ATOM     46  H   UNL     1      -1.087  -4.860  -1.902  0.00  0.00    +0.210 HD
ENDBRANCH  42  45
BRANCH  41  47
ATOM     47  C   UNL     1      -4.207  -3.883  -4.116  0.00  0.00    +0.195 C 
BRANCH  47  48
ATOM     48  O   UNL     1      -4.107  -5.298  -4.216  0.00  0.00    -0.392 OA
ATOM     49  H   UNL     1      -3.294  -5.488  -4.715  0.00  0.00    +0.210 HD
ENDBRANCH  47  48
ENDBRANCH  41  47
ENDBRANCH  37  38
ENDBRANCH  30  37
ENDBRANCH  26  29
ENDBRANCH   1  26
TORSDOF 15
