REMARK  Name = 
REMARK  13 active torsions:
REMARK  status: ('A' for Active; 'I' for Inactive)
REMARK    1  A    between atoms: C_1  and  O_2
REMARK    2  A    between atoms: O_2  and  C_3
REMARK    3  A    between atoms: C_3  and  C_5
REMARK    4  A    between atoms: C_7  and  O_40
REMARK    5  A    between atoms: C_9  and  O_39
REMARK    6  A    between atoms: C_11  and  O_38
REMARK    7  A    between atoms: C_13  and  O_16
REMARK    8  A    between atoms: O_16  and  C_17
REMARK    9  A    between atoms: C_18  and  C_30
REMARK   10  A    between atoms: C_22  and  O_29
REMARK   11  A    between atoms: C_24  and  O_28
REMARK   12  A    between atoms: C_32  and  O_37
REMARK   13  A    between atoms: C_33  and  O_36
REMARK                            x       y       z     vdW  Elec       q    Type
REMARK                         _______ _______ _______ _____ _____    ______ ____
ROOT
ATOM      1  C   UNL     1       4.881  -1.186  -4.975  0.00  0.00    +0.214 A 
ATOM      2  C   UNL     1       4.256  -1.545  -6.287  0.00  0.00    +0.238 A 
ATOM      3  O   UNL     1       3.942  -2.704  -6.534  0.00  0.00    -0.283 OA
ATOM      4  C   UNL     1       4.124  -0.458  -7.279  0.00  0.00    +0.109 A 
ATOM      5  C   UNL     1       4.546   0.820  -6.910  0.00  0.00    +0.147 A 
ATOM      6  C   UNL     1       4.439   1.895  -7.799  0.00  0.00    +0.092 A 
ATOM      7  C   UNL     1       3.933   1.675  -9.074  0.00  0.00    +0.124 A 
ATOM      8  C   UNL     1       3.534   0.405  -9.471  0.00  0.00    +0.091 A 
ATOM      9  O   UNL     1       5.110   1.104  -5.695  0.00  0.00    -0.451 OA
ATOM     10  C   UNL     1       3.627  -0.660  -8.573  0.00  0.00    +0.135 A 
ATOM     11  C   UNL     1       5.329   0.076  -4.789  0.00  0.00    +0.181 A 
ENDROOT
BRANCH  11  12
ATOM     12  C   UNL     1       6.147   0.523  -3.615  0.00  0.00    +0.025 A 
ATOM     13  C   UNL     1       6.177   1.882  -3.239  0.00  0.00    +0.015 A 
ATOM     14  C   UNL     1       7.036   2.342  -2.226  0.00  0.00    +0.050 A 
ATOM     15  C   UNL     1       7.858   1.443  -1.575  0.00  0.00    +0.158 A 
ATOM     16  C   UNL     1       7.831   0.096  -1.907  0.00  0.00    +0.159 A 
ATOM     17  C   UNL     1       7.001  -0.362  -2.925  0.00  0.00    +0.060 A 
BRANCH  15  18
ATOM     18  O   UNL     1       8.715   1.888  -0.611  0.00  0.00    -0.503 OA
ATOM     19  H   UNL     1       9.195   1.085  -0.325  0.00  0.00    +0.292 HD
ENDBRANCH  15  18
BRANCH  16  20
ATOM     20  O   UNL     1       8.658  -0.752  -1.223  0.00  0.00    -0.503 OA
ATOM     21  H   UNL     1       8.438  -1.664  -1.489  0.00  0.00    +0.292 HD
ENDBRANCH  16  20
ENDBRANCH  11  12
BRANCH   7  22
ATOM     22  O   UNL     1       3.820   2.684  -9.983  0.00  0.00    -0.507 OA
ATOM     23  H   UNL     1       4.131   3.514  -9.583  0.00  0.00    +0.292 HD
ENDBRANCH   7  22
BRANCH  10  24
ATOM     24  O   UNL     1       3.239  -1.901  -8.992  0.00  0.00    -0.506 OA
ATOM     25  H   UNL     1       3.033  -1.886  -9.940  0.00  0.00    +0.292 HD
ENDBRANCH  10  24
BRANCH   1  26
ATOM     26  O   UNL     1       5.093  -2.168  -4.030  0.00  0.00    -0.453 OA
BRANCH  26  29
ATOM     27  C   UNL     1       1.676  -3.379  -3.499  0.00  0.00    +0.261 C 
ATOM     28  O   UNL     1       2.743  -2.480  -3.813  0.00  0.00    -0.322 OA
ATOM     29  C   UNL     1       4.031  -3.092  -3.755  0.00  0.00    +0.340 C 
ATOM     30  C   UNL     1       4.313  -3.609  -2.324  0.00  0.00    +0.214 C 
ATOM     31  C   UNL     1       3.164  -4.504  -1.849  0.00  0.00    +0.180 C 
ATOM     32  C   UNL     1       1.813  -3.800  -2.031  0.00  0.00    +0.185 C 
BRANCH  27  33
ATOM     33  C   UNL     1       0.332  -2.683  -3.723  0.00  0.00    +0.339 C 
ATOM     34  O   UNL     1      -0.647  -2.831  -2.998  0.00  0.00    -0.248 OA
BRANCH  33  36
ATOM     35  C   UNL     1      -0.812  -1.165  -5.138  0.00  0.00    +0.280 C 
ATOM     36  O   UNL     1       0.366  -1.920  -4.849  0.00  0.00    -0.466 OA
ENDBRANCH  33  36
ENDBRANCH  27  33
BRANCH  30  37
ATOM     37  O   UNL     1       5.580  -4.291  -2.261  0.00  0.00    -0.383 OA
ATOM     38  H   UNL     1       5.461  -5.195  -2.599  0.00  0.00    +0.210 HD
ENDBRANCH  30  37
BRANCH  31  39
ATOM     39  O   UNL     1       3.333  -4.852  -0.469  0.00  0.00    -0.386 OA
ATOM     40  H   UNL     1       2.486  -5.256  -0.196  0.00  0.00    +0.210 HD
ENDBRANCH  31  39
BRANCH  32  41
ATOM     41  O   UNL     1       0.797  -4.712  -1.596  0.00  0.00    -0.386 OA
ATOM     42  H   UNL     1      -0.048  -4.212  -1.606  0.00  0.00    +0.210 HD
ENDBRANCH  32  41
ENDBRANCH  26  29
ENDBRANCH   1  26
TORSDOF 12
