REMARK  Name = 
REMARK  15 active torsions:
REMARK  status: ('A' for Active; 'I' for Inactive)
REMARK    1  A    between atoms: C_1  and  C_2
REMARK    2  A    between atoms: C_4  and  O_50
REMARK    3  A    between atoms: C_6  and  O_49
REMARK    4  A    between atoms: C_8  and  O_48
REMARK    5  A    between atoms: C_10  and  O_13
REMARK    6  A    between atoms: O_13  and  C_14
REMARK    7  A    between atoms: C_16  and  O_47
REMARK    8  A    between atoms: C_18  and  O_46
REMARK    9  A    between atoms: C_22  and  O_24
REMARK   10  A    between atoms: O_24  and  C_25
REMARK   11  A    between atoms: C_26  and  C_38
REMARK   12  A    between atoms: C_30  and  O_37
REMARK   13  A    between atoms: C_32  and  O_36
REMARK   14  A    between atoms: C_40  and  O_45
REMARK   15  A    between atoms: C_41  and  O_44
REMARK                            x       y       z     vdW  Elec       q    Type
REMARK                         _______ _______ _______ _____ _____    ______ ____
ROOT
ATOM      1  O   UNL     1       1.323   1.073  -3.073  0.00  0.00    -0.453 OA
ENDROOT
BRANCH   1   2
ATOM      2  C   UNL     1       0.050   0.599  -3.427  0.00  0.00    +0.214 A 
ATOM      3  C   UNL     1      -0.691   1.117  -4.642  0.00  0.00    +0.238 A 
ATOM      4  O   UNL     1      -0.448   2.208  -5.147  0.00  0.00    -0.283 OA
ATOM      5  C   UNL     1      -1.837   0.342  -5.137  0.00  0.00    +0.109 A 
ATOM      6  C   UNL     1      -2.380  -0.592  -4.272  0.00  0.00    +0.147 A 
ATOM      7  C   UNL     1      -3.514  -1.329  -4.633  0.00  0.00    +0.092 A 
ATOM      8  C   UNL     1      -4.100  -1.109  -5.875  0.00  0.00    +0.124 A 
ATOM      9  C   UNL     1      -3.576  -0.167  -6.751  0.00  0.00    +0.091 A 
ATOM     10  O   UNL     1      -1.883  -0.803  -3.019  0.00  0.00    -0.451 OA
ATOM     11  C   UNL     1      -2.443   0.559  -6.383  0.00  0.00    +0.135 A 
ATOM     12  C   UNL     1      -0.638  -0.283  -2.654  0.00  0.00    +0.181 A 
BRANCH  12  13
ATOM     13  C   UNL     1      -0.257  -0.795  -1.290  0.00  0.00    +0.025 A 
ATOM     14  C   UNL     1      -0.906  -1.955  -0.787  0.00  0.00    +0.015 A 
ATOM     15  C   UNL     1      -0.757  -2.382   0.537  0.00  0.00    +0.050 A 
ATOM     16  C   UNL     1       0.069  -1.668   1.381  0.00  0.00    +0.158 A 
ATOM     17  C   UNL     1       0.759  -0.557   0.907  0.00  0.00    +0.159 A 
ATOM     18  C   UNL     1       0.595  -0.111  -0.409  0.00  0.00    +0.060 A 
BRANCH  16  19
ATOM     19  O   UNL     1       0.182  -2.051   2.685  0.00  0.00    -0.503 OA
ATOM     20  H   UNL     1       0.783  -1.391   3.085  0.00  0.00    +0.292 HD
ENDBRANCH  16  19
BRANCH  17  21
ATOM     21  O   UNL     1       1.578   0.093   1.791  0.00  0.00    -0.503 OA
ATOM     22  H   UNL     1       1.994   0.853   1.336  0.00  0.00    +0.292 HD
ENDBRANCH  17  21
ENDBRANCH  12  13
BRANCH   8  23
ATOM     23  O   UNL     1      -5.204  -1.796  -6.280  0.00  0.00    -0.507 OA
ATOM     24  H   UNL     1      -5.446  -2.451  -5.604  0.00  0.00    +0.292 HD
ENDBRANCH   8  23
BRANCH  11  25
ATOM     25  O   UNL     1      -1.940   1.477  -7.259  0.00  0.00    -0.506 OA
ATOM     26  H   UNL     1      -2.503   1.530  -8.048  0.00  0.00    +0.292 HD
ENDBRANCH  11  25
ENDBRANCH   1   2
BRANCH   1  28
ATOM     27  C   UNL     1       2.986   2.911  -2.982  0.00  0.00    +0.221 C 
ATOM     28  C   UNL     1       1.813   2.246  -3.750  0.00  0.00    +0.340 C 
ATOM     29  O   UNL     1       2.279   1.947  -5.076  0.00  0.00    -0.337 OA
ATOM     30  C   UNL     1       2.469   3.154  -5.840  0.00  0.00    +0.198 C 
ATOM     31  C   UNL     1       3.636   3.960  -5.260  0.00  0.00    +0.171 C 
ATOM     32  C   UNL     1       3.381   4.193  -3.767  0.00  0.00    +0.180 C 
BRANCH  31  33
ATOM     33  O   UNL     1       4.870   3.285  -5.493  0.00  0.00    -0.387 OA
ATOM     34  H   UNL     1       4.731   2.340  -5.278  0.00  0.00    +0.210 HD
ENDBRANCH  31  33
BRANCH  32  35
ATOM     35  O   UNL     1       4.463   4.862  -3.118  0.00  0.00    -0.386 OA
ATOM     36  H   UNL     1       4.223   4.884  -2.171  0.00  0.00    +0.210 HD
ENDBRANCH  32  35
BRANCH  27  37
ATOM     37  O   UNL     1       2.748   3.192  -1.576  0.00  0.00    -0.337 OA
BRANCH  37  41
ATOM     38  C   UNL     1      -0.504   5.569  -2.806  0.00  0.00    +0.041 C 
ATOM     39  C   UNL     1       0.580   6.084  -1.866  0.00  0.00    +0.149 C 
ATOM     40  O   UNL     1       1.733   5.248  -1.882  0.00  0.00    -0.343 OA
ATOM     41  C   UNL     1       1.583   3.967  -1.292  0.00  0.00    +0.282 C 
ATOM     42  C   UNL     1       1.384   4.153   0.223  0.00  0.00    +0.201 C 
ATOM     43  C   UNL     1       0.147   5.053   0.450  0.00  0.00    +0.179 C 
ATOM     44  C   UNL     1       0.188   6.336  -0.404  0.00  0.00    +0.174 C 
BRANCH  42  45
ATOM     45  O   UNL     1       1.214   2.891   0.890  0.00  0.00    -0.384 OA
ATOM     46  H   UNL     1       0.260   2.816   1.102  0.00  0.00    +0.210 HD
ENDBRANCH  42  45
BRANCH  43  47
ATOM     47  O   UNL     1      -1.049   4.285   0.242  0.00  0.00    -0.386 OA
ATOM     48  H   UNL     1      -1.139   4.025  -0.689  0.00  0.00    +0.210 HD
ENDBRANCH  43  47
BRANCH  44  49
ATOM     49  O   UNL     1       1.188   7.203   0.163  0.00  0.00    -0.387 OA
ATOM     50  H   UNL     1       2.051   6.989  -0.244  0.00  0.00    +0.210 HD
ENDBRANCH  44  49
ENDBRANCH  37  41
ENDBRANCH  27  37
ENDBRANCH   1  28
TORSDOF 14
