REMARK  Name = 
REMARK  18 active torsions:
REMARK  status: ('A' for Active; 'I' for Inactive)
REMARK    1  A    between atoms: C_3  and  O_33
REMARK    2  A    between atoms: C_4  and  O_32
REMARK    3  A    between atoms: C_6  and  C_7
REMARK    4  A    between atoms: C_8  and  O_20
REMARK    5  A    between atoms: C_12  and  O_19
REMARK    6  A    between atoms: C_14  and  O_18
REMARK    7  A    between atoms: O_20  and  C_21
REMARK    8  A    between atoms: C_22  and  O_31
REMARK    9  A    between atoms: C_23  and  O_30
REMARK   10  A    between atoms: C_24  and  O_29
REMARK   11  A    between atoms: C_25  and  C_27
REMARK   12  A    between atoms: C_27  and  O_28
REMARK   13  A    between atoms: O_33  and  C_34
REMARK   14  A    between atoms: C_35  and  O_44
REMARK   15  A    between atoms: C_36  and  O_43
REMARK   16  A    between atoms: C_37  and  O_42
REMARK   17  A    between atoms: C_38  and  C_40
REMARK   18  A    between atoms: C_40  and  O_41
REMARK                            x       y       z     vdW  Elec       q    Type
REMARK                         _______ _______ _______ _____ _____    ______ ____
ROOT
ATOM      1  C   UNL     1      -1.266  -2.624   0.286  0.00  0.00    +0.181 A 
ATOM      2  O   UNL     1      -0.541  -3.785   0.436  0.00  0.00    -0.451 OA
ATOM      3  C   UNL     1      -1.150  -4.992   0.161  0.00  0.00    +0.147 A 
ATOM      4  C   UNL     1      -2.494  -5.082  -0.202  0.00  0.00    +0.109 A 
ATOM      5  C   UNL     1      -3.052  -6.349  -0.475  0.00  0.00    +0.135 A 
ATOM      6  C   UNL     1      -2.272  -7.509  -0.409  0.00  0.00    +0.091 A 
ATOM      7  C   UNL     1      -0.937  -7.397  -0.043  0.00  0.00    +0.124 A 
ATOM      8  C   UNL     1      -3.265  -3.835  -0.308  0.00  0.00    +0.238 A 
ATOM      9  O   UNL     1      -4.467  -3.891  -0.538  0.00  0.00    -0.283 OA
ATOM     10  C   UNL     1      -0.375  -6.154   0.252  0.00  0.00    +0.092 A 
ATOM     11  C   UNL     1      -2.557  -2.528  -0.128  0.00  0.00    +0.214 A 
ENDROOT
BRANCH   1  13
ATOM     12  C   UNL     1      -0.870  -0.635   1.733  0.00  0.00    +0.015 A 
ATOM     13  C   UNL     1      -0.524  -1.389   0.606  0.00  0.00    +0.025 A 
ATOM     14  C   UNL     1       0.444  -0.891  -0.267  0.00  0.00    +0.060 A 
ATOM     15  C   UNL     1       0.942   0.405  -0.086  0.00  0.00    +0.159 A 
ATOM     16  C   UNL     1       0.467   1.232   0.939  0.00  0.00    +0.165 A 
ATOM     17  C   UNL     1      -0.375   0.662   1.897  0.00  0.00    +0.050 A 
BRANCH  15  18
ATOM     18  O   UNL     1       1.890   0.843  -0.966  0.00  0.00    -0.503 OA
ATOM     19  H   UNL     1       2.210   1.690  -0.604  0.00  0.00    +0.292 HD
ENDBRANCH  15  18
BRANCH  16  20
ATOM     20  O   UNL     1       0.849   2.565   0.939  0.00  0.00    -0.457 OA
BRANCH  20  21
ATOM     21  C   UNL     1      -0.215   3.473   1.339  0.00  0.00    +0.339 C 
ATOM     22  O   UNL     1      -0.411   4.521   0.367  0.00  0.00    -0.331 OA
ATOM     23  C   UNL     1       0.133   5.813   0.657  0.00  0.00    +0.179 C 
ATOM     24  C   UNL     1      -0.293   6.286   2.049  0.00  0.00    +0.177 C 
ATOM     25  C   UNL     1       0.345   5.351   3.055  0.00  0.00    +0.180 C 
ATOM     26  C   UNL     1      -0.110   3.917   2.835  0.00  0.00    +0.214 C 
BRANCH  26  27
ATOM     27  O   UNL     1       0.719   3.044   3.622  0.00  0.00    -0.383 OA
ATOM     28  H   UNL     1       1.043   3.567   4.380  0.00  0.00    +0.210 HD
ENDBRANCH  26  27
BRANCH  25  29
ATOM     29  O   UNL     1      -0.069   5.759   4.379  0.00  0.00    -0.386 OA
ATOM     30  H   UNL     1      -1.012   6.033   4.291  0.00  0.00    +0.210 HD
ENDBRANCH  25  29
BRANCH  24  31
ATOM     31  O   UNL     1      -1.714   6.215   2.256  0.00  0.00    -0.386 OA
ATOM     32  H   UNL     1      -2.134   6.404   1.388  0.00  0.00    +0.210 HD
ENDBRANCH  24  31
BRANCH  23  33
ATOM     33  C   UNL     1      -0.386   6.798  -0.404  0.00  0.00    +0.190 C 
BRANCH  33  34
ATOM     34  O   UNL     1      -1.815   6.844  -0.376  0.00  0.00    -0.392 OA
ATOM     35  H   UNL     1      -2.118   6.040  -0.844  0.00  0.00    +0.210 HD
ENDBRANCH  33  34
ENDBRANCH  23  33
ENDBRANCH  20  21
ENDBRANCH  16  20
ENDBRANCH   1  13
BRANCH   7  36
ATOM     36  O   UNL     1      -0.131  -8.496   0.033  0.00  0.00    -0.507 OA
ATOM     37  H   UNL     1      -0.640  -9.282  -0.228  0.00  0.00    +0.292 HD
ENDBRANCH   7  36
BRANCH   5  38
ATOM     38  O   UNL     1      -4.363  -6.541  -0.826  0.00  0.00    -0.506 OA
ATOM     39  H   UNL     1      -4.829  -5.679  -0.786  0.00  0.00    +0.292 HD
ENDBRANCH   5  38
BRANCH  11  40
ATOM     40  O   UNL     1      -3.275  -1.335  -0.168  0.00  0.00    -0.453 OA
BRANCH  40  41
ATOM     41  C   UNL     1      -3.518  -0.735  -1.475  0.00  0.00    +0.340 C 
ATOM     42  O   UNL     1      -3.388   0.705  -1.419  0.00  0.00    -0.331 OA
ATOM     43  C   UNL     1      -4.525   1.535  -1.064  0.00  0.00    +0.179 C 
ATOM     44  C   UNL     1      -5.929   0.883  -0.914  0.00  0.00    +0.177 C 
ATOM     45  C   UNL     1      -5.925  -0.649  -0.960  0.00  0.00    +0.180 C 
ATOM     46  C   UNL     1      -4.911  -1.058  -2.041  0.00  0.00    +0.214 C 
BRANCH  46  47
ATOM     47  O   UNL     1      -5.034  -2.381  -2.543  0.00  0.00    -0.383 OA
ATOM     48  H   UNL     1      -4.885  -3.005  -1.807  0.00  0.00    +0.210 HD
ENDBRANCH  46  47
BRANCH  45  49
ATOM     49  O   UNL     1      -7.246  -1.113  -1.267  0.00  0.00    -0.386 OA
ATOM     50  H   UNL     1      -7.882  -0.478  -0.885  0.00  0.00    +0.210 HD
ENDBRANCH  45  49
BRANCH  44  51
ATOM     51  O   UNL     1      -6.854   1.367  -1.915  0.00  0.00    -0.386 OA
ATOM     52  H   UNL     1      -6.984   0.666  -2.585  0.00  0.00    +0.210 HD
ENDBRANCH  44  51
BRANCH  43  53
ATOM     53  C   UNL     1      -4.577   2.708  -2.079  0.00  0.00    +0.190 C 
BRANCH  53  54
ATOM     54  O   UNL     1      -3.330   3.404  -2.133  0.00  0.00    -0.392 OA
ATOM     55  H   UNL     1      -2.642   2.731  -1.971  0.00  0.00    +0.210 HD
ENDBRANCH  53  54
ENDBRANCH  43  53
ENDBRANCH  40  41
ENDBRANCH  11  40
TORSDOF 18
