REMARK  Name = 
REMARK  20 active torsions:
REMARK  status: ('A' for Active; 'I' for Inactive)
REMARK    1  A    between atoms: C_3  and  O_60
REMARK    2  A    between atoms: C_6  and  C_7
REMARK    3  A    between atoms: C_8  and  C_9
REMARK    4  A    between atoms: C_9  and  O_11
REMARK    5  A    between atoms: O_11  and  C_12
REMARK    6  A    between atoms: C_12  and  C_13
REMARK    7  A    between atoms: C_15  and  O_59
REMARK    8  A    between atoms: C_17  and  O_47
REMARK    9  A    between atoms: C_19  and  O_46
REMARK   10  A    between atoms: C_21  and  O_24
REMARK   11  A    between atoms: O_24  and  C_25
REMARK   12  A    between atoms: C_26  and  C_38
REMARK   13  A    between atoms: C_30  and  O_37
REMARK   14  A    between atoms: C_32  and  O_36
REMARK   15  A    between atoms: C_40  and  O_45
REMARK   16  A    between atoms: C_41  and  O_44
REMARK   17  A    between atoms: O_47  and  C_48
REMARK   18  A    between atoms: C_48  and  C_50
REMARK   19  A    between atoms: C_51  and  C_52
REMARK   20  A    between atoms: C_55  and  O_58
REMARK                            x       y       z     vdW  Elec       q    Type
REMARK                         _______ _______ _______ _____ _____    ______ ____
ROOT
ATOM      1  C   UNL     1      -7.584   4.060  -0.501  0.00  0.00    +0.192 C 
ATOM      2  O   UNL     1      -8.411   3.044  -1.087  0.00  0.00    -0.330 OA
ATOM      3  C   UNL     1      -8.109   2.856  -2.492  0.00  0.00    +0.341 C 
ATOM      4  C   UNL     1      -8.476   4.134  -3.274  0.00  0.00    +0.226 C 
ATOM      5  C   UNL     1      -7.762   5.332  -2.664  0.00  0.00    +0.242 C 
ATOM      6  C   UNL     1      -7.910   5.416  -1.148  0.00  0.00    +0.190 C 
ENDROOT
BRANCH   6   7
ATOM      7  O   UNL     1      -7.036   6.461  -0.704  0.00  0.00    -0.385 OA
ATOM      8  H   UNL     1      -6.927   6.368   0.257  0.00  0.00    +0.210 HD
ENDBRANCH   6   7
BRANCH   4   9
ATOM      9  O   UNL     1      -8.176   4.036  -4.680  0.00  0.00    -0.382 OA
ATOM     10  H   UNL     1      -7.283   4.402  -4.837  0.00  0.00    +0.210 HD
ENDBRANCH   4   9
BRANCH   5  11
ATOM     11  O   UNL     1      -8.347   6.531  -3.216  0.00  0.00    -0.453 OA
BRANCH  11  12
ATOM     12  C   UNL     1      -7.493   7.336  -3.882  0.00  0.00    +0.332 C 
ATOM     13  O   UNL     1      -6.331   7.096  -4.170  0.00  0.00    -0.246 OA
BRANCH  12  14
ATOM     14  C   UNL     1      -8.212   8.576  -4.206  0.00  0.00    +0.092 C 
ATOM     15  C   UNL     1      -7.543   9.542  -4.850  0.00  0.00    +0.015 C 
BRANCH  15  16
ATOM     16  C   UNL     1      -8.189  10.811  -5.140  0.00  0.00    -0.025 A 
ATOM     17  C   UNL     1      -8.985  10.956  -6.280  0.00  0.00    +0.011 A 
ATOM     18  C   UNL     1      -9.645  12.161  -6.512  0.00  0.00    +0.046 A 
ATOM     19  C   UNL     1      -9.511  13.205  -5.603  0.00  0.00    +0.117 A 
ATOM     20  C   UNL     1      -8.706  13.077  -4.475  0.00  0.00    +0.046 A 
ATOM     21  C   UNL     1      -8.042  11.874  -4.244  0.00  0.00    +0.011 A 
BRANCH  19  22
ATOM     22  O   UNL     1     -10.206  14.351  -5.847  0.00  0.00    -0.507 OA
ATOM     23  H   UNL     1     -10.127  14.928  -5.070  0.00  0.00    +0.292 HD
ENDBRANCH  19  22
ENDBRANCH  15  16
ENDBRANCH  12  14
ENDBRANCH  11  12
ENDBRANCH   5  11
BRANCH   3  24
ATOM     24  O   UNL     1      -8.929   1.803  -2.994  0.00  0.00    -0.453 OA
BRANCH  24  25
ATOM     25  C   UNL     1      -8.435   0.757  -3.753  0.00  0.00    +0.214 A 
ATOM     26  C   UNL     1      -6.979   0.510  -3.987  0.00  0.00    +0.238 A 
ATOM     27  O   UNL     1      -6.155   1.416  -3.977  0.00  0.00    -0.283 OA
ATOM     28  C   UNL     1      -6.593  -0.873  -4.321  0.00  0.00    +0.109 A 
ATOM     29  C   UNL     1      -7.602  -1.730  -4.759  0.00  0.00    +0.147 A 
ATOM     30  C   UNL     1      -7.306  -3.061  -5.074  0.00  0.00    +0.092 A 
ATOM     31  C   UNL     1      -5.992  -3.513  -4.969  0.00  0.00    +0.124 A 
ATOM     32  C   UNL     1      -4.973  -2.659  -4.560  0.00  0.00    +0.091 A 
ATOM     33  O   UNL     1      -8.901  -1.307  -4.939  0.00  0.00    -0.451 OA
ATOM     34  C   UNL     1      -5.274  -1.338  -4.234  0.00  0.00    +0.135 A 
ATOM     35  C   UNL     1      -9.286  -0.098  -4.364  0.00  0.00    +0.181 A 
BRANCH  35  36
ATOM     36  C   UNL     1     -10.747   0.199  -4.487  0.00  0.00    +0.025 A 
ATOM     37  C   UNL     1     -11.714  -0.817  -4.401  0.00  0.00    +0.015 A 
ATOM     38  C   UNL     1     -13.083  -0.521  -4.499  0.00  0.00    +0.050 A 
ATOM     39  C   UNL     1     -13.488   0.789  -4.690  0.00  0.00    +0.158 A 
ATOM     40  C   UNL     1     -12.553   1.807  -4.817  0.00  0.00    +0.159 A 
ATOM     41  C   UNL     1     -11.190   1.514  -4.747  0.00  0.00    +0.060 A 
BRANCH  40  42
ATOM     42  O   UNL     1     -13.008   3.084  -5.000  0.00  0.00    -0.503 OA
ATOM     43  H   UNL     1     -12.238   3.679  -5.018  0.00  0.00    +0.292 HD
ENDBRANCH  40  42
BRANCH  39  44
ATOM     44  O   UNL     1     -14.823   1.085  -4.748  0.00  0.00    -0.503 OA
ATOM     45  H   UNL     1     -14.857   2.058  -4.849  0.00  0.00    +0.292 HD
ENDBRANCH  39  44
ENDBRANCH  35  36
BRANCH  34  46
ATOM     46  O   UNL     1      -4.265  -0.521  -3.808  0.00  0.00    -0.506 OA
ATOM     47  H   UNL     1      -3.404  -0.944  -3.963  0.00  0.00    +0.292 HD
ENDBRANCH  34  46
BRANCH  31  48
ATOM     48  O   UNL     1      -5.641  -4.797  -5.260  0.00  0.00    -0.507 OA
ATOM     49  H   UNL     1      -6.433  -5.300  -5.512  0.00  0.00    +0.292 HD
ENDBRANCH  31  48
ENDBRANCH  24  25
ENDBRANCH   3  24
BRANCH   1  50
ATOM     50  C   UNL     1      -7.808   4.122   1.026  0.00  0.00    +0.266 C 
BRANCH  50  51
ATOM     51  O   UNL     1      -6.993   5.163   1.624  0.00  0.00    -0.459 OA
BRANCH  51  52
ATOM     52  C   UNL     1      -5.707   4.823   1.919  0.00  0.00    +0.332 C 
ATOM     53  O   UNL     1      -5.231   3.705   1.836  0.00  0.00    -0.246 OA
BRANCH  52  55
ATOM     54  C   UNL     1      -3.613   6.002   2.356  0.00  0.00    +0.015 C 
ATOM     55  C   UNL     1      -4.949   6.066   2.225  0.00  0.00    +0.092 C 
BRANCH  54  57
ATOM     56  C   UNL     1      -2.861   8.397   1.998  0.00  0.00    +0.011 A 
ATOM     57  C   UNL     1      -2.689   7.129   2.575  0.00  0.00    -0.025 A 
ATOM     58  C   UNL     1      -1.515   6.885   3.305  0.00  0.00    +0.011 A 
ATOM     59  C   UNL     1      -0.542   7.877   3.461  0.00  0.00    +0.046 A 
ATOM     60  C   UNL     1      -0.728   9.123   2.878  0.00  0.00    +0.117 A 
ATOM     61  C   UNL     1      -1.883   9.393   2.150  0.00  0.00    +0.046 A 
BRANCH  60  62
ATOM     62  O   UNL     1       0.259  10.050   3.034  0.00  0.00    -0.507 OA
ATOM     63  H   UNL     1       0.039  10.838   2.510  0.00  0.00    +0.292 HD
ENDBRANCH  60  62
ENDBRANCH  54  57
ENDBRANCH  52  55
ENDBRANCH  51  52
ENDBRANCH  50  51
ENDBRANCH   1  50
TORSDOF 20
