REMARK  Name = 
REMARK  16 active torsions:
REMARK  status: ('A' for Active; 'I' for Inactive)
REMARK    1  A    between atoms: C_3  and  O_49
REMARK    2  A    between atoms: C_6  and  C_7
REMARK    3  A    between atoms: C_8  and  C_9
REMARK    4  A    between atoms: C_9  and  O_11
REMARK    5  A    between atoms: O_11  and  C_12
REMARK    6  A    between atoms: C_14  and  O_48
REMARK    7  A    between atoms: C_16  and  C_46
REMARK    8  A    between atoms: C_19  and  O_24
REMARK    9  A    between atoms: C_21  and  O_23
REMARK   10  A    between atoms: O_24  and  C_25
REMARK   11  A    between atoms: C_26  and  C_38
REMARK   12  A    between atoms: C_30  and  O_37
REMARK   13  A    between atoms: C_32  and  O_36
REMARK   14  A    between atoms: C_40  and  O_45
REMARK   15  A    between atoms: C_41  and  O_44
REMARK   16  A    between atoms: C_46  and  O_47
REMARK                            x       y       z     vdW  Elec       q    Type
REMARK                         _______ _______ _______ _____ _____    ______ ____
ROOT
ATOM      1  C   UNL     1      -7.059   2.058  -0.539  0.00  0.00    +0.242 C 
ATOM      2  C   UNL     1      -7.521   0.813  -1.326  0.00  0.00    +0.226 C 
ATOM      3  C   UNL     1      -7.072   0.812  -2.807  0.00  0.00    +0.341 C 
ATOM      4  O   UNL     1      -7.286   2.088  -3.446  0.00  0.00    -0.331 OA
ATOM      5  C   UNL     1      -6.887   3.285  -2.754  0.00  0.00    +0.180 C 
ATOM      6  C   UNL     1      -7.428   3.333  -1.314  0.00  0.00    +0.189 C 
ENDROOT
BRANCH   6   7
ATOM      7  O   UNL     1      -8.855   3.504  -1.340  0.00  0.00    -0.385 OA
ATOM      8  H   UNL     1      -9.240   2.675  -1.696  0.00  0.00    +0.210 HD
ENDBRANCH   6   7
BRANCH   2   9
ATOM      9  O   UNL     1      -8.971   0.802  -1.319  0.00  0.00    -0.382 OA
ATOM     10  H   UNL     1      -9.256   0.279  -0.547  0.00  0.00    +0.210 HD
ENDBRANCH   2   9
BRANCH   3  11
ATOM     11  O   UNL     1      -5.750   0.356  -3.067  0.00  0.00    -0.453 OA
BRANCH  11  12
ATOM     12  C   UNL     1      -5.311  -0.941  -2.876  0.00  0.00    +0.214 A 
ATOM     13  C   UNL     1      -3.914  -0.980  -2.286  0.00  0.00    +0.238 A 
ATOM     14  O   UNL     1      -3.325   0.086  -2.096  0.00  0.00    -0.283 OA
ATOM     15  C   UNL     1      -3.325  -2.273  -1.899  0.00  0.00    +0.109 A 
ATOM     16  C   UNL     1      -4.075  -3.400  -2.168  0.00  0.00    +0.147 A 
ATOM     17  C   UNL     1      -3.655  -4.670  -1.753  0.00  0.00    +0.092 A 
ATOM     18  C   UNL     1      -2.449  -4.808  -1.079  0.00  0.00    +0.124 A 
ATOM     19  C   UNL     1      -1.660  -3.697  -0.834  0.00  0.00    +0.091 A 
ATOM     20  O   UNL     1      -5.239  -3.353  -2.871  0.00  0.00    -0.451 OA
ATOM     21  C   UNL     1      -2.092  -2.435  -1.258  0.00  0.00    +0.135 A 
ATOM     22  C   UNL     1      -5.870  -2.143  -3.191  0.00  0.00    +0.181 A 
BRANCH  22  23
ATOM     23  C   UNL     1      -7.137  -2.501  -3.918  0.00  0.00    +0.025 A 
ATOM     24  C   UNL     1      -7.729  -3.761  -3.616  0.00  0.00    +0.015 A 
ATOM     25  C   UNL     1      -8.856  -4.250  -4.280  0.00  0.00    +0.050 A 
ATOM     26  C   UNL     1      -9.416  -3.488  -5.280  0.00  0.00    +0.158 A 
ATOM     27  C   UNL     1      -8.842  -2.268  -5.637  0.00  0.00    +0.159 A 
ATOM     28  C   UNL     1      -7.703  -1.776  -4.978  0.00  0.00    +0.060 A 
BRANCH  27  29
ATOM     29  O   UNL     1      -9.436  -1.598  -6.673  0.00  0.00    -0.503 OA
ATOM     30  H   UNL     1      -8.924  -0.788  -6.853  0.00  0.00    +0.292 HD
ENDBRANCH  27  29
BRANCH  26  31
ATOM     31  O   UNL     1     -10.517  -3.965  -5.928  0.00  0.00    -0.503 OA
ATOM     32  H   UNL     1     -10.718  -3.297  -6.611  0.00  0.00    +0.292 HD
ENDBRANCH  26  31
ENDBRANCH  22  23
BRANCH  18  33
ATOM     33  O   UNL     1      -1.994  -6.020  -0.654  0.00  0.00    -0.507 OA
ATOM     34  H   UNL     1      -2.618  -6.716  -0.917  0.00  0.00    +0.292 HD
ENDBRANCH  18  33
BRANCH  21  35
ATOM     35  O   UNL     1      -1.263  -1.377  -1.061  0.00  0.00    -0.506 OA
ATOM     36  H   UNL     1      -0.654  -1.570  -0.327  0.00  0.00    +0.292 HD
ENDBRANCH  21  35
ENDBRANCH  11  12
ENDBRANCH   3  11
BRANCH   5  37
ATOM     37  C   UNL     1      -5.381   3.597  -2.866  0.00  0.00    +0.190 C 
BRANCH  37  38
ATOM     38  O   UNL     1      -5.084   4.919  -2.408  0.00  0.00    -0.392 OA
ATOM     39  H   UNL     1      -5.068   4.917  -1.435  0.00  0.00    +0.210 HD
ENDBRANCH  37  38
ENDBRANCH   5  37
BRANCH   1  40
ATOM     40  O   UNL     1      -5.643   2.086  -0.281  0.00  0.00    -0.453 OA
BRANCH  40  41
ATOM     41  C   UNL     1      -5.163   1.171   0.595  0.00  0.00    +0.332 C 
ATOM     42  O   UNL     1      -5.818   0.319   1.170  0.00  0.00    -0.246 OA
BRANCH  41  44
ATOM     43  C   UNL     1      -2.960   0.493   1.403  0.00  0.00    +0.015 C 
ATOM     44  C   UNL     1      -3.704   1.369   0.711  0.00  0.00    +0.092 C 
BRANCH  43  46
ATOM     45  C   UNL     1      -0.676   1.078   0.502  0.00  0.00    +0.011 A 
ATOM     46  C   UNL     1      -1.493   0.538   1.509  0.00  0.00    -0.025 A 
ATOM     47  C   UNL     1      -0.879  -0.090   2.602  0.00  0.00    +0.011 A 
ATOM     48  C   UNL     1       0.513  -0.173   2.688  0.00  0.00    +0.046 A 
ATOM     49  C   UNL     1       1.300   0.359   1.675  0.00  0.00    +0.117 A 
ATOM     50  C   UNL     1       0.718   0.988   0.582  0.00  0.00    +0.046 A 
BRANCH  49  51
ATOM     51  O   UNL     1       2.651   0.221   1.781  0.00  0.00    -0.507 OA
ATOM     52  H   UNL     1       3.069   0.632   1.006  0.00  0.00    +0.292 HD
ENDBRANCH  49  51
ENDBRANCH  43  46
ENDBRANCH  41  44
ENDBRANCH  40  41
ENDBRANCH   1  40
TORSDOF 16
