REMARK  Name = 
REMARK  14 active torsions:
REMARK  status: ('A' for Active; 'I' for Inactive)
REMARK    1  A    between atoms: C_1  and  C_2
REMARK    2  A    between atoms: C_2  and  C_3
REMARK    3  A    between atoms: C_3  and  C_4
REMARK    4  A    between atoms: C_4  and  C_5
REMARK    5  A    between atoms: C_5  and  C_6
REMARK    6  A    between atoms: C_6  and  C_7
REMARK    7  A    between atoms: C_7  and  C_8
REMARK    8  A    between atoms: C_8  and  O_10
REMARK    9  A    between atoms: O_10  and  C_11
REMARK   10  A    between atoms: C_12  and  C_24
REMARK   11  A    between atoms: C_16  and  O_23
REMARK   12  A    between atoms: C_18  and  O_22
REMARK   13  A    between atoms: C_26  and  O_31
REMARK   14  A    between atoms: C_27  and  O_30
REMARK                            x       y       z     vdW  Elec       q    Type
REMARK                         _______ _______ _______ _____ _____    ______ ____
ROOT
ATOM      1  C   UNL     1      10.672  -3.876  -4.018  0.00  0.00    +0.221 A 
ATOM      2  C   UNL     1      11.345  -4.536  -2.867  0.00  0.00    +0.239 A 
ATOM      3  O   UNL     1      10.676  -5.124  -2.026  0.00  0.00    -0.283 OA
ATOM      4  C   UNL     1      12.821  -4.479  -2.846  0.00  0.00    +0.109 A 
ATOM      5  C   UNL     1      13.471  -3.929  -3.955  0.00  0.00    +0.147 A 
ATOM      6  C   UNL     1      14.867  -3.879  -4.007  0.00  0.00    +0.092 A 
ATOM      7  C   UNL     1      15.606  -4.380  -2.941  0.00  0.00    +0.124 A 
ATOM      8  C   UNL     1      14.977  -4.923  -1.827  0.00  0.00    +0.091 A 
ATOM      9  O   UNL     1      12.808  -3.421  -5.047  0.00  0.00    -0.451 OA
ATOM     10  C   UNL     1      13.584  -4.972  -1.778  0.00  0.00    +0.135 A 
ATOM     11  C   UNL     1      11.427  -3.402  -5.022  0.00  0.00    +0.182 A 
ENDROOT
BRANCH  11  12
ATOM     12  C   UNL     1      10.818  -2.826  -6.228  0.00  0.00    +0.025 A 
ATOM     13  C   UNL     1      10.518  -3.655  -7.323  0.00  0.00    +0.015 A 
ATOM     14  C   UNL     1       9.895  -3.131  -8.458  0.00  0.00    +0.050 A 
ATOM     15  C   UNL     1       9.575  -1.783  -8.491  0.00  0.00    +0.158 A 
ATOM     16  C   UNL     1       9.877  -0.951  -7.415  0.00  0.00    +0.159 A 
ATOM     17  C   UNL     1      10.500  -1.461  -6.280  0.00  0.00    +0.060 A 
BRANCH  15  18
ATOM     18  O   UNL     1       8.946  -1.275  -9.592  0.00  0.00    -0.503 OA
ATOM     19  H   UNL     1       8.803  -0.331  -9.380  0.00  0.00    +0.292 HD
ENDBRANCH  15  18
BRANCH  16  20
ATOM     20  O   UNL     1       9.531   0.369  -7.519  0.00  0.00    -0.503 OA
ATOM     21  H   UNL     1       9.795   0.818  -6.697  0.00  0.00    +0.292 HD
ENDBRANCH  16  20
ENDBRANCH  11  12
BRANCH   7  22
ATOM     22  O   UNL     1      16.969  -4.359  -2.946  0.00  0.00    -0.507 OA
ATOM     23  H   UNL     1      17.281  -3.966  -3.779  0.00  0.00    +0.292 HD
ENDBRANCH   7  22
BRANCH  10  24
ATOM     24  O   UNL     1      12.984  -5.504  -0.672  0.00  0.00    -0.506 OA
ATOM     25  H   UNL     1      13.652  -5.798  -0.033  0.00  0.00    +0.292 HD
ENDBRANCH  10  24
BRANCH   1  26
ATOM     26  O   UNL     1       9.271  -3.880  -4.047  0.00  0.00    -0.418 OA
BRANCH  26  27
ATOM     27  C   UNL     1       8.763  -3.161  -2.994  0.00  0.00    +0.313 C 
ATOM     28  O   UNL     1       9.310  -2.210  -2.447  0.00  0.00    -0.250 OA
BRANCH  27  29
ATOM     29  C   UNL     1       7.381  -3.665  -2.645  0.00  0.00    +0.121 C 
BRANCH  29  30
ATOM     30  C   UNL     1       7.425  -5.133  -2.228  0.00  0.00    +0.011 C 
BRANCH  30  31
ATOM     31  C   UNL     1       6.040  -5.681  -1.888  0.00  0.00    +0.001 C 
BRANCH  31  32
ATOM     32  C   UNL     1       6.125  -7.159  -1.498  0.00  0.00    +0.000 C 
BRANCH  32  33
ATOM     33  C   UNL     1       4.749  -7.730  -1.158  0.00  0.00    -0.000 C 
BRANCH  33  35
ATOM     34  C   UNL     1       3.476  -9.777  -0.428  0.00  0.00    +0.004 C 
ATOM     35  C   UNL     1       4.843  -9.205  -0.769  0.00  0.00    -0.003 C 
ENDBRANCH  33  35
ENDBRANCH  32  33
ENDBRANCH  31  32
ENDBRANCH  30  31
ENDBRANCH  29  30
ENDBRANCH  27  29
ENDBRANCH  26  27
ENDBRANCH   1  26
TORSDOF 13
