REMARK  Name = 
REMARK  7 active torsions:
REMARK  status: ('A' for Active; 'I' for Inactive)
REMARK    1  A    between atoms: C_3  and  O_26
REMARK    2  A    between atoms: C_4  and  O_25
REMARK    3  A    between atoms: C_6  and  C_7
REMARK    4  A    between atoms: C_8  and  O_20
REMARK    5  A    between atoms: C_12  and  O_19
REMARK    6  A    between atoms: C_14  and  O_18
REMARK    7  A    between atoms: O_20  and  S_21
REMARK                            x       y       z     vdW  Elec       q    Type
REMARK                         _______ _______ _______ _____ _____    ______ ____
ROOT
ATOM      1  C   UNL     1      -1.222  -2.444  -0.292  0.00  0.00    +0.184 A 
ATOM      2  O   UNL     1      -0.476  -3.624  -0.276  0.00  0.00    -0.451 OA
ATOM      3  C   UNL     1      -1.120  -4.832  -0.349  0.00  0.00    +0.147 A 
ATOM      4  C   UNL     1      -2.479  -4.941  -0.613  0.00  0.00    +0.109 A 
ATOM      5  C   UNL     1      -3.074  -6.205  -0.681  0.00  0.00    +0.135 A 
ATOM      6  C   UNL     1      -2.321  -7.361  -0.474  0.00  0.00    +0.091 A 
ATOM      7  C   UNL     1      -0.965  -7.237  -0.197  0.00  0.00    +0.124 A 
ATOM      8  C   UNL     1      -3.257  -3.705  -0.756  0.00  0.00    +0.241 A 
ATOM      9  O   UNL     1      -4.459  -3.800  -0.988  0.00  0.00    -0.283 OA
ATOM     10  C   UNL     1      -0.358  -5.987  -0.139  0.00  0.00    +0.092 A 
ATOM     11  C   UNL     1      -2.563  -2.408  -0.528  0.00  0.00    +0.244 A 
ENDROOT
BRANCH   1  13
ATOM     12  C   UNL     1      -0.857  -0.097   0.558  0.00  0.00    +0.015 A 
ATOM     13  C   UNL     1      -0.351  -1.258  -0.035  0.00  0.00    +0.025 A 
ATOM     14  C   UNL     1       1.002  -1.236  -0.425  0.00  0.00    +0.060 A 
ATOM     15  C   UNL     1       1.726  -0.045  -0.373  0.00  0.00    +0.159 A 
ATOM     16  C   UNL     1       1.103   1.145  -0.020  0.00  0.00    +0.158 A 
ATOM     17  C   UNL     1      -0.190   1.127   0.462  0.00  0.00    +0.050 A 
BRANCH  15  18
ATOM     18  O   UNL     1       3.056  -0.048  -0.670  0.00  0.00    -0.503 OA
ATOM     19  H   UNL     1       3.308   0.894  -0.760  0.00  0.00    +0.292 HD
ENDBRANCH  15  18
BRANCH  16  20
ATOM     20  O   UNL     1       1.799   2.312  -0.106  0.00  0.00    -0.503 OA
ATOM     21  H   UNL     1       1.164   2.980  -0.441  0.00  0.00    +0.292 HD
ENDBRANCH  16  20
ENDBRANCH   1  13
BRANCH   5  22
ATOM     22  O   UNL     1      -4.409  -6.392  -0.930  0.00  0.00    -0.506 OA
ATOM     23  H   UNL     1      -4.819  -5.505  -1.067  0.00  0.00    +0.292 HD
ENDBRANCH   5  22
BRANCH   7  24
ATOM     24  O   UNL     1      -0.194  -8.340   0.031  0.00  0.00    -0.507 OA
ATOM     25  H   UNL     1      -0.742  -9.134  -0.098  0.00  0.00    +0.292 HD
ENDBRANCH   7  24
BRANCH  11  26
ATOM     26  O   UNL     1      -3.426  -1.339  -0.354  0.00  0.00    -0.353 OA
BRANCH  26  27
ATOM     27  S   UNL     1      -3.505   0.028  -1.254  0.00  0.00    +0.043 S 
ATOM     28  O   UNL     1      -4.787  -0.058  -1.938  0.00  0.00    -0.259 OA
ATOM     29  O   UNL     1      -2.337  -0.016  -2.129  0.00  0.00    -0.336 OA
ATOM     30  O   UNL     1      -3.442   1.082  -0.237  0.00  0.00    -0.336 OA
ENDBRANCH  26  27
ENDBRANCH  11  26
TORSDOF 7
REMARK  Name = 
REMARK  7 active torsions:
REMARK  status: ('A' for Active; 'I' for Inactive)
REMARK    1  A    between atoms: C_3  and  O_26
REMARK    2  A    between atoms: C_4  and  O_25
REMARK    3  A    between atoms: C_6  and  C_7
REMARK    4  A    between atoms: C_8  and  O_20
REMARK    5  A    between atoms: C_12  and  O_19
REMARK    6  A    between atoms: C_14  and  O_18
REMARK    7  A    between atoms: O_20  and  S_21
REMARK                            x       y       z     vdW  Elec       q    Type
REMARK                         _______ _______ _______ _____ _____    ______ ____
ROOT
ATOM      1  K   UNL     1       1.150  -0.107   2.983  0.00  0.00    +0.000 K 
ENDROOT
TORSDOF 0
