REMARK  Name = 
REMARK  18 active torsions:
REMARK  status: ('A' for Active; 'I' for Inactive)
REMARK    1  A    between atoms: C_1  and  C_2
REMARK    2  A    between atoms: C_4  and  O_53
REMARK    3  A    between atoms: C_6  and  O_52
REMARK    4  A    between atoms: C_8  and  O_51
REMARK    5  A    between atoms: C_10  and  O_13
REMARK    6  A    between atoms: O_13  and  C_14
REMARK    7  A    between atoms: C_14  and  C_15
REMARK    8  A    between atoms: C_17  and  O_50
REMARK    9  A    between atoms: C_19  and  O_49
REMARK   10  A    between atoms: C_21  and  O_48
REMARK   11  A    between atoms: C_23  and  O_26
REMARK   12  A    between atoms: O_26  and  C_27
REMARK   13  A    between atoms: C_28  and  C_40
REMARK   14  A    between atoms: C_32  and  O_39
REMARK   15  A    between atoms: C_42  and  O_47
REMARK   16  A    between atoms: C_43  and  O_46
REMARK   17  A    between atoms: O_54  and  S_55
REMARK   18  A    between atoms: S_55  and  O_58
REMARK                            x       y       z     vdW  Elec       q    Type
REMARK                         _______ _______ _______ _____ _____    ______ ____
ROOT
ATOM      1  C   UNL     1       3.240   4.429  -4.428  0.00  0.00    +0.179 C 
ATOM      2  O   UNL     1       3.717   5.650  -3.826  0.00  0.00    -0.331 OA
ATOM      3  C   UNL     1       2.680   6.293  -3.062  0.00  0.00    +0.340 C 
ATOM      4  C   UNL     1       1.620   6.825  -4.059  0.00  0.00    +0.214 C 
ATOM      5  C   UNL     1       1.057   5.590  -4.811  0.00  0.00    +0.180 C 
ATOM      6  C   UNL     1       2.174   4.773  -5.478  0.00  0.00    +0.177 C 
ENDROOT
BRANCH   4   7
ATOM      7  O   UNL     1       0.566   7.523  -3.377  0.00  0.00    -0.383 OA
ATOM      8  H   UNL     1       0.030   6.865  -2.903  0.00  0.00    +0.210 HD
ENDBRANCH   4   7
BRANCH   5   9
ATOM      9  O   UNL     1       0.084   5.952  -5.802  0.00  0.00    -0.386 OA
ATOM     10  H   UNL     1      -0.114   5.117  -6.270  0.00  0.00    +0.210 HD
ENDBRANCH   5   9
BRANCH   6  11
ATOM     11  O   UNL     1       1.586   3.593  -6.049  0.00  0.00    -0.386 OA
ATOM     12  H   UNL     1       2.221   3.263  -6.711  0.00  0.00    +0.210 HD
ENDBRANCH   6  11
BRANCH   1  13
ATOM     13  C   UNL     1       4.416   3.635  -5.021  0.00  0.00    +0.197 C 
BRANCH  13  14
ATOM     14  O   UNL     1       4.971   4.340  -6.128  0.00  0.00    -0.346 OA
BRANCH  14  18
ATOM     15  C   UNL     1       8.262   1.491  -6.693  0.00  0.00    +0.041 C 
ATOM     16  C   UNL     1       8.352   2.945  -6.243  0.00  0.00    +0.149 C 
ATOM     17  O   UNL     1       7.104   3.446  -5.753  0.00  0.00    -0.343 OA
ATOM     18  C   UNL     1       6.091   3.678  -6.728  0.00  0.00    +0.282 C 
ATOM     19  C   UNL     1       6.558   4.598  -7.881  0.00  0.00    +0.201 C 
ATOM     20  C   UNL     1       7.943   4.214  -8.415  0.00  0.00    +0.179 C 
ATOM     21  C   UNL     1       8.925   3.924  -7.276  0.00  0.00    +0.174 C 
BRANCH  19  22
ATOM     22  O   UNL     1       5.595   4.567  -8.954  0.00  0.00    -0.384 OA
ATOM     23  H   UNL     1       6.067   4.303  -9.766  0.00  0.00    +0.210 HD
ENDBRANCH  19  22
BRANCH  20  24
ATOM     24  O   UNL     1       7.850   3.124  -9.345  0.00  0.00    -0.386 OA
ATOM     25  H   UNL     1       7.165   2.500  -9.051  0.00  0.00    +0.210 HD
ENDBRANCH  20  24
BRANCH  21  26
ATOM     26  O   UNL     1       9.217   5.160  -6.604  0.00  0.00    -0.387 OA
ATOM     27  H   UNL     1       8.568   5.274  -5.875  0.00  0.00    +0.210 HD
ENDBRANCH  21  26
ENDBRANCH  14  18
ENDBRANCH  13  14
ENDBRANCH   1  13
BRANCH   3  28
ATOM     28  O   UNL     1       3.211   7.324  -2.185  0.00  0.00    -0.453 OA
BRANCH  28  29
ATOM     29  C   UNL     1       3.340   6.913  -0.847  0.00  0.00    +0.214 A 
ATOM     30  C   UNL     1       3.459   5.435  -0.516  0.00  0.00    +0.234 A 
ATOM     31  O   UNL     1       3.966   4.653  -1.316  0.00  0.00    -0.283 OA
ATOM     32  C   UNL     1       3.017   4.989   0.825  0.00  0.00    +0.060 A 
ATOM     33  C   UNL     1       3.149   5.966   1.807  0.00  0.00    +0.142 A 
ATOM     34  C   UNL     1       2.938   5.680   3.151  0.00  0.00    +0.092 A 
ATOM     35  C   UNL     1       2.624   4.382   3.496  0.00  0.00    +0.120 A 
ATOM     36  C   UNL     1       2.459   3.404   2.508  0.00  0.00    +0.038 A 
ATOM     37  O   UNL     1       3.537   7.237   1.524  0.00  0.00    -0.451 OA
ATOM     38  C   UNL     1       2.579   3.665   1.119  0.00  0.00    -0.090 A 
ATOM     39  O   UNL     1       2.293   2.766   0.255  0.00  0.00    -0.873 OA
ATOM     40  C   UNL     1       3.495   7.740   0.221  0.00  0.00    +0.181 A 
BRANCH  40  41
ATOM     41  C   UNL     1       3.754   9.229   0.285  0.00  0.00    +0.025 A 
ATOM     42  C   UNL     1       4.049   9.785   1.568  0.00  0.00    +0.015 A 
ATOM     43  C   UNL     1       4.497  11.093   1.756  0.00  0.00    +0.050 A 
ATOM     44  C   UNL     1       4.676  11.885   0.648  0.00  0.00    +0.158 A 
ATOM     45  C   UNL     1       4.319  11.414  -0.615  0.00  0.00    +0.159 A 
ATOM     46  C   UNL     1       3.849  10.101  -0.808  0.00  0.00    +0.060 A 
BRANCH  44  47
ATOM     47  O   UNL     1       5.247  13.114   0.813  0.00  0.00    -0.503 OA
ATOM     48  H   UNL     1       5.513  13.381  -0.088  0.00  0.00    +0.292 HD
ENDBRANCH  44  47
BRANCH  45  49
ATOM     49  O   UNL     1       4.479  12.287  -1.659  0.00  0.00    -0.503 OA
ATOM     50  H   UNL     1       3.953  11.948  -2.405  0.00  0.00    +0.292 HD
ENDBRANCH  45  49
ENDBRANCH  40  41
BRANCH  35  51
ATOM     51  O   UNL     1       2.456   4.019   4.803  0.00  0.00    -0.507 OA
ATOM     52  H   UNL     1       2.565   4.812   5.352  0.00  0.00    +0.292 HD
ENDBRANCH  35  51
ENDBRANCH  28  29
ENDBRANCH   3  28
TORSDOF 15
REMARK  Name = 
REMARK  18 active torsions:
REMARK  status: ('A' for Active; 'I' for Inactive)
REMARK    1  A    between atoms: C_1  and  C_2
REMARK    2  A    between atoms: C_4  and  O_53
REMARK    3  A    between atoms: C_6  and  O_52
REMARK    4  A    between atoms: C_8  and  O_51
REMARK    5  A    between atoms: C_10  and  O_13
REMARK    6  A    between atoms: O_13  and  C_14
REMARK    7  A    between atoms: C_14  and  C_15
REMARK    8  A    between atoms: C_17  and  O_50
REMARK    9  A    between atoms: C_19  and  O_49
REMARK   10  A    between atoms: C_21  and  O_48
REMARK   11  A    between atoms: C_23  and  O_26
REMARK   12  A    between atoms: O_26  and  C_27
REMARK   13  A    between atoms: C_28  and  C_40
REMARK   14  A    between atoms: C_32  and  O_39
REMARK   15  A    between atoms: C_42  and  O_47
REMARK   16  A    between atoms: C_43  and  O_46
REMARK   17  A    between atoms: O_54  and  S_55
REMARK   18  A    between atoms: S_55  and  O_58
REMARK                            x       y       z     vdW  Elec       q    Type
REMARK                         _______ _______ _______ _____ _____    ______ ____
ROOT
ATOM      1  S   UNL     1       2.415  -0.586   0.683  0.00  0.00    +0.205 S 
ATOM      2  O   UNL     1       1.749  -1.765   1.214  0.00  0.00    -0.118 OA
ATOM      3  O   UNL     1       3.567  -0.015   1.312  0.00  0.00    -0.118 OA
ENDROOT
BRANCH   1   4
ATOM      4  O   UNL     1       1.230   0.476   0.538  0.00  0.00    -0.231 OA
ATOM      5  H   UNL     1       1.646   1.405   0.420  0.00  0.00    +0.247 HD
ENDBRANCH   1   4
BRANCH   1   6
ATOM      6  O   UNL     1       2.771  -0.905  -0.853  0.00  0.00    -0.231 OA
ATOM      7  H   UNL     1       3.242  -0.120  -1.215  0.00  0.00    +0.247 HD
ENDBRANCH   1   6
TORSDOF 2
REMARK  Name = 
REMARK  18 active torsions:
REMARK  status: ('A' for Active; 'I' for Inactive)
REMARK    1  A    between atoms: C_1  and  C_2
REMARK    2  A    between atoms: C_4  and  O_53
REMARK    3  A    between atoms: C_6  and  O_52
REMARK    4  A    between atoms: C_8  and  O_51
REMARK    5  A    between atoms: C_10  and  O_13
REMARK    6  A    between atoms: O_13  and  C_14
REMARK    7  A    between atoms: C_14  and  C_15
REMARK    8  A    between atoms: C_17  and  O_50
REMARK    9  A    between atoms: C_19  and  O_49
REMARK   10  A    between atoms: C_21  and  O_48
REMARK   11  A    between atoms: C_23  and  O_26
REMARK   12  A    between atoms: O_26  and  C_27
REMARK   13  A    between atoms: C_28  and  C_40
REMARK   14  A    between atoms: C_32  and  O_39
REMARK   15  A    between atoms: C_42  and  O_47
REMARK   16  A    between atoms: C_43  and  O_46
REMARK   17  A    between atoms: O_54  and  S_55
REMARK   18  A    between atoms: S_55  and  O_58
REMARK                            x       y       z     vdW  Elec       q    Type
REMARK                         _______ _______ _______ _____ _____    ______ ____
ROOT
ATOM      1 NA   UNL     1      -0.450  -1.764   1.161  0.00  0.00    +0.000 Na
ENDROOT
TORSDOF 0
