REMARK  Name = 
REMARK  22 active torsions:
REMARK  status: ('A' for Active; 'I' for Inactive)
REMARK    1  A    between atoms: C_1  and  C_2
REMARK    2  A    between atoms: C_4  and  O_64
REMARK    3  A    between atoms: C_6  and  O_63
REMARK    4  A    between atoms: C_8  and  O_51
REMARK    5  A    between atoms: C_10  and  O_13
REMARK    6  A    between atoms: O_13  and  C_14
REMARK    7  A    between atoms: C_14  and  C_15
REMARK    8  A    between atoms: C_17  and  O_50
REMARK    9  A    between atoms: C_19  and  O_49
REMARK   10  A    between atoms: C_21  and  O_48
REMARK   11  A    between atoms: C_23  and  O_26
REMARK   12  A    between atoms: O_26  and  C_27
REMARK   13  A    between atoms: C_28  and  C_40
REMARK   14  A    between atoms: C_32  and  O_39
REMARK   15  A    between atoms: C_34  and  O_38
REMARK   16  A    between atoms: C_42  and  O_47
REMARK   17  A    between atoms: C_43  and  O_46
REMARK   18  A    between atoms: O_51  and  C_52
REMARK   19  A    between atoms: C_54  and  O_62
REMARK   20  A    between atoms: C_56  and  C_59
REMARK   21  A    between atoms: C_56  and  O_61
REMARK   22  A    between atoms: C_59  and  O_60
REMARK                            x       y       z     vdW  Elec       q    Type
REMARK                         _______ _______ _______ _____ _____    ______ ____
ROOT
ATOM      1  C   UNL     1       3.349   4.495  -4.472  0.00  0.00    +0.179 C 
ATOM      2  O   UNL     1       3.835   5.743  -3.881  0.00  0.00    -0.331 OA
ATOM      3  C   UNL     1       2.736   6.389  -3.169  0.00  0.00    +0.340 C 
ATOM      4  C   UNL     1       1.684   6.927  -4.169  0.00  0.00    +0.214 C 
ATOM      5  C   UNL     1       1.112   5.653  -4.844  0.00  0.00    +0.180 C 
ATOM      6  C   UNL     1       2.215   4.790  -5.479  0.00  0.00    +0.177 C 
ENDROOT
BRANCH   4   7
ATOM      7  O   UNL     1       0.640   7.644  -3.489  0.00  0.00    -0.383 OA
ATOM      8  H   UNL     1       0.042   6.989  -3.082  0.00  0.00    +0.210 HD
ENDBRANCH   4   7
BRANCH   6   9
ATOM      9  O   UNL     1       1.578   3.592  -5.947  0.00  0.00    -0.386 OA
ATOM     10  H   UNL     1       2.188   3.118  -6.537  0.00  0.00    +0.210 HD
ENDBRANCH   6   9
BRANCH   5  11
ATOM     11  O   UNL     1       0.123   5.943  -5.837  0.00  0.00    -0.386 OA
ATOM     12  H   UNL     1      -0.145   5.065  -6.180  0.00  0.00    +0.210 HD
ENDBRANCH   5  11
BRANCH   3  13
ATOM     13  O   UNL     1       3.122   7.304  -2.121  0.00  0.00    -0.453 OA
BRANCH  13  14
ATOM     14  C   UNL     1       3.089   6.837  -0.775  0.00  0.00    +0.214 A 
ATOM     15  C   UNL     1       2.552   5.435  -0.421  0.00  0.00    +0.238 A 
ATOM     16  O   UNL     1       1.739   4.808  -1.091  0.00  0.00    -0.283 OA
ATOM     17  C   UNL     1       3.019   4.786   0.802  0.00  0.00    +0.109 A 
ATOM     18  C   UNL     1       3.502   5.617   1.797  0.00  0.00    +0.147 A 
ATOM     19  C   UNL     1       3.965   5.038   2.999  0.00  0.00    +0.092 A 
ATOM     20  C   UNL     1       3.994   3.636   3.145  0.00  0.00    +0.124 A 
ATOM     21  C   UNL     1       3.544   2.796   2.134  0.00  0.00    +0.091 A 
ATOM     22  O   UNL     1       3.710   6.975   1.580  0.00  0.00    -0.451 OA
ATOM     23  C   UNL     1       3.070   3.376   0.958  0.00  0.00    +0.135 A 
ATOM     24  C   UNL     1       3.705   7.508   0.251  0.00  0.00    +0.181 A 
BRANCH  24  25
ATOM     25  C   UNL     1       4.519   8.834   0.150  0.00  0.00    +0.025 A 
ATOM     26  C   UNL     1       5.414   9.202   1.197  0.00  0.00    +0.015 A 
ATOM     27  C   UNL     1       6.210  10.376   1.178  0.00  0.00    +0.050 A 
ATOM     28  C   UNL     1       6.136  11.234   0.105  0.00  0.00    +0.158 A 
ATOM     29  C   UNL     1       5.249  10.945  -0.919  0.00  0.00    +0.159 A 
ATOM     30  C   UNL     1       4.476   9.750  -0.922  0.00  0.00    +0.060 A 
BRANCH  29  31
ATOM     31  O   UNL     1       5.213  11.852  -1.950  0.00  0.00    -0.503 OA
ATOM     32  H   UNL     1       4.376  11.733  -2.427  0.00  0.00    +0.292 HD
ENDBRANCH  29  31
BRANCH  28  33
ATOM     33  O   UNL     1       6.896  12.372   0.072  0.00  0.00    -0.503 OA
ATOM     34  H   UNL     1       6.684  12.804  -0.782  0.00  0.00    +0.292 HD
ENDBRANCH  28  33
ENDBRANCH  24  25
BRANCH  23  35
ATOM     35  O   UNL     1       2.832   2.521  -0.096  0.00  0.00    -0.506 OA
ATOM     36  H   UNL     1       3.570   1.883  -0.129  0.00  0.00    +0.292 HD
ENDBRANCH  23  35
BRANCH  20  37
ATOM     37  O   UNL     1       4.709   3.019   4.136  0.00  0.00    -0.507 OA
ATOM     38  H   UNL     1       5.090   3.669   4.747  0.00  0.00    +0.292 HD
ENDBRANCH  20  37
ENDBRANCH  13  14
ENDBRANCH   3  13
BRANCH   1  39
ATOM     39  C   UNL     1       4.475   3.673  -5.157  0.00  0.00    +0.197 C 
BRANCH  39  40
ATOM     40  O   UNL     1       5.442   3.279  -4.194  0.00  0.00    -0.346 OA
BRANCH  40  44
ATOM     41  C   UNL     1       7.583   0.402  -6.650  0.00  0.00    +0.041 C 
ATOM     42  C   UNL     1       6.910   0.132  -5.310  0.00  0.00    +0.149 C 
ATOM     43  O   UNL     1       5.941   1.144  -4.989  0.00  0.00    -0.343 OA
ATOM     44  C   UNL     1       6.495   2.420  -4.672  0.00  0.00    +0.282 C 
ATOM     45  C   UNL     1       7.571   2.307  -3.556  0.00  0.00    +0.208 C 
ATOM     46  C   UNL     1       8.616   1.234  -3.810  0.00  0.00    +0.179 C 
ATOM     47  C   UNL     1       7.901  -0.070  -4.152  0.00  0.00    +0.174 C 
BRANCH  47  48
ATOM     48  O   UNL     1       7.175  -0.538  -2.999  0.00  0.00    -0.387 OA
ATOM     49  H   UNL     1       6.297  -0.105  -2.999  0.00  0.00    +0.210 HD
ENDBRANCH  47  48
BRANCH  46  50
ATOM     50  O   UNL     1       9.508   1.686  -4.832  0.00  0.00    -0.386 OA
ATOM     51  H   UNL     1       9.682   2.628  -4.606  0.00  0.00    +0.210 HD
ENDBRANCH  46  50
BRANCH  45  52
ATOM     52  O   UNL     1       8.306   3.532  -3.357  0.00  0.00    -0.338 OA
BRANCH  52  53
ATOM     53  C   UNL     1       7.487   4.528  -2.766  0.00  0.00    +0.282 C 
ATOM     54  O   UNL     1       8.268   5.669  -2.362  0.00  0.00    -0.346 OA
ATOM     55  C   UNL     1       7.594   6.277  -1.248  0.00  0.00    +0.202 C 
ATOM     56  C   UNL     1       6.525   5.298  -0.822  0.00  0.00    +0.142 C 
ATOM     57  C   UNL     1       6.827   3.999  -1.496  0.00  0.00    +0.206 C 
BRANCH  57  58
ATOM     58  O   UNL     1       5.629   3.205  -1.656  0.00  0.00    -0.384 OA
ATOM     59  H   UNL     1       4.911   3.822  -1.887  0.00  0.00    +0.210 HD
ENDBRANCH  57  58
BRANCH  56  60
ATOM     60  O   UNL     1       5.269   5.716  -1.350  0.00  0.00    -0.381 OA
ATOM     61  H   UNL     1       5.386   5.981  -2.272  0.00  0.00    +0.210 HD
ENDBRANCH  56  60
BRANCH  56  62
ATOM     62  C   UNL     1       6.517   5.102   0.675  0.00  0.00    +0.195 C 
BRANCH  62  63
ATOM     63  O   UNL     1       5.975   3.825   0.950  0.00  0.00    -0.392 OA
ATOM     64  H   UNL     1       5.806   3.769   1.896  0.00  0.00    +0.210 HD
ENDBRANCH  62  63
ENDBRANCH  56  62
ENDBRANCH  52  53
ENDBRANCH  45  52
ENDBRANCH  40  44
ENDBRANCH  39  40
ENDBRANCH   1  39
TORSDOF 21
