REMARK  Name = 
REMARK  14 active torsions:
REMARK  status: ('A' for Active; 'I' for Inactive)
REMARK    1  A    between atoms: C_1  and  C_2
REMARK    2  A    between atoms: C_2  and  O_4
REMARK    3  A    between atoms: O_4  and  C_5
REMARK    4  A    between atoms: C_5  and  C_6
REMARK    5  A    between atoms: C_7  and  O_39
REMARK    6  A    between atoms: C_9  and  O_38
REMARK    7  A    between atoms: C_11  and  O_37
REMARK    8  A    between atoms: C_12  and  O_15
REMARK    9  A    between atoms: O_15  and  C_16
REMARK   10  A    between atoms: C_17  and  C_29
REMARK   11  A    between atoms: C_21  and  O_28
REMARK   12  A    between atoms: C_23  and  O_27
REMARK   13  A    between atoms: C_31  and  O_36
REMARK   14  A    between atoms: C_32  and  O_35
REMARK                            x       y       z     vdW  Elec       q    Type
REMARK                         _______ _______ _______ _____ _____    ______ ____
ROOT
ATOM      1  C   UNL     1       9.040   1.279   1.867  0.00  0.00    +0.214 A 
ATOM      2  C   UNL     1       8.503   2.377   2.722  0.00  0.00    +0.238 A 
ATOM      3  O   UNL     1       8.059   2.149   3.840  0.00  0.00    -0.283 OA
ATOM      4  C   UNL     1       8.578   3.736   2.188  0.00  0.00    +0.109 A 
ATOM      5  C   UNL     1       9.530   3.977   1.205  0.00  0.00    +0.147 A 
ATOM      6  C   UNL     1       9.773   5.288   0.787  0.00  0.00    +0.092 A 
ATOM      7  C   UNL     1       9.030   6.330   1.343  0.00  0.00    +0.124 A 
ATOM      8  C   UNL     1       8.023   6.085   2.271  0.00  0.00    +0.091 A 
ATOM      9  O   UNL     1      10.269   2.969   0.632  0.00  0.00    -0.451 OA
ATOM     10  C   UNL     1       7.789   4.780   2.687  0.00  0.00    +0.135 A 
ATOM     11  C   UNL     1       9.930   1.636   0.905  0.00  0.00    +0.181 A 
ENDROOT
BRANCH  11  12
ATOM     12  C   UNL     1      10.738   0.658   0.107  0.00  0.00    +0.025 A 
ATOM     13  C   UNL     1      12.067   0.962  -0.259  0.00  0.00    +0.015 A 
ATOM     14  C   UNL     1      12.879   0.026  -0.919  0.00  0.00    +0.050 A 
ATOM     15  C   UNL     1      12.372  -1.224  -1.223  0.00  0.00    +0.158 A 
ATOM     16  C   UNL     1      11.053  -1.531  -0.923  0.00  0.00    +0.159 A 
ATOM     17  C   UNL     1      10.237  -0.594  -0.290  0.00  0.00    +0.060 A 
BRANCH  15  18
ATOM     18  O   UNL     1      13.178  -2.154  -1.811  0.00  0.00    -0.503 OA
ATOM     19  H   UNL     1      12.622  -2.957  -1.876  0.00  0.00    +0.292 HD
ENDBRANCH  15  18
BRANCH  16  20
ATOM     20  O   UNL     1      10.596  -2.778  -1.257  0.00  0.00    -0.503 OA
ATOM     21  H   UNL     1       9.652  -2.830  -1.021  0.00  0.00    +0.292 HD
ENDBRANCH  16  20
ENDBRANCH  11  12
BRANCH   7  22
ATOM     22  O   UNL     1       9.250   7.632   1.001  0.00  0.00    -0.507 OA
ATOM     23  H   UNL     1      10.024   7.686   0.416  0.00  0.00    +0.292 HD
ENDBRANCH   7  22
BRANCH  10  24
ATOM     24  O   UNL     1       6.763   4.525   3.551  0.00  0.00    -0.506 OA
ATOM     25  H   UNL     1       6.438   5.356   3.937  0.00  0.00    +0.292 HD
ENDBRANCH  10  24
BRANCH   1  26
ATOM     26  O   UNL     1       8.730  -0.036   2.180  0.00  0.00    -0.453 OA
BRANCH  26  29
ATOM     27  C   UNL     1       5.972  -1.726   3.897  0.00  0.00    +0.191 C 
ATOM     28  O   UNL     1       7.303  -1.367   3.469  0.00  0.00    -0.330 OA
ATOM     29  C   UNL     1       7.350  -0.296   2.514  0.00  0.00    +0.340 C 
ATOM     30  C   UNL     1       6.598  -0.732   1.232  0.00  0.00    +0.214 C 
ATOM     31  C   UNL     1       5.144  -1.101   1.562  0.00  0.00    +0.180 C 
ATOM     32  C   UNL     1       5.123  -2.158   2.688  0.00  0.00    +0.178 C 
BRANCH  30  33
ATOM     33  O   UNL     1       7.248  -1.882   0.649  0.00  0.00    -0.383 OA
ATOM     34  H   UNL     1       7.798  -2.271   1.360  0.00  0.00    +0.210 HD
ENDBRANCH  30  33
BRANCH  31  35
ATOM     35  O   UNL     1       4.335   0.037   1.881  0.00  0.00    -0.386 OA
ATOM     36  H   UNL     1       4.866   0.804   2.147  0.00  0.00    +0.210 HD
ENDBRANCH  31  35
BRANCH  32  37
ATOM     37  O   UNL     1       3.790  -2.500   3.055  0.00  0.00    -0.386 OA
ATOM     38  H   UNL     1       3.830  -3.266   3.655  0.00  0.00    +0.210 HD
ENDBRANCH  32  37
BRANCH  27  39
ATOM     39  C   UNL     1       5.291  -0.664   4.789  0.00  0.00    +0.266 C 
BRANCH  39  40
ATOM     40  O   UNL     1       6.095  -0.361   5.944  0.00  0.00    -0.462 OA
BRANCH  40  42
ATOM     41  C   UNL     1       6.870  -0.795   8.111  0.00  0.00    +0.136 C 
ATOM     42  C   UNL     1       6.016  -1.250   6.968  0.00  0.00    +0.304 C 
ATOM     43  O   UNL     1       5.347  -2.275   6.965  0.00  0.00    -0.251 OA
ENDBRANCH  40  42
ENDBRANCH  39  40
ENDBRANCH  27  39
ENDBRANCH  26  29
ENDBRANCH   1  26
TORSDOF 13
