REMARK  Name = 
REMARK  17 active torsions:
REMARK  status: ('A' for Active; 'I' for Inactive)
REMARK    1  A    between atoms: C_1  and  C_2
REMARK    2  A    between atoms: C_4  and  O_53
REMARK    3  A    between atoms: C_6  and  O_52
REMARK    4  A    between atoms: C_8  and  O_51
REMARK    5  A    between atoms: C_10  and  O_13
REMARK    6  A    between atoms: O_13  and  C_14
REMARK    7  A    between atoms: C_14  and  C_15
REMARK    8  A    between atoms: C_17  and  O_50
REMARK    9  A    between atoms: C_19  and  O_49
REMARK   10  A    between atoms: C_21  and  O_48
REMARK   11  A    between atoms: C_23  and  O_26
REMARK   12  A    between atoms: O_26  and  C_27
REMARK   13  A    between atoms: C_28  and  C_40
REMARK   14  A    between atoms: C_32  and  O_39
REMARK   15  A    between atoms: C_34  and  O_38
REMARK   16  A    between atoms: C_42  and  O_47
REMARK   17  A    between atoms: C_43  and  O_46
REMARK                            x       y       z     vdW  Elec       q    Type
REMARK                         _______ _______ _______ _____ _____    ______ ____
ROOT
ATOM      1  C   UNL     1      -1.111  -0.916  -2.018  0.00  0.00    +0.179 C 
ATOM      2  O   UNL     1      -1.853  -0.958  -0.788  0.00  0.00    -0.331 OA
ATOM      3  C   UNL     1      -1.562  -2.165  -0.065  0.00  0.00    +0.340 C 
ATOM      4  C   UNL     1      -2.202  -3.350  -0.830  0.00  0.00    +0.214 C 
ATOM      5  C   UNL     1      -1.622  -3.325  -2.273  0.00  0.00    +0.180 C 
ATOM      6  C   UNL     1      -1.726  -1.947  -2.964  0.00  0.00    +0.177 C 
ENDROOT
BRANCH   6   7
ATOM      7  O   UNL     1      -1.007  -2.077  -4.197  0.00  0.00    -0.386 OA
ATOM      8  H   UNL     1      -1.057  -1.220  -4.650  0.00  0.00    +0.210 HD
ENDBRANCH   6   7
BRANCH   5   9
ATOM      9  O   UNL     1      -2.210  -4.325  -3.114  0.00  0.00    -0.386 OA
ATOM     10  H   UNL     1      -1.852  -4.136  -4.007  0.00  0.00    +0.210 HD
ENDBRANCH   5   9
BRANCH   4  11
ATOM     11  O   UNL     1      -1.876  -4.594  -0.181  0.00  0.00    -0.383 OA
ATOM     12  H   UNL     1      -1.098  -4.975  -0.626  0.00  0.00    +0.210 HD
ENDBRANCH   4  11
BRANCH   3  13
ATOM     13  O   UNL     1      -1.958  -2.021   1.321  0.00  0.00    -0.453 OA
BRANCH  13  14
ATOM     14  C   UNL     1      -0.983  -1.432   2.153  0.00  0.00    +0.214 A 
ATOM     15  C   UNL     1       0.264  -0.804   1.561  0.00  0.00    +0.238 A 
ATOM     16  O   UNL     1       0.346  -0.425   0.399  0.00  0.00    -0.283 OA
ATOM     17  C   UNL     1       1.413  -0.563   2.415  0.00  0.00    +0.109 A 
ATOM     18  C   UNL     1       1.175  -0.561   3.771  0.00  0.00    +0.147 A 
ATOM     19  C   UNL     1       2.206  -0.218   4.650  0.00  0.00    +0.092 A 
ATOM     20  C   UNL     1       3.465   0.100   4.142  0.00  0.00    +0.124 A 
ATOM     21  C   UNL     1       3.715   0.096   2.778  0.00  0.00    +0.091 A 
ATOM     22  O   UNL     1      -0.052  -0.819   4.302  0.00  0.00    -0.451 OA
ATOM     23  C   UNL     1       2.688  -0.244   1.910  0.00  0.00    +0.135 A 
ATOM     24  C   UNL     1      -1.104  -1.301   3.504  0.00  0.00    +0.181 A 
BRANCH  24  25
ATOM     25  C   UNL     1      -2.328  -1.521   4.373  0.00  0.00    +0.025 A 
ATOM     26  C   UNL     1      -2.243  -1.177   5.754  0.00  0.00    +0.015 A 
ATOM     27  C   UNL     1      -3.356  -1.142   6.601  0.00  0.00    +0.050 A 
ATOM     28  C   UNL     1      -4.587  -1.484   6.090  0.00  0.00    +0.158 A 
ATOM     29  C   UNL     1      -4.705  -1.901   4.764  0.00  0.00    +0.159 A 
ATOM     30  C   UNL     1      -3.592  -1.927   3.913  0.00  0.00    +0.060 A 
BRANCH  29  31
ATOM     31  O   UNL     1      -5.957  -2.267   4.350  0.00  0.00    -0.503 OA
ATOM     32  H   UNL     1      -5.864  -2.730   3.499  0.00  0.00    +0.292 HD
ENDBRANCH  29  31
BRANCH  28  33
ATOM     33  O   UNL     1      -5.689  -1.366   6.884  0.00  0.00    -0.503 OA
ATOM     34  H   UNL     1      -6.449  -1.539   6.293  0.00  0.00    +0.292 HD
ENDBRANCH  28  33
ENDBRANCH  24  25
BRANCH  23  35
ATOM     35  O   UNL     1       2.946  -0.278   0.567  0.00  0.00    -0.506 OA
ATOM     36  H   UNL     1       3.795   0.154   0.383  0.00  0.00    +0.292 HD
ENDBRANCH  23  35
BRANCH  20  37
ATOM     37  O   UNL     1       4.503   0.441   4.956  0.00  0.00    -0.507 OA
ATOM     38  H   UNL     1       4.207   0.418   5.883  0.00  0.00    +0.292 HD
ENDBRANCH  20  37
ENDBRANCH  13  14
ENDBRANCH   3  13
BRANCH   1  39
ATOM     39  C   UNL     1      -0.961   0.535  -2.509  0.00  0.00    +0.197 C 
BRANCH  39  40
ATOM     40  O   UNL     1      -2.159   1.141  -3.010  0.00  0.00    -0.346 OA
BRANCH  40  44
ATOM     41  C   UNL     1      -1.237   1.081  -5.969  0.00  0.00    +0.041 C 
ATOM     42  C   UNL     1      -1.386   2.553  -5.614  0.00  0.00    +0.149 C 
ATOM     43  O   UNL     1      -0.982   2.822  -4.265  0.00  0.00    -0.343 OA
ATOM     44  C   UNL     1      -1.947   2.550  -3.238  0.00  0.00    +0.282 C 
ATOM     45  C   UNL     1      -3.254   3.319  -3.518  0.00  0.00    +0.201 C 
ATOM     46  C   UNL     1      -3.830   2.970  -4.893  0.00  0.00    +0.179 C 
ATOM     47  C   UNL     1      -2.765   3.135  -5.984  0.00  0.00    +0.174 C 
BRANCH  47  48
ATOM     48  O   UNL     1      -2.616   4.534  -6.273  0.00  0.00    -0.387 OA
ATOM     49  H   UNL     1      -1.995   4.914  -5.624  0.00  0.00    +0.210 HD
ENDBRANCH  47  48
BRANCH  46  50
ATOM     50  O   UNL     1      -4.362   1.640  -4.896  0.00  0.00    -0.386 OA
ATOM     51  H   UNL     1      -4.826   1.519  -5.743  0.00  0.00    +0.210 HD
ENDBRANCH  46  50
BRANCH  45  52
ATOM     52  O   UNL     1      -4.228   3.110  -2.492  0.00  0.00    -0.384 OA
ATOM     53  H   UNL     1      -4.407   2.148  -2.508  0.00  0.00    +0.210 HD
ENDBRANCH  45  52
ENDBRANCH  40  44
ENDBRANCH  39  40
ENDBRANCH   1  39
TORSDOF 16
