REMARK  Name = 
REMARK  17 active torsions:
REMARK  status: ('A' for Active; 'I' for Inactive)
REMARK    1  A    between atoms: C_3  and  O_50
REMARK    2  A    between atoms: C_4  and  O_49
REMARK    3  A    between atoms: C_6  and  C_7
REMARK    4  A    between atoms: C_8  and  C_9
REMARK    5  A    between atoms: C_9  and  O_11
REMARK    6  A    between atoms: O_11  and  C_12
REMARK    7  A    between atoms: C_12  and  C_13
REMARK    8  A    between atoms: C_15  and  O_48
REMARK    9  A    between atoms: C_17  and  O_47
REMARK   10  A    between atoms: C_19  and  O_46
REMARK   11  A    between atoms: C_21  and  O_24
REMARK   12  A    between atoms: O_24  and  C_25
REMARK   13  A    between atoms: C_26  and  C_38
REMARK   14  A    between atoms: C_30  and  O_37
REMARK   15  A    between atoms: C_32  and  O_36
REMARK   16  A    between atoms: C_40  and  O_45
REMARK   17  A    between atoms: C_41  and  O_44
REMARK                            x       y       z     vdW  Elec       q    Type
REMARK                         _______ _______ _______ _____ _____    ______ ____
ROOT
ATOM      1  C   UNL     1      -6.458  -4.968  -0.628  0.00  0.00    +0.191 C 
ATOM      2  O   UNL     1      -6.923  -4.769  -1.984  0.00  0.00    -0.330 OA
ATOM      3  C   UNL     1      -6.483  -3.507  -2.574  0.00  0.00    +0.340 C 
ATOM      4  C   UNL     1      -7.000  -2.314  -1.713  0.00  0.00    +0.214 C 
ATOM      5  C   UNL     1      -6.624  -2.510  -0.242  0.00  0.00    +0.180 C 
ATOM      6  C   UNL     1      -7.067  -3.882   0.266  0.00  0.00    +0.178 C 
ENDROOT
BRANCH   6   7
ATOM      7  O   UNL     1      -8.499  -3.966   0.280  0.00  0.00    -0.386 OA
ATOM      8  H   UNL     1      -8.819  -3.953  -0.642  0.00  0.00    +0.210 HD
ENDBRANCH   6   7
BRANCH   5   9
ATOM      9  O   UNL     1      -7.191  -1.450   0.542  0.00  0.00    -0.386 OA
ATOM     10  H   UNL     1      -7.374  -1.797   1.432  0.00  0.00    +0.210 HD
ENDBRANCH   5   9
BRANCH   4  11
ATOM     11  O   UNL     1      -6.511  -1.029  -2.131  0.00  0.00    -0.383 OA
ATOM     12  H   UNL     1      -5.535  -1.040  -2.068  0.00  0.00    +0.210 HD
ENDBRANCH   4  11
BRANCH   3  13
ATOM     13  O   UNL     1      -7.002  -3.440  -3.925  0.00  0.00    -0.453 OA
BRANCH  13  14
ATOM     14  C   UNL     1      -6.764  -2.286  -4.675  0.00  0.00    +0.214 A 
ATOM     15  C   UNL     1      -5.502  -1.486  -4.545  0.00  0.00    +0.238 A 
ATOM     16  O   UNL     1      -4.533  -1.945  -3.953  0.00  0.00    -0.283 OA
ATOM     17  C   UNL     1      -5.509  -0.125  -5.112  0.00  0.00    +0.109 A 
ATOM     18  C   UNL     1      -6.502   0.180  -6.039  0.00  0.00    +0.147 A 
ATOM     19  C   UNL     1      -6.517   1.414  -6.697  0.00  0.00    +0.092 A 
ATOM     20  C   UNL     1      -5.544   2.357  -6.390  0.00  0.00    +0.124 A 
ATOM     21  C   UNL     1      -4.586   2.102  -5.414  0.00  0.00    +0.091 A 
ATOM     22  O   UNL     1      -7.517  -0.691  -6.347  0.00  0.00    -0.451 OA
ATOM     23  C   UNL     1      -4.575   0.862  -4.769  0.00  0.00    +0.135 A 
ATOM     24  C   UNL     1      -7.673  -1.817  -5.558  0.00  0.00    +0.181 A 
BRANCH  24  25
ATOM     25  C   UNL     1      -8.971  -2.474  -5.779  0.00  0.00    +0.025 A 
ATOM     26  C   UNL     1     -10.069  -2.149  -4.968  0.00  0.00    +0.015 A 
ATOM     27  C   UNL     1     -11.302  -2.783  -5.158  0.00  0.00    +0.050 A 
ATOM     28  C   UNL     1     -11.423  -3.738  -6.157  0.00  0.00    +0.158 A 
ATOM     29  C   UNL     1     -10.349  -4.034  -6.993  0.00  0.00    +0.159 A 
ATOM     30  C   UNL     1      -9.119  -3.405  -6.814  0.00  0.00    +0.060 A 
BRANCH  29  31
ATOM     31  O   UNL     1     -10.549  -4.962  -7.979  0.00  0.00    -0.503 OA
ATOM     32  H   UNL     1      -9.739  -5.009  -8.517  0.00  0.00    +0.292 HD
ENDBRANCH  29  31
BRANCH  28  33
ATOM     33  O   UNL     1     -12.606  -4.402  -6.303  0.00  0.00    -0.503 OA
ATOM     34  H   UNL     1     -12.424  -5.081  -6.983  0.00  0.00    +0.292 HD
ENDBRANCH  28  33
ENDBRANCH  24  25
BRANCH  23  35
ATOM     35  O   UNL     1      -3.662   0.647  -3.774  0.00  0.00    -0.506 OA
ATOM     36  H   UNL     1      -3.130   1.450  -3.638  0.00  0.00    +0.292 HD
ENDBRANCH  23  35
BRANCH  20  37
ATOM     37  O   UNL     1      -5.494   3.566  -7.019  0.00  0.00    -0.507 OA
ATOM     38  H   UNL     1      -6.188   3.602  -7.699  0.00  0.00    +0.292 HD
ENDBRANCH  20  37
ENDBRANCH  13  14
ENDBRANCH   3  13
BRANCH   1  39
ATOM     39  C   UNL     1      -6.840  -6.370  -0.103  0.00  0.00    +0.266 C 
BRANCH  39  40
ATOM     40  O   UNL     1      -6.515  -6.549   1.299  0.00  0.00    -0.459 OA
BRANCH  40  41
ATOM     41  C   UNL     1      -5.238  -6.903   1.599  0.00  0.00    +0.332 C 
ATOM     42  O   UNL     1      -4.329  -7.031   0.804  0.00  0.00    -0.246 OA
BRANCH  41  44
ATOM     43  C   UNL     1      -3.960  -7.442   3.640  0.00  0.00    +0.015 C 
ATOM     44  C   UNL     1      -5.124  -7.072   3.073  0.00  0.00    +0.092 C 
BRANCH  43  46
ATOM     45  C   UNL     1      -2.752  -8.518   5.536  0.00  0.00    +0.012 A 
ATOM     46  C   UNL     1      -3.742  -7.620   5.092  0.00  0.00    -0.021 A 
ATOM     47  C   UNL     1      -4.445  -6.880   6.052  0.00  0.00    +0.057 A 
ATOM     48  C   UNL     1      -4.186  -7.071   7.406  0.00  0.00    +0.159 A 
ATOM     49  C   UNL     1      -3.223  -7.980   7.833  0.00  0.00    +0.158 A 
ATOM     50  C   UNL     1      -2.494  -8.705   6.902  0.00  0.00    +0.050 A 
BRANCH  49  51
ATOM     51  O   UNL     1      -3.029  -8.117   9.180  0.00  0.00    -0.503 OA
ATOM     52  H   UNL     1      -2.353  -8.801   9.325  0.00  0.00    +0.292 HD
ENDBRANCH  49  51
BRANCH  48  53
ATOM     53  O   UNL     1      -4.892  -6.347   8.325  0.00  0.00    -0.503 OA
ATOM     54  H   UNL     1      -4.545  -6.642   9.191  0.00  0.00    +0.292 HD
ENDBRANCH  48  53
ENDBRANCH  43  46
ENDBRANCH  41  44
ENDBRANCH  40  41
ENDBRANCH  39  40
ENDBRANCH   1  39
TORSDOF 17
