REMARK  Name = 
REMARK  17 active torsions:
REMARK  status: ('A' for Active; 'I' for Inactive)
REMARK    1  A    between atoms: C_1  and  C_2
REMARK    2  A    between atoms: C_4  and  O_53
REMARK    3  A    between atoms: C_6  and  O_52
REMARK    4  A    between atoms: C_8  and  O_51
REMARK    5  A    between atoms: C_10  and  O_13
REMARK    6  A    between atoms: O_13  and  C_14
REMARK    7  A    between atoms: C_16  and  O_50
REMARK    8  A    between atoms: C_21  and  C_42
REMARK    9  A    between atoms: C_22  and  O_25
REMARK   10  A    between atoms: O_25  and  C_26
REMARK   11  A    between atoms: C_28  and  O_41
REMARK   12  A    between atoms: C_30  and  O_40
REMARK   13  A    between atoms: C_32  and  O_39
REMARK   14  A    between atoms: C_34  and  C_37
REMARK   15  A    between atoms: C_37  and  O_38
REMARK   16  A    between atoms: C_44  and  O_49
REMARK   17  A    between atoms: C_45  and  O_48
REMARK                            x       y       z     vdW  Elec       q    Type
REMARK                         _______ _______ _______ _____ _____    ______ ____
ROOT
ATOM      1  C   UNL     1       2.574   2.947  -3.255  0.00  0.00    +0.131 A 
ATOM      2  C   UNL     1       1.321   3.436  -2.870  0.00  0.00    +0.093 A 
ATOM      3  C   UNL     1       1.114   4.814  -2.767  0.00  0.00    +0.147 A 
ATOM      4  O   UNL     1      -0.123   5.263  -2.363  0.00  0.00    -0.451 OA
ATOM      5  C   UNL     1      -0.420   6.612  -2.550  0.00  0.00    +0.181 A 
ATOM      6  C   UNL     1       0.493   7.571  -2.821  0.00  0.00    +0.214 A 
ATOM      7  C   UNL     1       1.912   7.110  -2.744  0.00  0.00    +0.238 A 
ATOM      8  O   UNL     1       2.822   7.832  -2.359  0.00  0.00    -0.283 OA
ATOM      9  C   UNL     1       2.157   5.692  -3.034  0.00  0.00    +0.109 A 
ATOM     10  C   UNL     1       3.390   5.210  -3.483  0.00  0.00    +0.135 A 
ATOM     11  C   UNL     1       3.595   3.841  -3.590  0.00  0.00    +0.092 A 
ENDROOT
BRANCH   5  12
ATOM     12  C   UNL     1      -1.850   6.913  -2.363  0.00  0.00    +0.025 A 
ATOM     13  C   UNL     1      -2.706   7.053  -3.466  0.00  0.00    +0.015 A 
ATOM     14  C   UNL     1      -4.061   7.340  -3.278  0.00  0.00    +0.050 A 
ATOM     15  C   UNL     1      -4.555   7.468  -1.991  0.00  0.00    +0.158 A 
ATOM     16  C   UNL     1      -3.725   7.312  -0.886  0.00  0.00    +0.159 A 
ATOM     17  C   UNL     1      -2.370   7.041  -1.063  0.00  0.00    +0.060 A 
BRANCH  15  18
ATOM     18  O   UNL     1      -5.884   7.741  -1.810  0.00  0.00    -0.503 OA
ATOM     19  H   UNL     1      -5.994   7.807  -0.840  0.00  0.00    +0.292 HD
ENDBRANCH  15  18
BRANCH  16  20
ATOM     20  O   UNL     1      -4.293   7.424   0.354  0.00  0.00    -0.503 OA
ATOM     21  H   UNL     1      -3.608   7.255   1.024  0.00  0.00    +0.292 HD
ENDBRANCH  16  20
ENDBRANCH   5  12
BRANCH  10  22
ATOM     22  O   UNL     1       4.388   6.067  -3.841  0.00  0.00    -0.506 OA
ATOM     23  H   UNL     1       5.212   5.576  -3.993  0.00  0.00    +0.292 HD
ENDBRANCH  10  22
BRANCH   6  24
ATOM     24  O   UNL     1       0.139   8.903  -3.078  0.00  0.00    -0.453 OA
BRANCH  24  25
ATOM     25  C   UNL     1       1.127   9.696  -3.770  0.00  0.00    +0.340 C 
ATOM     26  O   UNL     1       0.913  11.106  -3.588  0.00  0.00    -0.331 OA
ATOM     27  C   UNL     1       0.008  11.808  -4.442  0.00  0.00    +0.179 C 
ATOM     28  C   UNL     1       0.159  11.430  -5.924  0.00  0.00    +0.177 C 
ATOM     29  C   UNL     1       0.171   9.910  -6.124  0.00  0.00    +0.180 C 
ATOM     30  C   UNL     1       1.260   9.270  -5.254  0.00  0.00    +0.214 C 
BRANCH  28  31
ATOM     31  O   UNL     1       1.405  11.983  -6.391  0.00  0.00    -0.386 OA
ATOM     32  H   UNL     1       1.521  11.714  -7.322  0.00  0.00    +0.210 HD
ENDBRANCH  28  31
BRANCH  29  33
ATOM     33  O   UNL     1      -1.120   9.343  -5.909  0.00  0.00    -0.386 OA
ATOM     34  H   UNL     1      -1.219   9.109  -4.968  0.00  0.00    +0.210 HD
ENDBRANCH  29  33
BRANCH  30  35
ATOM     35  O   UNL     1       2.548   9.626  -5.779  0.00  0.00    -0.383 OA
ATOM     36  H   UNL     1       2.675  10.580  -5.595  0.00  0.00    +0.210 HD
ENDBRANCH  30  35
BRANCH  27  37
ATOM     37  C   UNL     1      -1.442  11.754  -3.935  0.00  0.00    +0.190 C 
BRANCH  37  38
ATOM     38  O   UNL     1      -1.563  12.263  -2.607  0.00  0.00    -0.392 OA
ATOM     39  H   UNL     1      -0.980  13.037  -2.520  0.00  0.00    +0.210 HD
ENDBRANCH  37  38
ENDBRANCH  27  37
ENDBRANCH  24  25
ENDBRANCH   6  24
BRANCH   1  40
ATOM     40  O   UNL     1       2.959   1.639  -3.333  0.00  0.00    -0.461 OA
BRANCH  40  44
ATOM     41  C   UNL     1      -0.653  -0.098  -1.681  0.00  0.00    +0.041 C 
ATOM     42  C   UNL     1       0.751  -0.268  -1.112  0.00  0.00    +0.150 C 
ATOM     43  O   UNL     1       1.650   0.737  -1.594  0.00  0.00    -0.334 OA
ATOM     44  C   UNL     1       2.023   0.617  -2.971  0.00  0.00    +0.339 C 
ATOM     45  C   UNL     1       2.718  -0.738  -3.239  0.00  0.00    +0.214 C 
ATOM     46  C   UNL     1       1.875  -1.911  -2.721  0.00  0.00    +0.180 C 
ATOM     47  C   UNL     1       1.376  -1.661  -1.293  0.00  0.00    +0.174 C 
BRANCH  47  48
ATOM     48  O   UNL     1       2.500  -1.764  -0.401  0.00  0.00    -0.387 OA
ATOM     49  H   UNL     1       2.913  -0.882  -0.329  0.00  0.00    +0.210 HD
ENDBRANCH  47  48
BRANCH  46  50
ATOM     50  O   UNL     1       0.807  -2.208  -3.632  0.00  0.00    -0.386 OA
ATOM     51  H   UNL     1       0.364  -1.393  -3.919  0.00  0.00    +0.210 HD
ENDBRANCH  46  50
BRANCH  45  52
ATOM     52  O   UNL     1       2.980  -0.912  -4.642  0.00  0.00    -0.383 OA
ATOM     53  H   UNL     1       2.391  -1.620  -4.968  0.00  0.00    +0.210 HD
ENDBRANCH  45  52
ENDBRANCH  40  44
ENDBRANCH   1  40
TORSDOF 16
