REMARK  Name = 
REMARK  12 active torsions:
REMARK  status: ('A' for Active; 'I' for Inactive)
REMARK    1  A    between atoms: C_3  and  O_22
REMARK    2  A    between atoms: C_4  and  O_21
REMARK    3  A    between atoms: C_6  and  C_7
REMARK    4  A    between atoms: C_8  and  O_20
REMARK    5  A    between atoms: C_12  and  O_19
REMARK    6  A    between atoms: C_14  and  O_18
REMARK    7  A    between atoms: O_22  and  C_23
REMARK    8  A    between atoms: C_24  and  O_34
REMARK    9  A    between atoms: C_25  and  O_33
REMARK   10  A    between atoms: C_26  and  O_32
REMARK   11  A    between atoms: C_27  and  C_29
REMARK   12  A    between atoms: C_29  and  O_31
REMARK                            x       y       z     vdW  Elec       q    Type
REMARK                         _______ _______ _______ _____ _____    ______ ____
ROOT
ATOM      1  C   UNL     1      -1.410  -0.122   0.282  0.00  0.00    +0.015 A 
ATOM      2  C   UNL     1      -0.691  -1.280  -0.035  0.00  0.00    +0.025 A 
ATOM      3  C   UNL     1       0.697  -1.146  -0.187  0.00  0.00    +0.060 A 
ATOM      4  C   UNL     1       1.292   0.129  -0.205  0.00  0.00    +0.159 A 
ATOM      5  C   UNL     1       0.526   1.292  -0.094  0.00  0.00    +0.165 A 
ATOM      6  C   UNL     1      -0.818   1.141   0.239  0.00  0.00    +0.050 A 
ENDROOT
BRANCH   2   7
ATOM      7  C   UNL     1      -1.414  -2.572  -0.210  0.00  0.00    +0.181 A 
ATOM      8  O   UNL     1      -0.702  -3.688   0.221  0.00  0.00    -0.451 OA
ATOM      9  C   UNL     1      -1.271  -4.932   0.068  0.00  0.00    +0.147 A 
ATOM     10  C   UNL     1      -2.566  -5.121  -0.405  0.00  0.00    +0.109 A 
ATOM     11  C   UNL     1      -3.101  -6.410  -0.528  0.00  0.00    +0.135 A 
ATOM     12  C   UNL     1      -2.336  -7.518  -0.188  0.00  0.00    +0.091 A 
ATOM     13  C   UNL     1      -1.038  -7.324   0.278  0.00  0.00    +0.124 A 
ATOM     14  C   UNL     1      -3.344  -3.949  -0.798  0.00  0.00    +0.238 A 
ATOM     15  O   UNL     1      -4.505  -4.079  -1.173  0.00  0.00    -0.283 OA
ATOM     16  C   UNL     1      -0.500  -6.042   0.411  0.00  0.00    +0.092 A 
ATOM     17  C   UNL     1      -2.652  -2.639  -0.753  0.00  0.00    +0.208 A 
BRANCH  11  18
ATOM     18  O   UNL     1      -4.369  -6.654  -0.983  0.00  0.00    -0.506 OA
ATOM     19  H   UNL     1      -4.799  -5.788  -1.178  0.00  0.00    +0.292 HD
ENDBRANCH  11  18
BRANCH  13  20
ATOM     20  O   UNL     1      -0.252  -8.384   0.621  0.00  0.00    -0.507 OA
ATOM     21  H   UNL     1      -0.758  -9.204   0.482  0.00  0.00    +0.292 HD
ENDBRANCH  13  20
BRANCH  17  22
ATOM     22  O   UNL     1      -3.349  -1.573  -1.294  0.00  0.00    -0.501 OA
ATOM     23  H   UNL     1      -2.707  -0.993  -1.738  0.00  0.00    +0.292 HD
ENDBRANCH  17  22
ENDBRANCH   2   7
BRANCH   4  24
ATOM     24  O   UNL     1       2.649   0.202  -0.361  0.00  0.00    -0.503 OA
ATOM     25  H   UNL     1       2.896   1.133  -0.196  0.00  0.00    +0.292 HD
ENDBRANCH   4  24
BRANCH   5  26
ATOM     26  O   UNL     1       1.130   2.506  -0.371  0.00  0.00    -0.457 OA
BRANCH  26  27
ATOM     27  C   UNL     1       0.195   3.586  -0.593  0.00  0.00    +0.340 C 
ATOM     28  O   UNL     1      -0.718   3.265  -1.668  0.00  0.00    -0.322 OA
ATOM     29  C   UNL     1      -0.112   3.469  -2.959  0.00  0.00    +0.261 C 
ATOM     30  C   UNL     1      -0.024   4.975  -3.145  0.00  0.00    +0.185 C 
ATOM     31  C   UNL     1       1.070   5.459  -2.194  0.00  0.00    +0.180 C 
ATOM     32  C   UNL     1       0.820   5.004  -0.744  0.00  0.00    +0.214 C 
BRANCH  29  33
ATOM     33  C   UNL     1      -0.964   2.818  -4.037  0.00  0.00    +0.337 C 
ATOM     34  O   UNL     1      -0.808   2.964  -5.240  0.00  0.00    -0.248 OA
BRANCH  33  35
ATOM     35  O   UNL     1      -1.924   2.018  -3.503  0.00  0.00    -0.479 OA
ATOM     36  H   UNL     1      -1.861   2.059  -2.525  0.00  0.00    +0.295 HD
ENDBRANCH  33  35
ENDBRANCH  29  33
BRANCH  30  37
ATOM     37  O   UNL     1      -1.248   5.636  -2.751  0.00  0.00    -0.386 OA
ATOM     38  H   UNL     1      -1.861   4.967  -2.389  0.00  0.00    +0.210 HD
ENDBRANCH  30  37
BRANCH  31  39
ATOM     39  O   UNL     1       1.115   6.899  -2.212  0.00  0.00    -0.386 OA
ATOM     40  H   UNL     1       0.189   7.196  -2.324  0.00  0.00    +0.210 HD
ENDBRANCH  31  39
BRANCH  32  41
ATOM     41  O   UNL     1       2.007   5.156   0.040  0.00  0.00    -0.383 OA
ATOM     42  H   UNL     1       2.469   5.947  -0.303  0.00  0.00    +0.210 HD
ENDBRANCH  32  41
ENDBRANCH  26  27
ENDBRANCH   5  26
TORSDOF 12
