REMARK  Name = 
REMARK  8 active torsions:
REMARK  status: ('A' for Active; 'I' for Inactive)
REMARK    1  A    between atoms: C_3  and  O_22
REMARK    2  A    between atoms: C_4  and  O_21
REMARK    3  A    between atoms: C_6  and  C_7
REMARK    4  A    between atoms: C_8  and  O_20
REMARK    5  A    between atoms: C_12  and  O_19
REMARK    6  A    between atoms: C_14  and  O_18
REMARK    7  A    between atoms: O_22  and  S_23
REMARK    8  A    between atoms: S_23  and  O_26
REMARK                            x       y       z     vdW  Elec       q    Type
REMARK                         _______ _______ _______ _____ _____    ______ ____
ROOT
ATOM      1  C   UNL     1      -1.466  -2.535  -0.230  0.00  0.00    +0.181 A 
ATOM      2  O   UNL     1      -0.702  -3.676   0.024  0.00  0.00    -0.451 OA
ATOM      3  C   UNL     1      -1.263  -4.916  -0.147  0.00  0.00    +0.147 A 
ATOM      4  C   UNL     1      -2.600  -5.096  -0.478  0.00  0.00    +0.109 A 
ATOM      5  C   UNL     1      -3.123  -6.388  -0.619  0.00  0.00    +0.135 A 
ATOM      6  C   UNL     1      -2.308  -7.502  -0.441  0.00  0.00    +0.091 A 
ATOM      7  C   UNL     1      -0.968  -7.308  -0.119  0.00  0.00    +0.124 A 
ATOM      8  C   UNL     1      -3.429  -3.910  -0.699  0.00  0.00    +0.238 A 
ATOM      9  O   UNL     1      -4.620  -4.043  -0.962  0.00  0.00    -0.283 OA
ATOM     10  C   UNL     1      -0.439  -6.029   0.032  0.00  0.00    +0.092 A 
ATOM     11  C   UNL     1      -2.760  -2.582  -0.620  0.00  0.00    +0.208 A 
ENDROOT
BRANCH   1  13
ATOM     12  C   UNL     1       0.693  -1.254  -0.205  0.00  0.00    +0.015 A 
ATOM     13  C   UNL     1      -0.698  -1.278   0.005  0.00  0.00    +0.025 A 
ATOM     14  C   UNL     1      -1.293  -0.111   0.514  0.00  0.00    +0.061 A 
ATOM     15  C   UNL     1      -0.524   1.021   0.789  0.00  0.00    +0.162 A 
ATOM     16  C   UNL     1       0.860   1.015   0.626  0.00  0.00    +0.200 A 
ATOM     17  C   UNL     1       1.466  -0.125   0.102  0.00  0.00    +0.053 A 
BRANCH  15  18
ATOM     18  O   UNL     1      -1.182   2.131   1.243  0.00  0.00    -0.503 OA
ATOM     19  H   UNL     1      -0.531   2.851   1.313  0.00  0.00    +0.292 HD
ENDBRANCH  15  18
BRANCH  16  20
ATOM     20  O   UNL     1       1.533   2.153   0.983  0.00  0.00    -0.321 OA
BRANCH  20  21
ATOM     21  S   UNL     1       3.032   2.071   1.624  0.00  0.00    +0.251 S 
ATOM     22  O   UNL     1       3.991   1.868   0.564  0.00  0.00    -0.108 OA
ATOM     23  O   UNL     1       3.000   1.232   2.803  0.00  0.00    -0.108 OA
BRANCH  21  24
ATOM     24  O   UNL     1       3.249   3.562   2.195  0.00  0.00    -0.222 OA
ATOM     25  H   UNL     1       3.158   3.515   3.170  0.00  0.00    +0.248 HD
ENDBRANCH  21  24
ENDBRANCH  20  21
ENDBRANCH  16  20
ENDBRANCH   1  13
BRANCH   5  26
ATOM     26  O   UNL     1      -4.433  -6.633  -0.936  0.00  0.00    -0.506 OA
ATOM     27  H   UNL     1      -4.893  -5.765  -1.022  0.00  0.00    +0.292 HD
ENDBRANCH   5  26
BRANCH   7  28
ATOM     28  O   UNL     1      -0.130  -8.375   0.056  0.00  0.00    -0.507 OA
ATOM     29  H   UNL     1      -0.632  -9.196  -0.077  0.00  0.00    +0.292 HD
ENDBRANCH   7  28
BRANCH  11  30
ATOM     30  O   UNL     1      -3.532  -1.491  -0.971  0.00  0.00    -0.501 OA
ATOM     31  H   UNL     1      -2.949  -0.784  -1.293  0.00  0.00    +0.292 HD
ENDBRANCH  11  30
TORSDOF 8
