REMARK  Name = 
REMARK  6 active torsions:
REMARK  status: ('A' for Active; 'I' for Inactive)
REMARK    1  A    between atoms: C_4  and  O_25
REMARK    2  A    between atoms: C_6  and  C_7
REMARK    3  A    between atoms: C_8  and  O_20
REMARK    4  A    between atoms: C_12  and  O_19
REMARK    5  A    between atoms: C_14  and  O_18
REMARK    6  A    between atoms: O_20  and  S_21
REMARK                            x       y       z     vdW  Elec       q    Type
REMARK                         _______ _______ _______ _____ _____    ______ ____
ROOT
ATOM      1  C   UNL     1      -1.347  -2.511  -0.180  0.00  0.00    +0.184 A 
ATOM      2  O   UNL     1      -0.584  -3.670  -0.076  0.00  0.00    -0.451 OA
ATOM      3  C   UNL     1      -1.187  -4.885  -0.227  0.00  0.00    +0.147 A 
ATOM      4  C   UNL     1      -2.531  -5.011  -0.535  0.00  0.00    +0.109 A 
ATOM      5  C   UNL     1      -3.093  -6.291  -0.670  0.00  0.00    +0.135 A 
ATOM      6  C   UNL     1      -2.319  -7.432  -0.487  0.00  0.00    +0.091 A 
ATOM      7  C   UNL     1      -0.972  -7.288  -0.173  0.00  0.00    +0.124 A 
ATOM      8  C   UNL     1      -3.342  -3.799  -0.677  0.00  0.00    +0.241 A 
ATOM      9  O   UNL     1      -4.531  -3.989  -0.906  0.00  0.00    -0.283 OA
ATOM     10  C   UNL     1      -0.398  -6.025  -0.048  0.00  0.00    +0.092 A 
ATOM     11  C   UNL     1      -2.669  -2.478  -0.475  0.00  0.00    +0.244 A 
ENDROOT
BRANCH   1  13
ATOM     12  C   UNL     1       0.285  -0.810  -0.993  0.00  0.00    +0.011 A 
ATOM     13  C   UNL     1      -0.491  -1.327   0.052  0.00  0.00    +0.025 A 
ATOM     14  C   UNL     1      -0.268  -0.841   1.340  0.00  0.00    +0.056 A 
ATOM     15  C   UNL     1       0.755   0.091   1.547  0.00  0.00    +0.110 A 
ATOM     16  C   UNL     1       1.607   0.604   0.543  0.00  0.00    -0.066 A 
ATOM     17  O   UNL     1       2.564   1.417   0.802  0.00  0.00    -0.871 OA
ATOM     18  C   UNL     1       1.307   0.129  -0.742  0.00  0.00    -0.004 A 
BRANCH  15  19
ATOM     19  O   UNL     1       1.008   0.538   2.828  0.00  0.00    -0.507 OA
ATOM     20  H   UNL     1       1.759   1.146   2.608  0.00  0.00    +0.292 HD
ENDBRANCH  15  19
ENDBRANCH   1  13
BRANCH   5  21
ATOM     21  O   UNL     1      -4.413  -6.501  -0.977  0.00  0.00    -0.506 OA
ATOM     22  H   UNL     1      -4.831  -5.607  -1.071  0.00  0.00    +0.292 HD
ENDBRANCH   5  21
BRANCH   7  23
ATOM     23  O   UNL     1      -0.180  -8.382   0.026  0.00  0.00    -0.507 OA
ATOM     24  H   UNL     1      -0.734  -9.174  -0.074  0.00  0.00    +0.292 HD
ENDBRANCH   7  23
BRANCH  11  25
ATOM     25  O   UNL     1      -3.363  -1.276  -0.542  0.00  0.00    -0.353 OA
BRANCH  25  26
ATOM     26  S   UNL     1      -4.783  -1.063  -1.335  0.00  0.00    +0.043 S 
ATOM     27  O   UNL     1      -4.898   0.392  -1.452  0.00  0.00    -0.259 OA
ATOM     28  O   UNL     1      -5.802  -1.639  -0.459  0.00  0.00    -0.336 OA
ATOM     29  O   UNL     1      -4.598  -1.729  -2.624  0.00  0.00    -0.336 OA
ENDBRANCH  25  26
ENDBRANCH  11  25
TORSDOF 6
