REMARK  Name = 
REMARK  23 active torsions:
REMARK  status: ('A' for Active; 'I' for Inactive)
REMARK    1  A    between atoms: C_1  and  C_2
REMARK    2  A    between atoms: C_3  and  O_54
REMARK    3  A    between atoms: C_4  and  O_53
REMARK    4  A    between atoms: C_5  and  O_52
REMARK    5  A    between atoms: C_6  and  O_8
REMARK    6  A    between atoms: O_8  and  C_9
REMARK    7  A    between atoms: C_11  and  O_51
REMARK    8  A    between atoms: C_16  and  C_43
REMARK    9  A    between atoms: C_17  and  O_20
REMARK   10  A    between atoms: O_20  and  C_21
REMARK   11  A    between atoms: C_22  and  O_42
REMARK   12  A    between atoms: C_23  and  O_41
REMARK   13  A    between atoms: C_24  and  O_40
REMARK   14  A    between atoms: C_25  and  C_27
REMARK   15  A    between atoms: C_27  and  O_28
REMARK   16  A    between atoms: O_28  and  C_29
REMARK   17  A    between atoms: C_30  and  O_39
REMARK   18  A    between atoms: C_31  and  O_38
REMARK   19  A    between atoms: C_32  and  O_37
REMARK   20  A    between atoms: C_33  and  C_35
REMARK   21  A    between atoms: C_35  and  O_36
REMARK   22  A    between atoms: C_45  and  O_50
REMARK   23  A    between atoms: C_46  and  O_49
REMARK                            x       y       z     vdW  Elec       q    Type
REMARK                         _______ _______ _______ _____ _____    ______ ____
ROOT
ATOM      1  C   UNL     1       2.753   2.909  -3.206  0.00  0.00    +0.131 A 
ATOM      2  C   UNL     1       1.505   3.410  -2.815  0.00  0.00    +0.093 A 
ATOM      3  C   UNL     1       1.300   4.791  -2.722  0.00  0.00    +0.147 A 
ATOM      4  O   UNL     1       0.057   5.233  -2.333  0.00  0.00    -0.451 OA
ATOM      5  C   UNL     1      -0.204   6.599  -2.384  0.00  0.00    +0.181 A 
ATOM      6  C   UNL     1       0.723   7.561  -2.592  0.00  0.00    +0.214 A 
ATOM      7  C   UNL     1       2.141   7.086  -2.728  0.00  0.00    +0.238 A 
ATOM      8  O   UNL     1       3.115   7.810  -2.566  0.00  0.00    -0.283 OA
ATOM      9  C   UNL     1       2.346   5.661  -3.001  0.00  0.00    +0.109 A 
ATOM     10  C   UNL     1       3.574   5.164  -3.450  0.00  0.00    +0.135 A 
ATOM     11  C   UNL     1       3.775   3.794  -3.547  0.00  0.00    +0.092 A 
ENDROOT
BRANCH   5  12
ATOM     12  C   UNL     1      -1.620   6.938  -2.109  0.00  0.00    +0.025 A 
ATOM     13  C   UNL     1      -2.015   7.219  -0.788  0.00  0.00    +0.015 A 
ATOM     14  C   UNL     1      -3.342   7.567  -0.503  0.00  0.00    +0.050 A 
ATOM     15  C   UNL     1      -4.261   7.639  -1.539  0.00  0.00    +0.158 A 
ATOM     16  C   UNL     1      -3.882   7.352  -2.847  0.00  0.00    +0.159 A 
ATOM     17  C   UNL     1      -2.564   7.000  -3.145  0.00  0.00    +0.060 A 
BRANCH  16  18
ATOM     18  O   UNL     1      -4.851   7.433  -3.809  0.00  0.00    -0.503 OA
ATOM     19  H   UNL     1      -4.469   7.165  -4.662  0.00  0.00    +0.292 HD
ENDBRANCH  16  18
BRANCH  15  20
ATOM     20  O   UNL     1      -5.550   7.991  -1.257  0.00  0.00    -0.503 OA
ATOM     21  H   UNL     1      -6.006   7.983  -2.123  0.00  0.00    +0.292 HD
ENDBRANCH  15  20
ENDBRANCH   5  12
BRANCH  10  22
ATOM     22  O   UNL     1       4.583   6.006  -3.828  0.00  0.00    -0.506 OA
ATOM     23  H   UNL     1       5.411   5.511  -3.935  0.00  0.00    +0.292 HD
ENDBRANCH  10  22
BRANCH   6  24
ATOM     24  O   UNL     1       0.357   8.911  -2.629  0.00  0.00    -0.453 OA
BRANCH  24  25
ATOM     25  C   UNL     1       1.434   9.860  -2.610  0.00  0.00    +0.340 C 
ATOM     26  O   UNL     1       2.067   9.919  -1.316  0.00  0.00    -0.331 OA
ATOM     27  C   UNL     1       1.200  10.400  -0.275  0.00  0.00    +0.179 C 
ATOM     28  C   UNL     1       0.883  11.860  -0.624  0.00  0.00    +0.177 C 
ATOM     29  C   UNL     1       0.153  11.959  -1.965  0.00  0.00    +0.180 C 
ATOM     30  C   UNL     1       0.955  11.259  -3.066  0.00  0.00    +0.214 C 
BRANCH  30  31
ATOM     31  O   UNL     1       0.230  11.199  -4.302  0.00  0.00    -0.383 OA
ATOM     32  H   UNL     1      -0.666  10.874  -4.105  0.00  0.00    +0.210 HD
ENDBRANCH  30  31
BRANCH  29  33
ATOM     33  O   UNL     1      -0.004  13.349  -2.293  0.00  0.00    -0.386 OA
ATOM     34  H   UNL     1       0.865  13.765  -2.109  0.00  0.00    +0.210 HD
ENDBRANCH  29  33
BRANCH  28  35
ATOM     35  O   UNL     1       2.123  12.599  -0.752  0.00  0.00    -0.386 OA
ATOM     36  H   UNL     1       2.804  11.973  -1.080  0.00  0.00    +0.210 HD
ENDBRANCH  28  35
BRANCH  27  37
ATOM     37  C   UNL     1       1.933  10.379   1.085  0.00  0.00    +0.197 C 
BRANCH  37  38
ATOM     38  O   UNL     1       2.288   9.074   1.576  0.00  0.00    -0.346 OA
BRANCH  38  39
ATOM     39  C   UNL     1       2.796   9.196   2.926  0.00  0.00    +0.282 C 
ATOM     40  O   UNL     1       3.933  10.062   3.014  0.00  0.00    -0.341 OA
ATOM     41  C   UNL     1       5.095   9.570   2.318  0.00  0.00    +0.178 C 
ATOM     42  C   UNL     1       5.535   8.242   2.944  0.00  0.00    +0.177 C 
ATOM     43  C   UNL     1       4.382   7.228   2.904  0.00  0.00    +0.179 C 
ATOM     44  C   UNL     1       3.120   7.823   3.549  0.00  0.00    +0.201 C 
BRANCH  44  45
ATOM     45  O   UNL     1       1.999   6.936   3.453  0.00  0.00    -0.384 OA
ATOM     46  H   UNL     1       1.838   6.797   2.503  0.00  0.00    +0.210 HD
ENDBRANCH  44  45
BRANCH  43  47
ATOM     47  O   UNL     1       4.790   6.039   3.602  0.00  0.00    -0.386 OA
ATOM     48  H   UNL     1       5.244   6.345   4.413  0.00  0.00    +0.210 HD
ENDBRANCH  43  47
BRANCH  42  49
ATOM     49  O   UNL     1       5.922   8.422   4.322  0.00  0.00    -0.386 OA
ATOM     50  H   UNL     1       5.385   9.151   4.692  0.00  0.00    +0.210 HD
ENDBRANCH  42  49
BRANCH  41  51
ATOM     51  C   UNL     1       6.202  10.635   2.430  0.00  0.00    +0.190 C 
BRANCH  51  52
ATOM     52  O   UNL     1       5.819  11.862   1.809  0.00  0.00    -0.392 OA
ATOM     53  H   UNL     1       5.501  11.665   0.913  0.00  0.00    +0.210 HD
ENDBRANCH  51  52
ENDBRANCH  41  51
ENDBRANCH  38  39
ENDBRANCH  37  38
ENDBRANCH  27  37
ENDBRANCH  24  25
ENDBRANCH   6  24
BRANCH   1  54
ATOM     54  O   UNL     1       3.129   1.599  -3.295  0.00  0.00    -0.461 OA
BRANCH  54  58
ATOM     55  C   UNL     1      -0.536  -0.036  -1.795  0.00  0.00    +0.041 C 
ATOM     56  C   UNL     1       0.834  -0.280  -1.154  0.00  0.00    +0.150 C 
ATOM     57  O   UNL     1       1.790   0.697  -1.578  0.00  0.00    -0.334 OA
ATOM     58  C   UNL     1       2.172   0.596  -2.953  0.00  0.00    +0.339 C 
ATOM     59  C   UNL     1       2.840  -0.778  -3.190  0.00  0.00    +0.214 C 
ATOM     60  C   UNL     1       1.852  -1.886  -2.819  0.00  0.00    +0.180 C 
ATOM     61  C   UNL     1       1.363  -1.707  -1.370  0.00  0.00    +0.174 C 
BRANCH  59  62
ATOM     62  O   UNL     1       4.019  -0.956  -2.372  0.00  0.00    -0.383 OA
ATOM     63  H   UNL     1       4.027  -0.224  -1.721  0.00  0.00    +0.210 HD
ENDBRANCH  59  62
BRANCH  60  64
ATOM     64  O   UNL     1       2.466  -3.172  -2.962  0.00  0.00    -0.386 OA
ATOM     65  H   UNL     1       3.369  -3.079  -2.589  0.00  0.00    +0.210 HD
ENDBRANCH  60  64
BRANCH  61  66
ATOM     66  O   UNL     1       0.350  -2.654  -1.027  0.00  0.00    -0.387 OA
ATOM     67  H   UNL     1       0.217  -3.244  -1.790  0.00  0.00    +0.210 HD
ENDBRANCH  61  66
ENDBRANCH  54  58
ENDBRANCH   1  54
TORSDOF 22
