REMARK  Name = 
REMARK  7 active torsions:
REMARK  status: ('A' for Active; 'I' for Inactive)
REMARK    1  A    between atoms: C_4  and  O_25
REMARK    2  A    between atoms: C_6  and  C_7
REMARK    3  A    between atoms: C_8  and  O_20
REMARK    4  A    between atoms: C_12  and  O_19
REMARK    5  A    between atoms: C_14  and  O_18
REMARK    6  A    between atoms: O_20  and  S_21
REMARK    7  A    between atoms: O_25  and  S_26
REMARK                            x       y       z     vdW  Elec       q    Type
REMARK                         _______ _______ _______ _____ _____    ______ ____
ROOT
ATOM      1  C   UNL     1      -1.419  -2.482  -0.128  0.00  0.00    +0.184 A 
ATOM      2  O   UNL     1      -0.648  -3.639  -0.020  0.00  0.00    -0.451 OA
ATOM      3  C   UNL     1      -1.234  -4.860  -0.195  0.00  0.00    +0.147 A 
ATOM      4  C   UNL     1      -2.573  -5.000  -0.506  0.00  0.00    +0.109 A 
ATOM      5  C   UNL     1      -3.118  -6.287  -0.659  0.00  0.00    +0.135 A 
ATOM      6  C   UNL     1      -2.330  -7.420  -0.490  0.00  0.00    +0.091 A 
ATOM      7  C   UNL     1      -0.982  -7.261  -0.182  0.00  0.00    +0.124 A 
ATOM      8  C   UNL     1      -3.395  -3.793  -0.645  0.00  0.00    +0.241 A 
ATOM      9  O   UNL     1      -4.583  -3.998  -0.872  0.00  0.00    -0.283 OA
ATOM     10  C   UNL     1      -0.426  -5.992  -0.037  0.00  0.00    +0.092 A 
ATOM     11  C   UNL     1      -2.734  -2.462  -0.455  0.00  0.00    +0.244 A 
ENDROOT
BRANCH   1  13
ATOM     12  C   UNL     1       0.206  -0.796  -0.949  0.00  0.00    +0.011 A 
ATOM     13  C   UNL     1      -0.558  -1.295   0.104  0.00  0.00    +0.025 A 
ATOM     14  C   UNL     1      -0.298  -0.809   1.396  0.00  0.00    +0.059 A 
ATOM     15  C   UNL     1       0.755   0.109   1.635  0.00  0.00    +0.148 A 
ATOM     16  C   UNL     1       1.586   0.603   0.573  0.00  0.00    -0.062 A 
ATOM     17  O   UNL     1       2.581   1.403   0.709  0.00  0.00    -0.871 OA
ATOM     18  C   UNL     1       1.240   0.122  -0.708  0.00  0.00    -0.004 A 
BRANCH  15  19
ATOM     19  O   UNL     1       1.059   0.591   2.906  0.00  0.00    -0.361 OA
BRANCH  19  20
ATOM     20  S   UNL     1       0.548  -0.046   4.322  0.00  0.00    +0.042 S 
ATOM     21  O   UNL     1      -0.859   0.347   4.451  0.00  0.00    -0.259 OA
ATOM     22  O   UNL     1       1.399   0.580   5.340  0.00  0.00    -0.336 OA
ATOM     23  O   UNL     1       0.747  -1.495   4.237  0.00  0.00    -0.336 OA
ENDBRANCH  19  20
ENDBRANCH  15  19
ENDBRANCH   1  13
BRANCH   5  24
ATOM     24  O   UNL     1      -4.437  -6.508  -0.971  0.00  0.00    -0.506 OA
ATOM     25  H   UNL     1      -4.861  -5.614  -1.040  0.00  0.00    +0.292 HD
ENDBRANCH   5  24
BRANCH   7  26
ATOM     26  O   UNL     1      -0.178  -8.351  -0.009  0.00  0.00    -0.507 OA
ATOM     27  H   UNL     1      -0.737  -9.143  -0.056  0.00  0.00    +0.292 HD
ENDBRANCH   7  26
BRANCH  11  28
ATOM     28  O   UNL     1      -3.444  -1.271  -0.578  0.00  0.00    -0.353 OA
BRANCH  28  29
ATOM     29  S   UNL     1      -4.835  -1.099  -1.433  0.00  0.00    +0.043 S 
ATOM     30  O   UNL     1      -4.958   0.347  -1.626  0.00  0.00    -0.259 OA
ATOM     31  O   UNL     1      -5.894  -1.642  -0.582  0.00  0.00    -0.336 OA
ATOM     32  O   UNL     1      -4.603  -1.817  -2.690  0.00  0.00    -0.336 OA
ENDBRANCH  28  29
ENDBRANCH  11  28
TORSDOF 7
