REMARK  Name = 
REMARK  6 active torsions:
REMARK  status: ('A' for Active; 'I' for Inactive)
REMARK    1  A    between atoms: C_3  and  O_23
REMARK    2  A    between atoms: C_4  and  O_22
REMARK    3  A    between atoms: C_6  and  C_7
REMARK    4  A    between atoms: C_8  and  O_21
REMARK    5  A    between atoms: C_15  and  O_19
REMARK    6  A    between atoms: C_17  and  O_18
REMARK                            x       y       z     vdW  Elec       q    Type
REMARK                         _______ _______ _______ _____ _____    ______ ____
ROOT
ATOM      1  C   UNL     1      -1.469  -2.512  -0.201  0.00  0.00    +0.181 A 
ATOM      2  O   UNL     1      -0.725  -3.648   0.071  0.00  0.00    -0.451 OA
ATOM      3  C   UNL     1      -1.266  -4.907  -0.129  0.00  0.00    +0.139 A 
ATOM      4  C   UNL     1      -0.376  -6.006   0.031  0.00  0.00    -0.021 A 
ATOM      5  O   UNL     1       0.875  -5.920   0.305  0.00  0.00    -0.869 OA
ATOM      6  C   UNL     1      -0.988  -7.269  -0.143  0.00  0.00    +0.116 A 
ATOM      7  C   UNL     1      -2.325  -7.477  -0.451  0.00  0.00    +0.091 A 
ATOM      8  C   UNL     1      -3.146  -6.370  -0.613  0.00  0.00    +0.135 A 
ATOM      9  C   UNL     1      -2.623  -5.078  -0.456  0.00  0.00    +0.109 A 
ATOM     10  C   UNL     1      -3.453  -3.870  -0.646  0.00  0.00    +0.238 A 
ATOM     11  O   UNL     1      -4.662  -3.908  -0.858  0.00  0.00    -0.283 OA
ATOM     12  C   UNL     1      -2.756  -2.552  -0.597  0.00  0.00    +0.208 A 
ENDROOT
BRANCH   1  14
ATOM     13  C   UNL     1       0.703  -1.242  -0.192  0.00  0.00    +0.015 A 
ATOM     14  C   UNL     1      -0.692  -1.255   0.015  0.00  0.00    +0.025 A 
ATOM     15  C   UNL     1      -1.291  -0.078   0.501  0.00  0.00    +0.060 A 
ATOM     16  C   UNL     1      -0.527   1.062   0.723  0.00  0.00    +0.159 A 
ATOM     17  C   UNL     1       0.848   1.055   0.520  0.00  0.00    +0.158 A 
ATOM     18  C   UNL     1       1.472  -0.097   0.062  0.00  0.00    +0.050 A 
BRANCH  16  19
ATOM     19  O   UNL     1      -1.141   2.201   1.165  0.00  0.00    -0.503 OA
ATOM     20  H   UNL     1      -0.413   2.844   1.266  0.00  0.00    +0.292 HD
ENDBRANCH  16  19
BRANCH  17  21
ATOM     21  O   UNL     1       1.543   2.195   0.808  0.00  0.00    -0.503 OA
ATOM     22  H   UNL     1       2.490   1.975   0.774  0.00  0.00    +0.292 HD
ENDBRANCH  17  21
ENDBRANCH   1  14
BRANCH   6  23
ATOM     23  O   UNL     1      -0.176  -8.374   0.006  0.00  0.00    -0.507 OA
ATOM     24  H   UNL     1       0.669  -7.900   0.212  0.00  0.00    +0.292 HD
ENDBRANCH   6  23
BRANCH   8  25
ATOM     25  O   UNL     1      -4.459  -6.579  -0.936  0.00  0.00    -0.506 OA
ATOM     26  H   UNL     1      -4.622  -7.533  -0.985  0.00  0.00    +0.292 HD
ENDBRANCH   8  25
BRANCH  12  27
ATOM     27  O   UNL     1      -3.501  -1.445  -0.978  0.00  0.00    -0.501 OA
ATOM     28  H   UNL     1      -2.881  -0.784  -1.324  0.00  0.00    +0.292 HD
ENDBRANCH  12  27
TORSDOF 6
