REMARK  Name = 
REMARK  7 active torsions:
REMARK  status: ('A' for Active; 'I' for Inactive)
REMARK    1  A    between atoms: C_3  and  O_26
REMARK    2  A    between atoms: C_4  and  O_25
REMARK    3  A    between atoms: C_6  and  C_7
REMARK    4  A    between atoms: C_8  and  O_20
REMARK    5  A    between atoms: C_14  and  O_18
REMARK    6  A    between atoms: O_20  and  S_21
REMARK    7  A    between atoms: O_26  and  S_27
REMARK                            x       y       z     vdW  Elec       q    Type
REMARK                         _______ _______ _______ _____ _____    ______ ____
ROOT
ATOM      1  C   UNL     1      -1.395  -2.469  -0.181  0.00  0.00    +0.184 A 
ATOM      2  O   UNL     1      -0.651  -3.646  -0.132  0.00  0.00    -0.451 OA
ATOM      3  C   UNL     1      -1.262  -4.869  -0.242  0.00  0.00    +0.142 A 
ATOM      4  C   UNL     1      -2.625  -5.040  -0.536  0.00  0.00    +0.060 A 
ATOM      5  C   UNL     1      -3.190  -6.362  -0.654  0.00  0.00    -0.090 A 
ATOM      6  O   UNL     1      -4.408  -6.659  -0.904  0.00  0.00    -0.873 OA
ATOM      7  C   UNL     1      -2.282  -7.426  -0.453  0.00  0.00    +0.038 A 
ATOM      8  C   UNL     1      -0.934  -7.242  -0.156  0.00  0.00    +0.120 A 
ATOM      9  C   UNL     1      -3.407  -3.768  -0.717  0.00  0.00    +0.237 A 
ATOM     10  O   UNL     1      -4.583  -3.740  -1.086  0.00  0.00    -0.283 OA
ATOM     11  C   UNL     1      -0.417  -5.968  -0.049  0.00  0.00    +0.092 A 
ATOM     12  C   UNL     1      -2.724  -2.450  -0.438  0.00  0.00    +0.244 A 
ENDROOT
BRANCH   1  14
ATOM     13  C   UNL     1       0.351  -0.901  -0.999  0.00  0.00    +0.015 A 
ATOM     14  C   UNL     1      -0.471  -1.329   0.061  0.00  0.00    +0.025 A 
ATOM     15  C   UNL     1      -0.224  -0.812   1.339  0.00  0.00    +0.061 A 
ATOM     16  C   UNL     1       0.857   0.058   1.538  0.00  0.00    +0.162 A 
ATOM     17  C   UNL     1       1.724   0.409   0.493  0.00  0.00    +0.196 A 
ATOM     18  C   UNL     1       1.437  -0.039  -0.789  0.00  0.00    +0.053 A 
BRANCH  16  19
ATOM     19  O   UNL     1       1.080   0.552   2.801  0.00  0.00    -0.503 OA
ATOM     20  H   UNL     1       1.821   1.178   2.687  0.00  0.00    +0.292 HD
ENDBRANCH  16  19
BRANCH  17  21
ATOM     21  O   UNL     1       2.782   1.230   0.810  0.00  0.00    -0.357 OA
BRANCH  21  22
ATOM     22  S   UNL     1       4.261   1.082   0.108  0.00  0.00    +0.043 S 
ATOM     23  O   UNL     1       5.111   1.936   0.941  0.00  0.00    -0.259 OA
ATOM     24  O   UNL     1       4.099   1.585  -1.255  0.00  0.00    -0.336 OA
ATOM     25  O   UNL     1       4.604  -0.336   0.200  0.00  0.00    -0.336 OA
ENDBRANCH  21  22
ENDBRANCH  17  21
ENDBRANCH   1  14
BRANCH   8  26
ATOM     26  O   UNL     1      -0.118  -8.321   0.031  0.00  0.00    -0.507 OA
ATOM     27  H   UNL     1      -0.683  -9.102  -0.096  0.00  0.00    +0.292 HD
ENDBRANCH   8  26
BRANCH  12  28
ATOM     28  O   UNL     1      -3.621  -1.404  -0.443  0.00  0.00    -0.353 OA
BRANCH  28  29
ATOM     29  S   UNL     1      -3.415   0.162  -0.798  0.00  0.00    +0.043 S 
ATOM     30  O   UNL     1      -4.738   0.590  -1.264  0.00  0.00    -0.259 OA
ATOM     31  O   UNL     1      -2.399   0.215  -1.845  0.00  0.00    -0.336 OA
ATOM     32  O   UNL     1      -3.039   0.770   0.477  0.00  0.00    -0.336 OA
ENDBRANCH  28  29
ENDBRANCH  12  28
TORSDOF 7
