REMARK  Name = 
REMARK  11 active torsions:
REMARK  status: ('A' for Active; 'I' for Inactive)
REMARK    1  A    between atoms: C_4  and  O_37
REMARK    2  A    between atoms: C_6  and  C_7
REMARK    3  A    between atoms: C_8  and  O_20
REMARK    4  A    between atoms: C_12  and  O_19
REMARK    5  A    between atoms: C_14  and  O_18
REMARK    6  A    between atoms: O_20  and  C_21
REMARK    7  A    between atoms: C_23  and  O_36
REMARK    8  A    between atoms: C_25  and  O_35
REMARK    9  A    between atoms: C_27  and  O_34
REMARK   10  A    between atoms: C_29  and  C_32
REMARK   11  A    between atoms: C_32  and  O_33
REMARK                            x       y       z     vdW  Elec       q    Type
REMARK                         _______ _______ _______ _____ _____    ______ ____
ROOT
ATOM      1  C   UNL     1      -1.380  -2.574   0.859  0.00  0.00    +0.181 A 
ATOM      2  O   UNL     1      -0.714  -3.795   0.978  0.00  0.00    -0.451 OA
ATOM      3  C   UNL     1      -1.253  -4.922   0.439  0.00  0.00    +0.147 A 
ATOM      4  C   UNL     1      -2.558  -4.975  -0.023  0.00  0.00    +0.109 A 
ATOM      5  C   UNL     1      -3.087  -6.200  -0.441  0.00  0.00    +0.135 A 
ATOM      6  C   UNL     1      -2.290  -7.354  -0.451  0.00  0.00    +0.091 A 
ATOM      7  C   UNL     1      -0.962  -7.266  -0.044  0.00  0.00    +0.124 A 
ATOM      8  C   UNL     1      -3.313  -3.705  -0.090  0.00  0.00    +0.238 A 
ATOM      9  O   UNL     1      -4.484  -3.723  -0.450  0.00  0.00    -0.283 OA
ATOM     10  C   UNL     1      -0.441  -6.060   0.409  0.00  0.00    +0.092 A 
ATOM     11  C   UNL     1      -2.582  -2.438   0.250  0.00  0.00    +0.214 A 
ENDROOT
BRANCH   1  13
ATOM     12  C   UNL     1       0.800  -1.644   1.680  0.00  0.00    +0.011 A 
ATOM     13  C   UNL     1      -0.577  -1.474   1.464  0.00  0.00    +0.024 A 
ATOM     14  C   UNL     1      -1.138  -0.274   1.904  0.00  0.00    +0.056 A 
ATOM     15  C   UNL     1      -0.323   0.716   2.454  0.00  0.00    +0.110 A 
ATOM     16  C   UNL     1       1.056   0.585   2.692  0.00  0.00    -0.066 A 
ATOM     17  O   UNL     1       1.751   1.516   3.226  0.00  0.00    -0.871 OA
ATOM     18  C   UNL     1       1.583  -0.648   2.293  0.00  0.00    -0.004 A 
BRANCH  15  19
ATOM     19  O   UNL     1      -0.892   1.923   2.790  0.00  0.00    -0.507 OA
ATOM     20  H   UNL     1      -0.073   2.375   3.111  0.00  0.00    +0.292 HD
ENDBRANCH  15  19
ENDBRANCH   1  13
BRANCH   5  21
ATOM     21  O   UNL     1      -4.383  -6.358  -0.847  0.00  0.00    -0.506 OA
ATOM     22  H   UNL     1      -4.833  -5.488  -0.756  0.00  0.00    +0.292 HD
ENDBRANCH   5  21
BRANCH   7  23
ATOM     23  O   UNL     1      -0.134  -8.348  -0.063  0.00  0.00    -0.507 OA
ATOM     24  H   UNL     1      -0.635  -9.127  -0.357  0.00  0.00    +0.292 HD
ENDBRANCH   7  23
BRANCH  11  25
ATOM     25  O   UNL     1      -3.221  -1.223  -0.056  0.00  0.00    -0.453 OA
BRANCH  25  26
ATOM     26  C   UNL     1      -2.468  -0.424  -0.997  0.00  0.00    +0.340 C 
ATOM     27  O   UNL     1      -2.339   0.946  -0.613  0.00  0.00    -0.331 OA
ATOM     28  C   UNL     1      -3.239   1.976  -1.038  0.00  0.00    +0.179 C 
ATOM     29  C   UNL     1      -4.005   1.724  -2.352  0.00  0.00    +0.177 C 
ATOM     30  C   UNL     1      -4.315   0.239  -2.559  0.00  0.00    +0.180 C 
ATOM     31  C   UNL     1      -3.026  -0.581  -2.418  0.00  0.00    +0.214 C 
BRANCH  29  32
ATOM     32  O   UNL     1      -3.243   2.229  -3.465  0.00  0.00    -0.386 OA
ATOM     33  H   UNL     1      -2.557   1.560  -3.673  0.00  0.00    +0.210 HD
ENDBRANCH  29  32
BRANCH  30  34
ATOM     34  O   UNL     1      -5.360  -0.184  -1.681  0.00  0.00    -0.386 OA
ATOM     35  H   UNL     1      -4.983  -0.447  -0.818  0.00  0.00    +0.210 HD
ENDBRANCH  30  34
BRANCH  31  36
ATOM     36  O   UNL     1      -2.063  -0.126  -3.397  0.00  0.00    -0.383 OA
ATOM     37  H   UNL     1      -1.177  -0.124  -2.983  0.00  0.00    +0.210 HD
ENDBRANCH  31  36
BRANCH  28  38
ATOM     38  C   UNL     1      -4.161   2.413   0.118  0.00  0.00    +0.190 C 
BRANCH  38  39
ATOM     39  O   UNL     1      -4.817   3.655  -0.151  0.00  0.00    -0.392 OA
ATOM     40  H   UNL     1      -5.523   3.503  -0.800  0.00  0.00    +0.210 HD
ENDBRANCH  38  39
ENDBRANCH  28  38
ENDBRANCH  25  26
ENDBRANCH  11  25
TORSDOF 11
