REMARK  Name = 
REMARK  14 active torsions:
REMARK  status: ('A' for Active; 'I' for Inactive)
REMARK    1  A    between atoms: C_1  and  C_2
REMARK    2  A    between atoms: C_2  and  O_4
REMARK    3  A    between atoms: O_4  and  C_5
REMARK    4  A    between atoms: C_5  and  C_6
REMARK    5  A    between atoms: C_8  and  O_41
REMARK    6  A    between atoms: C_10  and  O_40
REMARK    7  A    between atoms: C_12  and  O_39
REMARK    8  A    between atoms: C_14  and  O_17
REMARK    9  A    between atoms: O_17  and  C_18
REMARK   10  A    between atoms: C_19  and  C_31
REMARK   11  A    between atoms: C_23  and  O_30
REMARK   12  A    between atoms: C_25  and  O_29
REMARK   13  A    between atoms: C_33  and  O_38
REMARK   14  A    between atoms: C_34  and  O_37
REMARK                            x       y       z     vdW  Elec       q    Type
REMARK                         _______ _______ _______ _____ _____    ______ ____
ROOT
ATOM      1  C   UNL     1       9.240   0.631   1.886  0.00  0.00    +0.214 A 
ATOM      2  C   UNL     1       8.519   1.832   2.415  0.00  0.00    +0.238 A 
ATOM      3  O   UNL     1       7.682   1.748   3.302  0.00  0.00    -0.283 OA
ATOM      4  C   UNL     1       8.898   3.143   1.887  0.00  0.00    +0.109 A 
ATOM      5  C   UNL     1      10.089   3.230   1.178  0.00  0.00    +0.147 A 
ATOM      6  C   UNL     1      10.580   4.487   0.813  0.00  0.00    +0.092 A 
ATOM      7  C   UNL     1       9.857   5.634   1.144  0.00  0.00    +0.124 A 
ATOM      8  C   UNL     1       8.632   5.549   1.792  0.00  0.00    +0.091 A 
ATOM      9  O   UNL     1      10.826   2.128   0.825  0.00  0.00    -0.451 OA
ATOM     10  C   UNL     1       8.147   4.298   2.154  0.00  0.00    +0.135 A 
ATOM     11  C   UNL     1      10.342   0.852   1.131  0.00  0.00    +0.181 A 
ENDROOT
BRANCH  11  12
ATOM     12  C   UNL     1      11.222  -0.246   0.609  0.00  0.00    +0.025 A 
ATOM     13  C   UNL     1      12.611  -0.048   0.500  0.00  0.00    +0.015 A 
ATOM     14  C   UNL     1      13.466  -1.078   0.081  0.00  0.00    +0.050 A 
ATOM     15  C   UNL     1      12.933  -2.315  -0.241  0.00  0.00    +0.158 A 
ATOM     16  C   UNL     1      11.562  -2.520  -0.195  0.00  0.00    +0.159 A 
ATOM     17  C   UNL     1      10.706  -1.492   0.199  0.00  0.00    +0.060 A 
BRANCH  15  18
ATOM     18  O   UNL     1      13.768  -3.336  -0.594  0.00  0.00    -0.503 OA
ATOM     19  H   UNL     1      13.175  -4.104  -0.721  0.00  0.00    +0.292 HD
ENDBRANCH  15  18
BRANCH  16  20
ATOM     20  O   UNL     1      11.086  -3.757  -0.535  0.00  0.00    -0.503 OA
ATOM     21  H   UNL     1      10.120  -3.749  -0.408  0.00  0.00    +0.292 HD
ENDBRANCH  16  20
ENDBRANCH  11  12
BRANCH   7  22
ATOM     22  O   UNL     1      10.307   6.885   0.840  0.00  0.00    -0.507 OA
ATOM     23  H   UNL     1      11.199   6.822   0.460  0.00  0.00    +0.292 HD
ENDBRANCH   7  22
BRANCH  10  24
ATOM     24  O   UNL     1       6.919   4.212   2.745  0.00  0.00    -0.506 OA
ATOM     25  H   UNL     1       6.633   5.081   3.069  0.00  0.00    +0.292 HD
ENDBRANCH  10  24
BRANCH   1  26
ATOM     26  O   UNL     1       8.827  -0.648   2.258  0.00  0.00    -0.453 OA
BRANCH  26  29
ATOM     27  C   UNL     1       5.572  -0.702   3.895  0.00  0.00    +0.191 C 
ATOM     28  O   UNL     1       7.002  -0.673   3.755  0.00  0.00    -0.330 OA
ATOM     29  C   UNL     1       7.404  -0.835   2.387  0.00  0.00    +0.340 C 
ATOM     30  C   UNL     1       7.048  -2.273   1.940  0.00  0.00    +0.214 C 
ATOM     31  C   UNL     1       5.558  -2.555   2.240  0.00  0.00    +0.180 C 
ATOM     32  C   UNL     1       5.165  -2.162   3.677  0.00  0.00    +0.178 C 
BRANCH  30  33
ATOM     33  O   UNL     1       7.320  -2.441   0.534  0.00  0.00    -0.383 OA
ATOM     34  H   UNL     1       6.511  -2.801   0.125  0.00  0.00    +0.210 HD
ENDBRANCH  30  33
BRANCH  31  35
ATOM     35  O   UNL     1       5.262  -3.929   1.956  0.00  0.00    -0.386 OA
ATOM     36  H   UNL     1       4.819  -4.303   2.743  0.00  0.00    +0.210 HD
ENDBRANCH  31  35
BRANCH  32  37
ATOM     37  O   UNL     1       5.848  -3.023   4.601  0.00  0.00    -0.386 OA
ATOM     38  H   UNL     1       6.729  -2.626   4.766  0.00  0.00    +0.210 HD
ENDBRANCH  32  37
BRANCH  27  39
ATOM     39  C   UNL     1       5.188  -0.160   5.276  0.00  0.00    +0.266 C 
BRANCH  39  40
ATOM     40  O   UNL     1       3.776  -0.266   5.541  0.00  0.00    -0.462 OA
BRANCH  40  42
ATOM     41  C   UNL     1       1.563   0.513   5.416  0.00  0.00    +0.136 C 
ATOM     42  C   UNL     1       2.988   0.693   4.985  0.00  0.00    +0.304 C 
ATOM     43  O   UNL     1       3.369   1.575   4.229  0.00  0.00    -0.251 OA
ENDBRANCH  40  42
ENDBRANCH  39  40
ENDBRANCH  27  39
ENDBRANCH  26  29
ENDBRANCH   1  26
TORSDOF 13
