REMARK  Name = 
REMARK  17 active torsions:
REMARK  status: ('A' for Active; 'I' for Inactive)
REMARK    1  A    between atoms: C_1  and  C_2
REMARK    2  A    between atoms: C_4  and  O_52
REMARK    3  A    between atoms: C_6  and  O_51
REMARK    4  A    between atoms: C_8  and  O_50
REMARK    5  A    between atoms: C_10  and  O_13
REMARK    6  A    between atoms: O_13  and  C_14
REMARK    7  A    between atoms: C_15  and  C_42
REMARK    8  A    between atoms: C_19  and  O_26
REMARK    9  A    between atoms: C_21  and  O_25
REMARK   10  A    between atoms: O_26  and  C_27
REMARK   11  A    between atoms: C_28  and  O_41
REMARK   12  A    between atoms: C_30  and  O_40
REMARK   13  A    between atoms: C_32  and  O_39
REMARK   14  A    between atoms: C_34  and  C_37
REMARK   15  A    between atoms: C_37  and  O_38
REMARK   16  A    between atoms: C_44  and  O_49
REMARK   17  A    between atoms: C_45  and  O_48
REMARK                            x       y       z     vdW  Elec       q    Type
REMARK                         _______ _______ _______ _____ _____    ______ ____
ROOT
ATOM      1  C   UNL     1       0.817   1.814  -2.574  0.00  0.00    +0.214 A 
ATOM      2  C   UNL     1      -0.693   1.845  -2.505  0.00  0.00    +0.238 A 
ATOM      3  O   UNL     1      -1.316   0.789  -2.393  0.00  0.00    -0.283 OA
ATOM      4  C   UNL     1      -1.375   3.147  -2.621  0.00  0.00    +0.109 A 
ATOM      5  C   UNL     1      -0.576   4.275  -2.579  0.00  0.00    +0.147 A 
ATOM      6  C   UNL     1      -1.143   5.549  -2.753  0.00  0.00    +0.093 A 
ATOM      7  C   UNL     1      -2.522   5.700  -2.946  0.00  0.00    +0.131 A 
ATOM      8  C   UNL     1      -3.339   4.572  -2.932  0.00  0.00    +0.092 A 
ATOM      9  O   UNL     1       0.774   4.228  -2.335  0.00  0.00    -0.451 OA
ATOM     10  C   UNL     1      -2.767   3.298  -2.782  0.00  0.00    +0.135 A 
ATOM     11  C   UNL     1       1.466   3.008  -2.395  0.00  0.00    +0.181 A 
ENDROOT
BRANCH  11  12
ATOM     12  C   UNL     1       2.958   3.293  -2.344  0.00  0.00    +0.025 A 
ATOM     13  C   UNL     1       3.875   2.481  -1.648  0.00  0.00    +0.015 A 
ATOM     14  C   UNL     1       5.250   2.508  -1.935  0.00  0.00    +0.050 A 
ATOM     15  C   UNL     1       5.755   3.525  -2.722  0.00  0.00    +0.158 A 
ATOM     16  C   UNL     1       4.899   4.517  -3.182  0.00  0.00    +0.159 A 
ATOM     17  C   UNL     1       3.510   4.390  -3.040  0.00  0.00    +0.060 A 
BRANCH  16  18
ATOM     18  O   UNL     1       5.467   5.607  -3.787  0.00  0.00    -0.503 OA
ATOM     19  H   UNL     1       4.871   6.359  -3.633  0.00  0.00    +0.292 HD
ENDBRANCH  16  18
BRANCH  15  20
ATOM     20  O   UNL     1       7.086   3.561  -3.005  0.00  0.00    -0.503 OA
ATOM     21  H   UNL     1       7.209   4.361  -3.556  0.00  0.00    +0.292 HD
ENDBRANCH  15  20
ENDBRANCH  11  12
BRANCH  10  22
ATOM     22  O   UNL     1      -3.597   2.211  -2.813  0.00  0.00    -0.506 OA
ATOM     23  H   UNL     1      -4.530   2.487  -2.827  0.00  0.00    +0.292 HD
ENDBRANCH  10  22
BRANCH   7  24
ATOM     24  O   UNL     1      -3.154   6.916  -3.104  0.00  0.00    -0.461 OA
BRANCH  24  25
ATOM     25  C   UNL     1      -2.449   7.828  -3.962  0.00  0.00    +0.339 C 
ATOM     26  O   UNL     1      -1.465   8.600  -3.266  0.00  0.00    -0.331 OA
ATOM     27  C   UNL     1      -1.905   9.761  -2.543  0.00  0.00    +0.179 C 
ATOM     28  C   UNL     1      -2.766  10.683  -3.430  0.00  0.00    +0.177 C 
ATOM     29  C   UNL     1      -3.946   9.923  -4.035  0.00  0.00    +0.180 C 
ATOM     30  C   UNL     1      -3.449   8.680  -4.787  0.00  0.00    +0.214 C 
BRANCH  29  31
ATOM     31  O   UNL     1      -4.929   9.640  -3.043  0.00  0.00    -0.386 OA
ATOM     32  H   UNL     1      -4.906   8.691  -2.818  0.00  0.00    +0.210 HD
ENDBRANCH  29  31
BRANCH  30  33
ATOM     33  O   UNL     1      -2.815   9.111  -6.008  0.00  0.00    -0.383 OA
ATOM     34  H   UNL     1      -2.040   9.653  -5.743  0.00  0.00    +0.210 HD
ENDBRANCH  30  33
BRANCH  28  35
ATOM     35  O   UNL     1      -1.920  11.178  -4.486  0.00  0.00    -0.386 OA
ATOM     36  H   UNL     1      -2.432  11.843  -4.980  0.00  0.00    +0.210 HD
ENDBRANCH  28  35
BRANCH  27  37
ATOM     37  C   UNL     1      -2.552   9.444  -1.175  0.00  0.00    +0.190 C 
BRANCH  37  38
ATOM     38  O   UNL     1      -1.714   8.623  -0.365  0.00  0.00    -0.392 OA
ATOM     39  H   UNL     1      -0.810   8.973  -0.409  0.00  0.00    +0.210 HD
ENDBRANCH  37  38
ENDBRANCH  27  37
ENDBRANCH  24  25
ENDBRANCH   7  24
BRANCH   1  40
ATOM     40  O   UNL     1       1.259   0.520  -2.826  0.00  0.00    -0.453 OA
BRANCH  40  44
ATOM     41  C   UNL     1       1.678  -2.247  -1.107  0.00  0.00    +0.041 C 
ATOM     42  C   UNL     1       3.036  -1.800  -1.636  0.00  0.00    +0.150 C 
ATOM     43  O   UNL     1       3.172  -0.386  -1.824  0.00  0.00    -0.334 OA
ATOM     44  C   UNL     1       2.620   0.193  -3.013  0.00  0.00    +0.339 C 
ATOM     45  C   UNL     1       2.928  -0.568  -4.311  0.00  0.00    +0.214 C 
ATOM     46  C   UNL     1       2.786  -2.075  -4.154  0.00  0.00    +0.180 C 
ATOM     47  C   UNL     1       3.530  -2.529  -2.890  0.00  0.00    +0.174 C 
BRANCH  47  48
ATOM     48  O   UNL     1       4.933  -2.229  -3.038  0.00  0.00    -0.387 OA
ATOM     49  H   UNL     1       5.122  -1.388  -2.562  0.00  0.00    +0.210 HD
ENDBRANCH  47  48
BRANCH  46  50
ATOM     50  O   UNL     1       1.420  -2.490  -4.160  0.00  0.00    -0.386 OA
ATOM     51  H   UNL     1       0.864  -1.810  -3.739  0.00  0.00    +0.210 HD
ENDBRANCH  46  50
BRANCH  45  52
ATOM     52  O   UNL     1       2.199  -0.045  -5.425  0.00  0.00    -0.383 OA
ATOM     53  H   UNL     1       1.253  -0.189  -5.252  0.00  0.00    +0.210 HD
ENDBRANCH  45  52
ENDBRANCH  40  44
ENDBRANCH   1  40
TORSDOF 16
