REMARK  Name = 
REMARK  11 active torsions:
REMARK  status: ('A' for Active; 'I' for Inactive)
REMARK    1  A    between atoms: C_1  and  C_2
REMARK    2  A    between atoms: C_4  and  O_37
REMARK    3  A    between atoms: C_6  and  O_36
REMARK    4  A    between atoms: C_8  and  O_35
REMARK    5  A    between atoms: C_10  and  O_13
REMARK    6  A    between atoms: O_13  and  C_14
REMARK    7  A    between atoms: C_15  and  C_27
REMARK    8  A    between atoms: C_19  and  O_26
REMARK    9  A    between atoms: C_21  and  O_25
REMARK   10  A    between atoms: C_29  and  O_34
REMARK   11  A    between atoms: C_30  and  O_33
REMARK                            x       y       z     vdW  Elec       q    Type
REMARK                         _______ _______ _______ _____ _____    ______ ____
ROOT
ATOM      1  C   UNL     1       2.639   2.799  -3.241  0.00  0.00    +0.214 A 
ATOM      2  C   UNL     1       1.226   3.265  -3.032  0.00  0.00    +0.238 A 
ATOM      3  O   UNL     1       0.259   2.528  -3.187  0.00  0.00    -0.283 OA
ATOM      4  C   UNL     1       1.014   4.690  -2.762  0.00  0.00    +0.109 A 
ATOM      5  C   UNL     1       2.069   5.555  -3.024  0.00  0.00    +0.147 A 
ATOM      6  C   UNL     1       1.878   6.941  -2.942  0.00  0.00    +0.092 A 
ATOM      7  C   UNL     1       0.625   7.435  -2.586  0.00  0.00    +0.124 A 
ATOM      8  C   UNL     1      -0.428   6.580  -2.285  0.00  0.00    +0.091 A 
ATOM      9  O   UNL     1       3.314   5.119  -3.398  0.00  0.00    -0.451 OA
ATOM     10  C   UNL     1      -0.230   5.205  -2.365  0.00  0.00    +0.135 A 
ATOM     11  C   UNL     1       3.583   3.750  -3.440  0.00  0.00    +0.181 A 
ENDROOT
BRANCH  11  12
ATOM     12  C   UNL     1       5.013   3.466  -3.809  0.00  0.00    +0.025 A 
ATOM     13  C   UNL     1       5.724   4.395  -4.601  0.00  0.00    +0.015 A 
ATOM     14  C   UNL     1       7.059   4.180  -4.976  0.00  0.00    +0.050 A 
ATOM     15  C   UNL     1       7.699   3.027  -4.564  0.00  0.00    +0.158 A 
ATOM     16  C   UNL     1       7.027   2.093  -3.784  0.00  0.00    +0.159 A 
ATOM     17  C   UNL     1       5.704   2.311  -3.393  0.00  0.00    +0.060 A 
BRANCH  15  18
ATOM     18  O   UNL     1       8.998   2.812  -4.925  0.00  0.00    -0.503 OA
ATOM     19  H   UNL     1       9.230   1.957  -4.510  0.00  0.00    +0.292 HD
ENDBRANCH  15  18
BRANCH  16  20
ATOM     20  O   UNL     1       7.709   0.961  -3.423  0.00  0.00    -0.503 OA
ATOM     21  H   UNL     1       7.086   0.372  -2.961  0.00  0.00    +0.292 HD
ENDBRANCH  16  20
ENDBRANCH  11  12
BRANCH   7  22
ATOM     22  O   UNL     1       0.375   8.773  -2.521  0.00  0.00    -0.507 OA
ATOM     23  H   UNL     1       1.175   9.262  -2.775  0.00  0.00    +0.292 HD
ENDBRANCH   7  22
BRANCH  10  24
ATOM     24  O   UNL     1      -1.263   4.373  -2.034  0.00  0.00    -0.506 OA
ATOM     25  H   UNL     1      -2.083   4.881  -1.932  0.00  0.00    +0.292 HD
ENDBRANCH  10  24
BRANCH   1  26
ATOM     26  O   UNL     1       2.958   1.451  -3.332  0.00  0.00    -0.453 OA
BRANCH  26  30
ATOM     27  C   UNL     1      -0.082  -0.088   0.017  0.00  0.00    +0.041 C 
ATOM     28  C   UNL     1       0.405  -0.316  -1.409  0.00  0.00    +0.150 C 
ATOM     29  O   UNL     1       1.523   0.550  -1.651  0.00  0.00    -0.334 OA
ATOM     30  C   UNL     1       1.952   0.483  -3.022  0.00  0.00    +0.339 C 
ATOM     31  C   UNL     1       2.506  -0.921  -3.327  0.00  0.00    +0.214 C 
ATOM     32  C   UNL     1       1.390  -1.933  -3.064  0.00  0.00    +0.180 C 
ATOM     33  C   UNL     1       0.819  -1.780  -1.645  0.00  0.00    +0.174 C 
BRANCH  31  34
ATOM     34  O   UNL     1       3.651  -1.246  -2.512  0.00  0.00    -0.383 OA
ATOM     35  H   UNL     1       3.751  -2.215  -2.615  0.00  0.00    +0.210 HD
ENDBRANCH  31  34
BRANCH  32  36
ATOM     36  O   UNL     1       1.901  -3.264  -3.234  0.00  0.00    -0.386 OA
ATOM     37  H   UNL     1       1.159  -3.846  -2.971  0.00  0.00    +0.210 HD
ENDBRANCH  32  36
BRANCH  33  38
ATOM     38  O   UNL     1      -0.283  -2.692  -1.525  0.00  0.00    -0.387 OA
ATOM     39  H   UNL     1      -0.515  -2.741  -0.580  0.00  0.00    +0.210 HD
ENDBRANCH  33  38
ENDBRANCH  26  30
ENDBRANCH   1  26
TORSDOF 10
