REMARK  Name = 
REMARK  10 active torsions:
REMARK  status: ('A' for Active; 'I' for Inactive)
REMARK    1  A    between atoms: C_3  and  O_34
REMARK    2  A    between atoms: C_4  and  O_29
REMARK    3  A    between atoms: C_6  and  C_7
REMARK    4  A    between atoms: C_8  and  O_24
REMARK    5  A    between atoms: C_12  and  O_23
REMARK    6  A    between atoms: C_14  and  O_18
REMARK    7  A    between atoms: O_18  and  S_19
REMARK    8  A    between atoms: O_24  and  S_25
REMARK    9  A    between atoms: O_29  and  S_30
REMARK   10  A    between atoms: O_34  and  S_35
REMARK                            x       y       z     vdW  Elec       q    Type
REMARK                         _______ _______ _______ _____ _____    ______ ____
ROOT
ATOM      1  C   UNL     1      -1.382  -2.521  -0.090  0.00  0.00    +0.184 A 
ATOM      2  O   UNL     1      -0.676  -3.714   0.096  0.00  0.00    -0.451 OA
ATOM      3  C   UNL     1      -1.299  -4.914  -0.136  0.00  0.00    +0.147 A 
ATOM      4  C   UNL     1      -2.641  -5.001  -0.467  0.00  0.00    +0.109 A 
ATOM      5  C   UNL     1      -3.230  -6.264  -0.645  0.00  0.00    +0.135 A 
ATOM      6  C   UNL     1      -2.476  -7.434  -0.515  0.00  0.00    +0.095 A 
ATOM      7  C   UNL     1      -1.112  -7.351  -0.239  0.00  0.00    +0.162 A 
ATOM      8  C   UNL     1      -3.394  -3.754  -0.669  0.00  0.00    +0.241 A 
ATOM      9  O   UNL     1      -4.564  -3.832  -1.045  0.00  0.00    -0.283 OA
ATOM     10  C   UNL     1      -0.532  -6.086  -0.029  0.00  0.00    +0.095 A 
ATOM     11  C   UNL     1      -2.676  -2.464  -0.475  0.00  0.00    +0.244 A 
ENDROOT
BRANCH   1  13
ATOM     12  C   UNL     1       0.285  -0.887  -0.966  0.00  0.00    +0.015 A 
ATOM     13  C   UNL     1      -0.486  -1.354   0.103  0.00  0.00    +0.025 A 
ATOM     14  C   UNL     1      -0.249  -0.826   1.388  0.00  0.00    +0.064 A 
ATOM     15  C   UNL     1       0.805   0.076   1.615  0.00  0.00    +0.200 A 
ATOM     16  C   UNL     1       1.624   0.480   0.537  0.00  0.00    +0.199 A 
ATOM     17  C   UNL     1       1.333   0.019  -0.750  0.00  0.00    +0.053 A 
BRANCH  15  18
ATOM     18  O   UNL     1       1.122   0.625   2.842  0.00  0.00    -0.357 OA
BRANCH  18  19
ATOM     19  S   UNL     1       0.623   0.065   4.294  0.00  0.00    +0.043 S 
ATOM     20  O   UNL     1       1.562   0.672   5.246  0.00  0.00    -0.259 OA
ATOM     21  O   UNL     1       0.747  -1.394   4.241  0.00  0.00    -0.336 OA
ATOM     22  O   UNL     1      -0.741   0.553   4.465  0.00  0.00    -0.336 OA
ENDBRANCH  18  19
ENDBRANCH  15  18
BRANCH  16  23
ATOM     23  O   UNL     1       2.735   1.237   0.857  0.00  0.00    -0.357 OA
BRANCH  23  24
ATOM     24  S   UNL     1       3.594   2.158  -0.190  0.00  0.00    +0.043 S 
ATOM     25  O   UNL     1       4.709   2.671   0.613  0.00  0.00    -0.259 OA
ATOM     26  O   UNL     1       2.676   3.205  -0.638  0.00  0.00    -0.336 OA
ATOM     27  O   UNL     1       4.046   1.266  -1.261  0.00  0.00    -0.336 OA
ENDBRANCH  23  24
ENDBRANCH  16  23
ENDBRANCH   1  13
BRANCH   5  28
ATOM     28  O   UNL     1      -4.558  -6.419  -0.962  0.00  0.00    -0.506 OA
ATOM     29  H   UNL     1      -4.932  -5.512  -1.057  0.00  0.00    +0.292 HD
ENDBRANCH   5  28
BRANCH   7  30
ATOM     30  O   UNL     1      -0.265  -8.431  -0.126  0.00  0.00    -0.360 OA
BRANCH  30  31
ATOM     31  S   UNL     1      -0.573  -9.918  -0.747  0.00  0.00    +0.042 S 
ATOM     32  O   UNL     1       0.736 -10.577  -0.744  0.00  0.00    -0.259 OA
ATOM     33  O   UNL     1      -1.104  -9.688  -2.091  0.00  0.00    -0.336 OA
ATOM     34  O   UNL     1      -1.529 -10.527   0.178  0.00  0.00    -0.336 OA
ENDBRANCH  30  31
ENDBRANCH   7  30
BRANCH  11  35
ATOM     35  O   UNL     1      -3.343  -1.334  -0.898  0.00  0.00    -0.353 OA
BRANCH  35  36
ATOM     36  S   UNL     1      -3.899  -0.175   0.109  0.00  0.00    +0.043 S 
ATOM     37  O   UNL     1      -5.353  -0.219  -0.064  0.00  0.00    -0.259 OA
ATOM     38  O   UNL     1      -3.296   1.043  -0.430  0.00  0.00    -0.336 OA
ATOM     39  O   UNL     1      -3.463  -0.561   1.445  0.00  0.00    -0.336 OA
ENDBRANCH  35  36
ENDBRANCH  11  35
TORSDOF 10
