REMARK  Name = 
REMARK  17 active torsions:
REMARK  status: ('A' for Active; 'I' for Inactive)
REMARK    1  A    between atoms: C_1  and  C_2
REMARK    2  A    between atoms: C_4  and  O_53
REMARK    3  A    between atoms: C_6  and  O_52
REMARK    4  A    between atoms: C_8  and  O_51
REMARK    5  A    between atoms: C_10  and  O_13
REMARK    6  A    between atoms: O_13  and  C_14
REMARK    7  A    between atoms: C_16  and  C_49
REMARK    8  A    between atoms: C_19  and  O_27
REMARK    9  A    between atoms: C_21  and  O_26
REMARK   10  A    between atoms: C_23  and  O_25
REMARK   11  A    between atoms: O_27  and  C_28
REMARK   12  A    between atoms: C_29  and  C_41
REMARK   13  A    between atoms: C_33  and  O_40
REMARK   14  A    between atoms: C_35  and  O_39
REMARK   15  A    between atoms: C_43  and  O_48
REMARK   16  A    between atoms: C_44  and  O_47
REMARK   17  A    between atoms: C_49  and  O_50
REMARK                            x       y       z     vdW  Elec       q    Type
REMARK                         _______ _______ _______ _____ _____    ______ ____
ROOT
ATOM      1  C   UNL     1       3.095   3.307  -3.067  0.00  0.00    +0.184 C 
ATOM      2  C   UNL     1       1.852   2.824  -3.843  0.00  0.00    +0.180 C 
ATOM      3  C   UNL     1       1.884   3.073  -5.387  0.00  0.00    +0.214 C 
ATOM      4  C   UNL     1       2.979   4.033  -5.948  0.00  0.00    +0.340 C 
ATOM      5  O   UNL     1       3.942   4.423  -4.972  0.00  0.00    -0.331 OA
ATOM      6  C   UNL     1       3.431   4.674  -3.670  0.00  0.00    +0.179 C 
ENDROOT
BRANCH   3   7
ATOM      7  O   UNL     1       0.592   3.661  -5.709  0.00  0.00    -0.383 OA
ATOM      8  H   UNL     1       0.449   3.522  -6.663  0.00  0.00    +0.210 HD
ENDBRANCH   3   7
BRANCH   2   9
ATOM      9  O   UNL     1       1.608   1.424  -3.597  0.00  0.00    -0.386 OA
ATOM     10  H   UNL     1       2.436   0.952  -3.821  0.00  0.00    +0.210 HD
ENDBRANCH   2   9
BRANCH   6  11
ATOM     11  C   UNL     1       4.504   5.457  -2.903  0.00  0.00    +0.190 C 
BRANCH  11  12
ATOM     12  O   UNL     1       4.852   6.650  -3.631  0.00  0.00    -0.392 OA
ATOM     13  H   UNL     1       4.025   7.151  -3.754  0.00  0.00    +0.210 HD
ENDBRANCH  11  12
ENDBRANCH   6  11
BRANCH   4  14
ATOM     14  O   UNL     1       3.754   3.428  -7.015  0.00  0.00    -0.453 OA
BRANCH  14  15
ATOM     15  C   UNL     1       3.430   3.795  -8.313  0.00  0.00    +0.214 A 
ATOM     16  C   UNL     1       2.600   2.792  -9.080  0.00  0.00    +0.238 A 
ATOM     17  O   UNL     1       2.041   1.881  -8.478  0.00  0.00    -0.283 OA
ATOM     18  C   UNL     1       2.486   2.960 -10.551  0.00  0.00    +0.109 A 
ATOM     19  C   UNL     1       2.928   4.168 -11.075  0.00  0.00    +0.147 A 
ATOM     20  C   UNL     1       2.769   4.482 -12.425  0.00  0.00    +0.092 A 
ATOM     21  C   UNL     1       2.173   3.557 -13.277  0.00  0.00    +0.124 A 
ATOM     22  C   UNL     1       1.774   2.319 -12.794  0.00  0.00    +0.091 A 
ATOM     23  O   UNL     1       3.539   5.121 -10.314  0.00  0.00    -0.451 OA
ATOM     24  C   UNL     1       1.933   2.018 -11.432  0.00  0.00    +0.135 A 
ATOM     25  C   UNL     1       3.961   4.829  -9.015  0.00  0.00    +0.181 A 
BRANCH  25  26
ATOM     26  C   UNL     1       5.048   5.792  -8.611  0.00  0.00    +0.025 A 
ATOM     27  C   UNL     1       5.686   6.565  -9.616  0.00  0.00    +0.015 A 
ATOM     28  C   UNL     1       6.783   7.394  -9.347  0.00  0.00    +0.050 A 
ATOM     29  C   UNL     1       7.250   7.491  -8.052  0.00  0.00    +0.158 A 
ATOM     30  C   UNL     1       6.602   6.816  -7.028  0.00  0.00    +0.159 A 
ATOM     31  C   UNL     1       5.533   5.962  -7.308  0.00  0.00    +0.060 A 
BRANCH  30  32
ATOM     32  O   UNL     1       7.049   7.007  -5.748  0.00  0.00    -0.503 OA
ATOM     33  H   UNL     1       6.344   6.731  -5.120  0.00  0.00    +0.292 HD
ENDBRANCH  30  32
BRANCH  29  34
ATOM     34  O   UNL     1       8.359   8.240  -7.793  0.00  0.00    -0.503 OA
ATOM     35  H   UNL     1       8.550   8.071  -6.848  0.00  0.00    +0.292 HD
ENDBRANCH  29  34
ENDBRANCH  25  26
BRANCH  24  36
ATOM     36  O   UNL     1       1.542   0.782 -10.998  0.00  0.00    -0.506 OA
ATOM     37  H   UNL     1       1.242   0.242 -11.749  0.00  0.00    +0.292 HD
ENDBRANCH  24  36
BRANCH  21  38
ATOM     38  O   UNL     1       1.970   3.828 -14.596  0.00  0.00    -0.507 OA
ATOM     39  H   UNL     1       2.220   4.750 -14.782  0.00  0.00    +0.292 HD
ENDBRANCH  21  38
ENDBRANCH  14  15
ENDBRANCH   4  14
BRANCH   1  40
ATOM     40  O   UNL     1       2.903   3.471  -1.659  0.00  0.00    -0.340 OA
BRANCH  40  44
ATOM     41  C   UNL     1       0.684   1.598   1.542  0.00  0.00    +0.041 C 
ATOM     42  C   UNL     1       2.165   1.955   1.544  0.00  0.00    +0.149 C 
ATOM     43  O   UNL     1       2.496   2.867   0.490  0.00  0.00    -0.343 OA
ATOM     44  C   UNL     1       2.560   2.338  -0.848  0.00  0.00    +0.282 C 
ATOM     45  C   UNL     1       3.585   1.169  -0.908  0.00  0.00    +0.201 C 
ATOM     46  C   UNL     1       3.278   0.117   0.173  0.00  0.00    +0.179 C 
ATOM     47  C   UNL     1       3.122   0.754   1.556  0.00  0.00    +0.174 C 
BRANCH  47  48
ATOM     48  O   UNL     1       4.417   1.204   1.990  0.00  0.00    -0.387 OA
ATOM     49  H   UNL     1       4.552   2.111   1.654  0.00  0.00    +0.210 HD
ENDBRANCH  47  48
BRANCH  46  50
ATOM     50  O   UNL     1       2.140  -0.676  -0.202  0.00  0.00    -0.386 OA
ATOM     51  H   UNL     1       1.417  -0.113  -0.527  0.00  0.00    +0.210 HD
ENDBRANCH  46  50
BRANCH  45  52
ATOM     52  O   UNL     1       3.605   0.500  -2.183  0.00  0.00    -0.384 OA
ATOM     53  H   UNL     1       3.018  -0.280  -2.091  0.00  0.00    +0.210 HD
ENDBRANCH  45  52
ENDBRANCH  40  44
ENDBRANCH   1  40
TORSDOF 16
