REMARK  Name = 
REMARK  18 active torsions:
REMARK  status: ('A' for Active; 'I' for Inactive)
REMARK    1  A    between atoms: C_3  and  O_50
REMARK    2  A    between atoms: C_4  and  O_49
REMARK    3  A    between atoms: C_6  and  C_7
REMARK    4  A    between atoms: C_8  and  O_33
REMARK    5  A    between atoms: C_15  and  O_32
REMARK    6  A    between atoms: C_17  and  O_18
REMARK    7  A    between atoms: O_18  and  C_19
REMARK    8  A    between atoms: C_20  and  O_31
REMARK    9  A    between atoms: C_21  and  O_30
REMARK   10  A    between atoms: C_23  and  O_29
REMARK   11  A    between atoms: C_24  and  C_27
REMARK   12  A    between atoms: C_27  and  O_28
REMARK   13  A    between atoms: O_33  and  C_34
REMARK   14  A    between atoms: C_35  and  O_48
REMARK   15  A    between atoms: C_37  and  O_47
REMARK   16  A    between atoms: C_39  and  O_46
REMARK   17  A    between atoms: C_41  and  C_44
REMARK   18  A    between atoms: C_44  and  O_45
REMARK                            x       y       z     vdW  Elec       q    Type
REMARK                         _______ _______ _______ _____ _____    ______ ____
ROOT
ATOM      1  C   UNL     1      -0.820  -2.838   0.522  0.00  0.00    +0.181 A 
ATOM      2  O   UNL     1      -0.221  -4.079   0.745  0.00  0.00    -0.451 OA
ATOM      3  C   UNL     1      -0.865  -5.224   0.342  0.00  0.00    +0.147 A 
ATOM      4  C   UNL     1      -0.204  -6.434   0.523  0.00  0.00    +0.092 A 
ATOM      5  C   UNL     1      -0.846  -7.622   0.151  0.00  0.00    +0.124 A 
ATOM      6  C   UNL     1      -2.137  -7.631  -0.379  0.00  0.00    +0.092 A 
ATOM      7  C   UNL     1      -2.759  -6.428  -0.645  0.00  0.00    +0.142 A 
ATOM      8  C   UNL     1      -2.108  -5.225  -0.281  0.00  0.00    +0.110 A 
ATOM      9  C   UNL     1      -2.693  -3.919  -0.599  0.00  0.00    +0.238 A 
ATOM     10  O   UNL     1      -3.684  -3.879  -1.322  0.00  0.00    -0.283 OA
ATOM     11  C   UNL     1      -2.023  -2.684  -0.077  0.00  0.00    +0.214 A 
ENDROOT
BRANCH   1  13
ATOM     12  C   UNL     1       0.431  -0.758  -0.097  0.00  0.00    +0.015 A 
ATOM     13  C   UNL     1       0.097  -1.709   0.886  0.00  0.00    +0.025 A 
ATOM     14  C   UNL     1       0.806  -1.676   2.102  0.00  0.00    +0.060 A 
ATOM     15  C   UNL     1       1.874  -0.786   2.262  0.00  0.00    +0.159 A 
ATOM     16  C   UNL     1       2.250   0.069   1.237  0.00  0.00    +0.158 A 
ATOM     17  C   UNL     1       1.506   0.131   0.071  0.00  0.00    +0.050 A 
BRANCH  16  18
ATOM     18  O   UNL     1       3.385   0.818   1.408  0.00  0.00    -0.503 OA
ATOM     19  H   UNL     1       3.671   1.129   0.531  0.00  0.00    +0.292 HD
ENDBRANCH  16  18
BRANCH  15  20
ATOM     20  O   UNL     1       2.600  -0.802   3.420  0.00  0.00    -0.503 OA
ATOM     21  H   UNL     1       3.295  -0.126   3.284  0.00  0.00    +0.292 HD
ENDBRANCH  15  20
ENDBRANCH   1  13
BRANCH   5  22
ATOM     22  O   UNL     1      -0.200  -8.818   0.248  0.00  0.00    -0.507 OA
ATOM     23  H   UNL     1       0.756  -8.657   0.320  0.00  0.00    +0.292 HD
ENDBRANCH   5  22
BRANCH  11  24
ATOM     24  O   UNL     1      -2.568  -1.429  -0.314  0.00  0.00    -0.453 OA
BRANCH  24  25
ATOM     25  C   UNL     1      -4.017  -1.334  -0.341  0.00  0.00    +0.340 C 
ATOM     26  O   UNL     1      -4.444  -1.612  -1.667  0.00  0.00    -0.331 OA
ATOM     27  C   UNL     1      -5.361  -0.835  -2.430  0.00  0.00    +0.179 C 
ATOM     28  C   UNL     1      -5.500   0.631  -1.999  0.00  0.00    +0.177 C 
ATOM     29  C   UNL     1      -4.348   1.041  -1.064  0.00  0.00    +0.180 C 
ATOM     30  C   UNL     1      -4.340   0.082   0.140  0.00  0.00    +0.214 C 
BRANCH  30  31
ATOM     31  O   UNL     1      -5.597   0.119   0.841  0.00  0.00    -0.383 OA
ATOM     32  H   UNL     1      -6.237  -0.435   0.345  0.00  0.00    +0.210 HD
ENDBRANCH  30  31
BRANCH  29  33
ATOM     33  O   UNL     1      -3.101   1.038  -1.775  0.00  0.00    -0.386 OA
ATOM     34  H   UNL     1      -2.793   0.112  -1.901  0.00  0.00    +0.210 HD
ENDBRANCH  29  33
BRANCH  28  35
ATOM     35  O   UNL     1      -6.771   0.774  -1.333  0.00  0.00    -0.386 OA
ATOM     36  H   UNL     1      -6.662   1.364  -0.562  0.00  0.00    +0.210 HD
ENDBRANCH  28  35
BRANCH  27  37
ATOM     37  C   UNL     1      -4.850  -0.970  -3.879  0.00  0.00    +0.190 C 
BRANCH  37  38
ATOM     38  O   UNL     1      -5.681  -0.322  -4.830  0.00  0.00    -0.392 OA
ATOM     39  H   UNL     1      -5.356   0.587  -4.941  0.00  0.00    +0.210 HD
ENDBRANCH  37  38
ENDBRANCH  27  37
ENDBRANCH  24  25
ENDBRANCH  11  24
BRANCH   7  40
ATOM     40  O   UNL     1      -3.904  -6.294  -1.349  0.00  0.00    -0.460 OA
BRANCH  40  41
ATOM     41  C   UNL     1      -4.924  -7.252  -1.617  0.00  0.00    +0.339 C 
ATOM     42  O   UNL     1      -4.553  -8.383  -2.404  0.00  0.00    -0.331 OA
ATOM     43  C   UNL     1      -4.409  -8.214  -3.831  0.00  0.00    +0.179 C 
ATOM     44  C   UNL     1      -5.341  -7.197  -4.538  0.00  0.00    +0.177 C 
ATOM     45  C   UNL     1      -5.588  -5.954  -3.683  0.00  0.00    +0.180 C 
ATOM     46  C   UNL     1      -6.054  -6.442  -2.298  0.00  0.00    +0.214 C 
BRANCH  46  47
ATOM     47  O   UNL     1      -6.476  -5.338  -1.481  0.00  0.00    -0.383 OA
ATOM     48  H   UNL     1      -5.664  -4.852  -1.246  0.00  0.00    +0.210 HD
ENDBRANCH  46  47
BRANCH  45  49
ATOM     49  O   UNL     1      -4.395  -5.164  -3.681  0.00  0.00    -0.386 OA
ATOM     50  H   UNL     1      -4.357  -4.637  -2.852  0.00  0.00    +0.210 HD
ENDBRANCH  45  49
BRANCH  44  51
ATOM     51  O   UNL     1      -6.627  -7.789  -4.800  0.00  0.00    -0.386 OA
ATOM     52  H   UNL     1      -6.505  -8.716  -5.065  0.00  0.00    +0.210 HD
ENDBRANCH  44  51
BRANCH  43  53
ATOM     53  C   UNL     1      -2.929  -8.004  -4.162  0.00  0.00    +0.190 C 
BRANCH  53  54
ATOM     54  O   UNL     1      -2.171  -9.065  -3.572  0.00  0.00    -0.392 OA
ATOM     55  H   UNL     1      -2.592  -9.237  -2.709  0.00  0.00    +0.210 HD
ENDBRANCH  53  54
ENDBRANCH  43  53
ENDBRANCH  40  41
ENDBRANCH   7  40
TORSDOF 18
