REMARK  Name = 
REMARK  19 active torsions:
REMARK  status: ('A' for Active; 'I' for Inactive)
REMARK    1  A    between atoms: C_1  and  O_2
REMARK    2  A    between atoms: O_2  and  C_3
REMARK    3  A    between atoms: C_4  and  C_44
REMARK    4  A    between atoms: C_8  and  O_15
REMARK    5  A    between atoms: C_10  and  O_14
REMARK    6  A    between atoms: O_15  and  C_16
REMARK    7  A    between atoms: C_18  and  O_43
REMARK    8  A    between atoms: C_19  and  O_42
REMARK    9  A    between atoms: C_21  and  O_27
REMARK   10  A    between atoms: C_23  and  C_25
REMARK   11  A    between atoms: C_25  and  O_26
REMARK   12  A    between atoms: O_27  and  C_28
REMARK   13  A    between atoms: C_30  and  O_41
REMARK   14  A    between atoms: C_31  and  O_40
REMARK   15  A    between atoms: C_33  and  O_39
REMARK   16  A    between atoms: C_35  and  C_37
REMARK   17  A    between atoms: C_37  and  O_38
REMARK   18  A    between atoms: C_46  and  O_51
REMARK   19  A    between atoms: C_47  and  O_50
REMARK                            x       y       z     vdW  Elec       q    Type
REMARK                         _______ _______ _______ _____ _____    ______ ____
ROOT
ATOM      1  C   UNL     1       5.682  -5.612  -4.527  0.00  0.00    +0.339 C 
ATOM      2  O   UNL     1       6.230  -6.537  -5.531  0.00  0.00    -0.331 OA
ATOM      3  C   UNL     1       6.234  -6.117  -6.917  0.00  0.00    +0.179 C 
ATOM      4  C   UNL     1       4.858  -5.551  -7.370  0.00  0.00    +0.184 C 
ATOM      5  C   UNL     1       4.638  -4.347  -6.473  0.00  0.00    +0.180 C 
ATOM      6  C   UNL     1       4.406  -4.907  -5.085  0.00  0.00    +0.214 C 
ENDROOT
BRANCH   6   7
ATOM      7  O   UNL     1       3.767  -3.845  -4.379  0.00  0.00    -0.383 OA
ATOM      8  H   UNL     1       4.285  -3.028  -4.540  0.00  0.00    +0.210 HD
ENDBRANCH   6   7
BRANCH   5   9
ATOM      9  O   UNL     1       5.666  -3.352  -6.508  0.00  0.00    -0.386 OA
ATOM     10  H   UNL     1       6.440  -3.635  -5.981  0.00  0.00    +0.210 HD
ENDBRANCH   5   9
BRANCH   4  11
ATOM     11  O   UNL     1       3.756  -6.520  -7.220  0.00  0.00    -0.340 OA
BRANCH  11  12
ATOM     12  C   UNL     1       2.402  -5.979  -7.343  0.00  0.00    +0.282 C 
ATOM     13  O   UNL     1       1.393  -6.911  -6.902  0.00  0.00    -0.341 OA
ATOM     14  C   UNL     1       1.166  -8.049  -7.742  0.00  0.00    +0.178 C 
ATOM     15  C   UNL     1       1.088  -7.717  -9.249  0.00  0.00    +0.177 C 
ATOM     16  C   UNL     1       2.172  -6.738  -9.678  0.00  0.00    +0.179 C 
ATOM     17  C   UNL     1       2.071  -5.515  -8.769  0.00  0.00    +0.201 C 
BRANCH  17  18
ATOM     18  O   UNL     1       2.895  -4.468  -9.270  0.00  0.00    -0.384 OA
ATOM     19  H   UNL     1       2.970  -3.760  -8.610  0.00  0.00    +0.210 HD
ENDBRANCH  17  18
BRANCH  16  20
ATOM     20  O   UNL     1       3.439  -7.433  -9.614  0.00  0.00    -0.386 OA
ATOM     21  H   UNL     1       3.695  -7.499  -8.669  0.00  0.00    +0.210 HD
ENDBRANCH  16  20
BRANCH  15  22
ATOM     22  O   UNL     1       1.210  -8.925 -10.008  0.00  0.00    -0.386 OA
ATOM     23  H   UNL     1       2.176  -9.054 -10.132  0.00  0.00    +0.210 HD
ENDBRANCH  15  22
BRANCH  14  24
ATOM     24  C   UNL     1      -0.166  -8.735  -7.351  0.00  0.00    +0.190 C 
BRANCH  24  25
ATOM     25  O   UNL     1      -0.353  -9.969  -8.046  0.00  0.00    -0.392 OA
ATOM     26  H   UNL     1      -0.049  -9.846  -8.968  0.00  0.00    +0.210 HD
ENDBRANCH  24  25
ENDBRANCH  14  24
ENDBRANCH  11  12
ENDBRANCH   4  11
BRANCH   3  27
ATOM     27  C   UNL     1       6.741  -7.228  -7.857  0.00  0.00    +0.190 C 
BRANCH  27  28
ATOM     28  O   UNL     1       6.865  -6.724  -9.189  0.00  0.00    -0.392 OA
ATOM     29  H   UNL     1       6.378  -7.316  -9.791  0.00  0.00    +0.210 HD
ENDBRANCH  27  28
ENDBRANCH   3  27
BRANCH   1  30
ATOM     30  O   UNL     1       6.698  -4.730  -4.003  0.00  0.00    -0.461 OA
BRANCH  30  37
ATOM     31  C   UNL     1       4.250  -0.661   0.295  0.00  0.00    +0.211 A 
ATOM     32  C   UNL     1       5.680  -1.151   0.248  0.00  0.00    +0.238 A 
ATOM     33  O   UNL     1       6.532  -0.769   1.041  0.00  0.00    -0.283 OA
ATOM     34  C   UNL     1       6.007  -2.154  -0.782  0.00  0.00    +0.109 A 
ATOM     35  C   UNL     1       4.946  -2.842  -1.338  0.00  0.00    +0.147 A 
ATOM     36  C   UNL     1       5.194  -3.897  -2.221  0.00  0.00    +0.093 A 
ATOM     37  C   UNL     1       6.444  -4.065  -2.819  0.00  0.00    +0.131 A 
ATOM     38  C   UNL     1       7.523  -3.402  -2.238  0.00  0.00    +0.092 A 
ATOM     39  O   UNL     1       3.626  -2.518  -1.118  0.00  0.00    -0.451 OA
ATOM     40  C   UNL     1       7.308  -2.492  -1.188  0.00  0.00    +0.135 A 
ATOM     41  C   UNL     1       3.340  -1.354  -0.413  0.00  0.00    +0.181 A 
BRANCH  41  42
ATOM     42  C   UNL     1       1.897  -0.989  -0.456  0.00  0.00    +0.025 A 
ATOM     43  C   UNL     1       1.401  -0.127  -1.451  0.00  0.00    +0.015 A 
ATOM     44  C   UNL     1       0.032   0.148  -1.531  0.00  0.00    +0.050 A 
ATOM     45  C   UNL     1      -0.849  -0.433  -0.632  0.00  0.00    +0.158 A 
ATOM     46  C   UNL     1      -0.368  -1.257   0.384  0.00  0.00    +0.159 A 
ATOM     47  C   UNL     1       0.999  -1.548   0.467  0.00  0.00    +0.060 A 
BRANCH  46  48
ATOM     48  O   UNL     1      -1.278  -1.778   1.268  0.00  0.00    -0.503 OA
ATOM     49  H   UNL     1      -0.779  -2.177   2.005  0.00  0.00    +0.292 HD
ENDBRANCH  46  48
BRANCH  45  50
ATOM     50  O   UNL     1      -2.191  -0.191  -0.731  0.00  0.00    -0.503 OA
ATOM     51  H   UNL     1      -2.597  -0.738  -0.030  0.00  0.00    +0.292 HD
ENDBRANCH  45  50
ENDBRANCH  41  42
BRANCH  31  53
ATOM     52  C   UNL     1       4.866   1.386   1.377  0.00  0.00    +0.277 C 
ATOM     53  O   UNL     1       3.862   0.416   1.086  0.00  0.00    -0.488 OA
ENDBRANCH  31  53
BRANCH  40  54
ATOM     54  O   UNL     1       8.395  -1.897  -0.611  0.00  0.00    -0.506 OA
ATOM     55  H   UNL     1       9.199  -2.404  -0.812  0.00  0.00    +0.292 HD
ENDBRANCH  40  54
ENDBRANCH  30  37
ENDBRANCH   1  30
TORSDOF 18
