REMARK  Name = 
REMARK  22 active torsions:
REMARK  status: ('A' for Active; 'I' for Inactive)
REMARK    1  A    between atoms: C_1  and  C_2
REMARK    2  A    between atoms: C_3  and  O_61
REMARK    3  A    between atoms: C_5  and  O_60
REMARK    4  A    between atoms: C_7  and  O_59
REMARK    5  A    between atoms: C_8  and  O_11
REMARK    6  A    between atoms: O_11  and  C_12
REMARK    7  A    between atoms: C_12  and  C_13
REMARK    8  A    between atoms: C_14  and  O_58
REMARK    9  A    between atoms: C_16  and  O_57
REMARK   10  A    between atoms: C_17  and  O_56
REMARK   11  A    between atoms: C_18  and  O_21
REMARK   12  A    between atoms: O_21  and  C_22
REMARK   13  A    between atoms: C_23  and  C_48
REMARK   14  A    between atoms: C_27  and  O_34
REMARK   15  A    between atoms: C_29  and  O_33
REMARK   16  A    between atoms: O_34  and  C_35
REMARK   17  A    between atoms: C_37  and  O_47
REMARK   18  A    between atoms: C_38  and  O_46
REMARK   19  A    between atoms: C_40  and  O_45
REMARK   20  A    between atoms: C_42  and  C_44
REMARK   21  A    between atoms: C_50  and  O_55
REMARK   22  A    between atoms: C_51  and  O_54
REMARK                            x       y       z     vdW  Elec       q    Type
REMARK                         _______ _______ _______ _____ _____    ______ ____
ROOT
ATOM      1  C   UNL     1       4.308   7.221  -0.997  0.00  0.00    +0.214 A 
ATOM      2  C   UNL     1       4.816   8.518  -0.412  0.00  0.00    +0.238 A 
ATOM      3  O   UNL     1       4.549   9.586  -0.956  0.00  0.00    -0.283 OA
ATOM      4  C   UNL     1       5.583   8.395   0.878  0.00  0.00    +0.109 A 
ATOM      5  C   UNL     1       5.347   7.257   1.644  0.00  0.00    +0.147 A 
ATOM      6  C   UNL     1       6.008   6.977   2.853  0.00  0.00    +0.093 A 
ATOM      7  C   UNL     1       7.004   7.827   3.320  0.00  0.00    +0.131 A 
ATOM      8  C   UNL     1       7.224   8.999   2.582  0.00  0.00    +0.092 A 
ATOM      9  O   UNL     1       4.405   6.355   1.268  0.00  0.00    -0.451 OA
ATOM     10  C   UNL     1       6.501   9.289   1.402  0.00  0.00    +0.135 A 
ATOM     11  C   UNL     1       4.185   6.228  -0.083  0.00  0.00    +0.181 A 
ENDROOT
BRANCH  11  12
ATOM     12  C   UNL     1       3.948   4.807  -0.362  0.00  0.00    +0.025 A 
ATOM     13  C   UNL     1       5.047   4.022  -0.754  0.00  0.00    +0.015 A 
ATOM     14  C   UNL     1       4.938   2.635  -0.856  0.00  0.00    +0.050 A 
ATOM     15  C   UNL     1       3.756   2.026  -0.452  0.00  0.00    +0.158 A 
ATOM     16  C   UNL     1       2.699   2.788   0.039  0.00  0.00    +0.159 A 
ATOM     17  C   UNL     1       2.773   4.174   0.059  0.00  0.00    +0.060 A 
BRANCH  16  18
ATOM     18  O   UNL     1       1.595   2.205   0.593  0.00  0.00    -0.503 OA
ATOM     19  H   UNL     1       1.506   1.333   0.170  0.00  0.00    +0.292 HD
ENDBRANCH  16  18
BRANCH  15  20
ATOM     20  O   UNL     1       3.657   0.666  -0.445  0.00  0.00    -0.503 OA
ATOM     21  H   UNL     1       4.290   0.365   0.232  0.00  0.00    +0.292 HD
ENDBRANCH  15  20
ENDBRANCH  11  12
BRANCH  10  22
ATOM     22  O   UNL     1       6.722  10.469   0.781  0.00  0.00    -0.506 OA
ATOM     23  H   UNL     1       6.931  11.154   1.443  0.00  0.00    +0.292 HD
ENDBRANCH  10  22
BRANCH   7  24
ATOM     24  O   UNL     1       7.809   7.591   4.425  0.00  0.00    -0.461 OA
BRANCH  24  25
ATOM     25  C   UNL     1       7.390   6.518   5.305  0.00  0.00    +0.339 C 
ATOM     26  O   UNL     1       6.165   6.844   5.967  0.00  0.00    -0.334 OA
ATOM     27  C   UNL     1       6.309   7.937   6.886  0.00  0.00    +0.150 C 
ATOM     28  C   UNL     1       4.913   8.309   7.366  0.00  0.00    +0.041 C 
ATOM     29  C   UNL     1       7.232   7.544   8.053  0.00  0.00    +0.174 C 
ATOM     30  C   UNL     1       8.606   7.083   7.528  0.00  0.00    +0.180 C 
ATOM     31  C   UNL     1       8.437   6.085   6.371  0.00  0.00    +0.214 C 
BRANCH  31  32
ATOM     32  O   UNL     1       9.686   5.700   5.796  0.00  0.00    -0.383 OA
ATOM     33  H   UNL     1      10.051   6.478   5.338  0.00  0.00    +0.210 HD
ENDBRANCH  31  32
BRANCH  30  34
ATOM     34  O   UNL     1       9.426   8.206   7.169  0.00  0.00    -0.386 OA
ATOM     35  H   UNL     1       8.936   8.770   6.548  0.00  0.00    +0.210 HD
ENDBRANCH  30  34
BRANCH  29  36
ATOM     36  O   UNL     1       7.375   8.633   8.967  0.00  0.00    -0.387 OA
ATOM     37  H   UNL     1       8.306   8.926   8.938  0.00  0.00    +0.210 HD
ENDBRANCH  29  36
ENDBRANCH  24  25
ENDBRANCH   7  24
BRANCH   1  38
ATOM     38  O   UNL     1       3.921   7.038  -2.308  0.00  0.00    -0.453 OA
BRANCH  38  41
ATOM     39  C   UNL     1       6.023   9.362  -4.385  0.00  0.00    +0.179 C 
ATOM     40  O   UNL     1       5.618   8.456  -3.333  0.00  0.00    -0.331 OA
ATOM     41  C   UNL     1       4.341   7.821  -3.452  0.00  0.00    +0.340 C 
ATOM     42  C   UNL     1       3.183   8.725  -3.963  0.00  0.00    +0.214 C 
ATOM     43  C   UNL     1       3.638   9.431  -5.248  0.00  0.00    +0.180 C 
ATOM     44  C   UNL     1       4.876  10.276  -4.913  0.00  0.00    +0.177 C 
BRANCH  44  45
ATOM     45  O   UNL     1       5.283  11.020  -6.067  0.00  0.00    -0.386 OA
ATOM     46  H   UNL     1       5.762  11.811  -5.760  0.00  0.00    +0.210 HD
ENDBRANCH  44  45
BRANCH  43  47
ATOM     47  O   UNL     1       2.578  10.241  -5.778  0.00  0.00    -0.386 OA
ATOM     48  H   UNL     1       2.256  10.798  -5.046  0.00  0.00    +0.210 HD
ENDBRANCH  43  47
BRANCH  42  49
ATOM     49  O   UNL     1       2.752   9.734  -3.034  0.00  0.00    -0.383 OA
ATOM     50  H   UNL     1       3.363   9.730  -2.263  0.00  0.00    +0.210 HD
ENDBRANCH  42  49
BRANCH  39  51
ATOM     51  C   UNL     1       6.791   8.698  -5.573  0.00  0.00    +0.197 C 
BRANCH  51  52
ATOM     52  O   UNL     1       8.091   8.186  -5.302  0.00  0.00    -0.346 OA
BRANCH  52  56
ATOM     53  C   UNL     1      10.519   5.232  -3.317  0.00  0.00    +0.041 C 
ATOM     54  C   UNL     1      10.268   5.334  -4.817  0.00  0.00    +0.149 C 
ATOM     55  O   UNL     1       9.719   6.619  -5.136  0.00  0.00    -0.343 OA
ATOM     56  C   UNL     1       8.312   6.837  -4.903  0.00  0.00    +0.282 C 
ATOM     57  C   UNL     1       7.525   5.758  -5.686  0.00  0.00    +0.201 C 
ATOM     58  C   UNL     1       7.941   4.385  -5.117  0.00  0.00    +0.179 C 
ATOM     59  C   UNL     1       9.441   4.145  -5.340  0.00  0.00    +0.174 C 
BRANCH  59  60
ATOM     60  O   UNL     1       9.713   3.918  -6.730  0.00  0.00    -0.387 OA
ATOM     61  H   UNL     1       9.151   4.547  -7.235  0.00  0.00    +0.210 HD
ENDBRANCH  59  60
BRANCH  58  62
ATOM     62  O   UNL     1       7.148   3.332  -5.686  0.00  0.00    -0.386 OA
ATOM     63  H   UNL     1       7.731   2.547  -5.777  0.00  0.00    +0.210 HD
ENDBRANCH  58  62
BRANCH  57  64
ATOM     64  O   UNL     1       7.840   5.818  -7.097  0.00  0.00    -0.384 OA
ATOM     65  H   UNL     1       8.088   6.745  -7.290  0.00  0.00    +0.210 HD
ENDBRANCH  57  64
ENDBRANCH  52  56
ENDBRANCH  51  52
ENDBRANCH  39  51
ENDBRANCH  38  41
ENDBRANCH   1  38
TORSDOF 20
