REMARK  Name = 
REMARK  13 active torsions:
REMARK  status: ('A' for Active; 'I' for Inactive)
REMARK    1  A    between atoms: C_1  and  O_2
REMARK    2  A    between atoms: O_2  and  C_3
REMARK    3  A    between atoms: C_4  and  C_31
REMARK    4  A    between atoms: C_8  and  O_15
REMARK    5  A    between atoms: C_10  and  O_14
REMARK    6  A    between atoms: O_15  and  C_16
REMARK    7  A    between atoms: C_18  and  O_30
REMARK    8  A    between atoms: C_19  and  O_29
REMARK    9  A    between atoms: C_21  and  O_28
REMARK   10  A    between atoms: C_23  and  C_25
REMARK   11  A    between atoms: C_25  and  O_27
REMARK   12  A    between atoms: C_33  and  O_38
REMARK   13  A    between atoms: C_34  and  O_37
REMARK                            x       y       z     vdW  Elec       q    Type
REMARK                         _______ _______ _______ _____ _____    ______ ____
ROOT
ATOM      1  C   UNL     1       3.009  -0.989   0.403  0.00  0.00    +0.211 A 
ATOM      2  C   UNL     1       4.343  -0.928   1.094  0.00  0.00    +0.238 A 
ATOM      3  O   UNL     1       4.872   0.142   1.373  0.00  0.00    -0.283 OA
ATOM      4  C   UNL     1       5.005  -2.212   1.404  0.00  0.00    +0.109 A 
ATOM      5  C   UNL     1       4.374  -3.384   1.006  0.00  0.00    +0.147 A 
ATOM      6  C   UNL     1       4.919  -4.636   1.322  0.00  0.00    +0.093 A 
ATOM      7  C   UNL     1       6.108  -4.732   2.052  0.00  0.00    +0.131 A 
ATOM      8  C   UNL     1       6.783  -3.560   2.393  0.00  0.00    +0.092 A 
ATOM      9  O   UNL     1       3.205  -3.400   0.291  0.00  0.00    -0.451 OA
ATOM     10  C   UNL     1       6.232  -2.311   2.082  0.00  0.00    +0.135 A 
ATOM     11  C   UNL     1       2.567  -2.203   0.019  0.00  0.00    +0.181 A 
ENDROOT
BRANCH  11  12
ATOM     12  C   UNL     1       1.343  -2.412  -0.780  0.00  0.00    +0.025 A 
ATOM     13  C   UNL     1       0.133  -2.755  -0.154  0.00  0.00    +0.015 A 
ATOM     14  C   UNL     1      -0.992  -3.093  -0.914  0.00  0.00    +0.050 A 
ATOM     15  C   UNL     1      -0.908  -3.079  -2.299  0.00  0.00    +0.158 A 
ATOM     16  C   UNL     1       0.273  -2.705  -2.931  0.00  0.00    +0.159 A 
ATOM     17  C   UNL     1       1.403  -2.376  -2.186  0.00  0.00    +0.060 A 
BRANCH  15  18
ATOM     18  O   UNL     1      -1.995  -3.445  -3.040  0.00  0.00    -0.503 OA
ATOM     19  H   UNL     1      -1.691  -3.388  -3.968  0.00  0.00    +0.292 HD
ENDBRANCH  15  18
BRANCH  16  20
ATOM     20  O   UNL     1       0.277  -2.687  -4.300  0.00  0.00    -0.503 OA
ATOM     21  H   UNL     1       1.084  -2.233  -4.595  0.00  0.00    +0.292 HD
ENDBRANCH  16  20
ENDBRANCH  11  12
BRANCH   1  23
ATOM     22  C   UNL     1       2.307   1.174   1.109  0.00  0.00    +0.277 C 
ATOM     23  O   UNL     1       2.294   0.165   0.098  0.00  0.00    -0.488 OA
ENDBRANCH   1  23
BRANCH  10  24
ATOM     24  O   UNL     1       6.910  -1.189   2.466  0.00  0.00    -0.506 OA
ATOM     25  H   UNL     1       7.771  -1.417   2.848  0.00  0.00    +0.292 HD
ENDBRANCH  10  24
BRANCH   7  26
ATOM     26  O   UNL     1       6.693  -5.894   2.504  0.00  0.00    -0.461 OA
BRANCH  26  27
ATOM     27  C   UNL     1       5.868  -7.070   2.454  0.00  0.00    +0.340 C 
ATOM     28  O   UNL     1       4.724  -6.920   3.312  0.00  0.00    -0.322 OA
ATOM     29  C   UNL     1       5.074  -6.993   4.710  0.00  0.00    +0.261 C 
ATOM     30  C   UNL     1       5.599  -8.389   5.041  0.00  0.00    +0.185 C 
ATOM     31  C   UNL     1       6.902  -8.601   4.262  0.00  0.00    +0.180 C 
ATOM     32  C   UNL     1       6.682  -8.359   2.762  0.00  0.00    +0.214 C 
BRANCH  29  33
ATOM     33  C   UNL     1       3.854  -6.668   5.568  0.00  0.00    +0.337 C 
ATOM     34  O   UNL     1       3.827  -6.721   6.788  0.00  0.00    -0.248 OA
BRANCH  33  35
ATOM     35  O   UNL     1       2.806  -6.246   4.816  0.00  0.00    -0.479 OA
ATOM     36  H   UNL     1       3.058  -6.320   3.867  0.00  0.00    +0.295 HD
ENDBRANCH  33  35
ENDBRANCH  29  33
BRANCH  30  37
ATOM     37  O   UNL     1       4.639  -9.363   4.602  0.00  0.00    -0.386 OA
ATOM     38  H   UNL     1       4.832 -10.205   5.051  0.00  0.00    +0.210 HD
ENDBRANCH  30  37
BRANCH  31  39
ATOM     39  O   UNL     1       7.968  -7.786   4.763  0.00  0.00    -0.386 OA
ATOM     40  H   UNL     1       7.887  -6.883   4.407  0.00  0.00    +0.210 HD
ENDBRANCH  31  39
BRANCH  32  41
ATOM     41  O   UNL     1       7.932  -8.379   2.063  0.00  0.00    -0.383 OA
ATOM     42  H   UNL     1       8.639  -8.236   2.722  0.00  0.00    +0.210 HD
ENDBRANCH  32  41
ENDBRANCH  26  27
ENDBRANCH   7  26
TORSDOF 12
