REMARK  Name = 
REMARK  16 active torsions:
REMARK  status: ('A' for Active; 'I' for Inactive)
REMARK    1  A    between atoms: C_3  and  O_47
REMARK    2  A    between atoms: C_6  and  C_7
REMARK    3  A    between atoms: C_8  and  C_9
REMARK    4  A    between atoms: C_9  and  O_11
REMARK    5  A    between atoms: O_11  and  C_12
REMARK    6  A    between atoms: C_14  and  O_25
REMARK    7  A    between atoms: C_17  and  C_23
REMARK    8  A    between atoms: C_18  and  O_22
REMARK    9  A    between atoms: C_20  and  O_21
REMARK   10  A    between atoms: C_23  and  O_24
REMARK   11  A    between atoms: O_25  and  C_26
REMARK   12  A    between atoms: C_27  and  C_39
REMARK   13  A    between atoms: C_31  and  O_38
REMARK   14  A    between atoms: C_33  and  O_37
REMARK   15  A    between atoms: C_41  and  O_46
REMARK   16  A    between atoms: C_42  and  O_45
REMARK                            x       y       z     vdW  Elec       q    Type
REMARK                         _______ _______ _______ _____ _____    ______ ____
ROOT
ATOM      1  C   UNL     1      -7.497   1.719  -0.854  0.00  0.00    +0.276 C 
ATOM      2  C   UNL     1      -7.821   0.299  -1.361  0.00  0.00    +0.192 C 
ATOM      3  C   UNL     1      -7.399   0.110  -2.827  0.00  0.00    +0.178 C 
ATOM      4  C   UNL     1      -7.936   1.211  -3.753  0.00  0.00    +0.179 C 
ATOM      5  O   UNL     1      -7.686   2.516  -3.216  0.00  0.00    -0.330 OA
ATOM      6  C   UNL     1      -8.072   2.746  -1.855  0.00  0.00    +0.352 C 
ENDROOT
BRANCH   3   7
ATOM      7  O   UNL     1      -5.963   0.113  -2.900  0.00  0.00    -0.386 OA
ATOM      8  H   UNL     1      -5.659   1.036  -2.796  0.00  0.00    +0.210 HD
ENDBRANCH   3   7
BRANCH   2   9
ATOM      9  O   UNL     1      -9.213  -0.013  -1.221  0.00  0.00    -0.385 OA
ATOM     10  H   UNL     1      -9.713   0.814  -1.099  0.00  0.00    +0.210 HD
ENDBRANCH   2   9
BRANCH   6  11
ATOM     11  O   UNL     1      -9.527   2.772  -1.688  0.00  0.00    -0.452 OA
BRANCH  11  12
ATOM     12  C   UNL     1     -10.070   4.046  -1.737  0.00  0.00    +0.214 A 
ATOM     13  C   UNL     1      -9.293   5.163  -1.115  0.00  0.00    +0.238 A 
ATOM     14  O   UNL     1      -8.612   4.970  -0.113  0.00  0.00    -0.283 OA
ATOM     15  C   UNL     1      -9.430   6.462  -1.753  0.00  0.00    +0.109 A 
ATOM     16  C   UNL     1     -10.650   6.692  -2.373  0.00  0.00    +0.147 A 
ATOM     17  C   UNL     1     -10.898   7.934  -2.956  0.00  0.00    +0.092 A 
ATOM     18  C   UNL     1      -9.913   8.918  -2.898  0.00  0.00    +0.124 A 
ATOM     19  C   UNL     1      -8.680   8.687  -2.288  0.00  0.00    +0.091 A 
ATOM     20  O   UNL     1     -11.653   5.745  -2.371  0.00  0.00    -0.451 OA
ATOM     21  C   UNL     1      -8.434   7.443  -1.720  0.00  0.00    +0.135 A 
ATOM     22  C   UNL     1     -11.322   4.389  -2.143  0.00  0.00    +0.181 A 
BRANCH  22  23
ATOM     23  C   UNL     1     -12.522   3.478  -2.351  0.00  0.00    +0.025 A 
ATOM     24  C   UNL     1     -12.538   2.107  -2.028  0.00  0.00    +0.015 A 
ATOM     25  C   UNL     1     -13.700   1.311  -2.127  0.00  0.00    +0.050 A 
ATOM     26  C   UNL     1     -14.890   1.890  -2.518  0.00  0.00    +0.158 A 
ATOM     27  C   UNL     1     -14.928   3.240  -2.824  0.00  0.00    +0.159 A 
ATOM     28  C   UNL     1     -13.766   4.024  -2.756  0.00  0.00    +0.060 A 
BRANCH  27  29
ATOM     29  O   UNL     1     -16.141   3.770  -3.164  0.00  0.00    -0.503 OA
ATOM     30  H   UNL     1     -16.060   4.734  -3.228  0.00  0.00    +0.292 HD
ENDBRANCH  27  29
BRANCH  26  31
ATOM     31  O   UNL     1     -16.025   1.134  -2.572  0.00  0.00    -0.503 OA
ATOM     32  H   UNL     1     -16.733   1.754  -2.838  0.00  0.00    +0.292 HD
ENDBRANCH  26  31
ENDBRANCH  22  23
BRANCH  21  33
ATOM     33  O   UNL     1      -7.220   7.183  -1.157  0.00  0.00    -0.506 OA
ATOM     34  H   UNL     1      -6.659   7.975  -1.184  0.00  0.00    +0.292 HD
ENDBRANCH  21  33
BRANCH  18  35
ATOM     35  O   UNL     1     -10.110  10.164  -3.424  0.00  0.00    -0.507 OA
ATOM     36  H   UNL     1     -11.001  10.215  -3.804  0.00  0.00    +0.292 HD
ENDBRANCH  18  35
ENDBRANCH  11  12
ENDBRANCH   6  11
BRANCH   4  37
ATOM     37  C   UNL     1      -9.404   1.091  -4.175  0.00  0.00    +0.190 C 
BRANCH  37  38
ATOM     38  O   UNL     1      -9.729   2.175  -5.047  0.00  0.00    -0.392 OA
ATOM     39  H   UNL     1      -9.260   2.959  -4.703  0.00  0.00    +0.210 HD
ENDBRANCH  37  38
ENDBRANCH   4  37
BRANCH   1  40
ATOM     40  O   UNL     1      -6.089   1.784  -0.478  0.00  0.00    -0.449 OA
BRANCH  40  41
ATOM     41  C   UNL     1      -5.365   2.922  -0.598  0.00  0.00    +0.332 C 
ATOM     42  O   UNL     1      -5.402   3.706  -1.527  0.00  0.00    -0.246 OA
BRANCH  41  44
ATOM     43  C   UNL     1      -3.896   4.228   0.867  0.00  0.00    +0.015 C 
ATOM     44  C   UNL     1      -4.524   3.067   0.617  0.00  0.00    +0.092 C 
BRANCH  43  46
ATOM     45  C   UNL     1      -3.308   3.974   3.318  0.00  0.00    +0.011 A 
ATOM     46  C   UNL     1      -3.065   4.524   2.050  0.00  0.00    -0.025 A 
ATOM     47  C   UNL     1      -2.027   5.459   1.919  0.00  0.00    +0.011 A 
ATOM     48  C   UNL     1      -1.241   5.822   3.018  0.00  0.00    +0.046 A 
ATOM     49  C   UNL     1      -1.501   5.265   4.263  0.00  0.00    +0.117 A 
ATOM     50  C   UNL     1      -2.525   4.340   4.423  0.00  0.00    +0.046 A 
BRANCH  49  51
ATOM     51  O   UNL     1      -0.728   5.667   5.312  0.00  0.00    -0.507 OA
ATOM     52  H   UNL     1      -1.078   5.273   6.128  0.00  0.00    +0.292 HD
ENDBRANCH  49  51
ENDBRANCH  43  46
ENDBRANCH  41  44
ENDBRANCH  40  41
ENDBRANCH   1  40
TORSDOF 16
