REMARK  Name = 
REMARK  23 active torsions:
REMARK  status: ('A' for Active; 'I' for Inactive)
REMARK    1  A    between atoms: C_1  and  C_2
REMARK    2  A    between atoms: C_2  and  O_4
REMARK    3  A    between atoms: O_4  and  C_5
REMARK    4  A    between atoms: C_5  and  C_6
REMARK    5  A    between atoms: C_8  and  O_53
REMARK    6  A    between atoms: C_10  and  O_49
REMARK    7  A    between atoms: C_11  and  O_14
REMARK    8  A    between atoms: O_14  and  C_15
REMARK    9  A    between atoms: C_15  and  C_16
REMARK   10  A    between atoms: C_17  and  O_48
REMARK   11  A    between atoms: C_19  and  O_47
REMARK   12  A    between atoms: C_20  and  O_46
REMARK   13  A    between atoms: C_21  and  O_24
REMARK   14  A    between atoms: O_24  and  C_25
REMARK   15  A    between atoms: C_26  and  C_38
REMARK   16  A    between atoms: C_30  and  O_37
REMARK   17  A    between atoms: C_32  and  O_36
REMARK   18  A    between atoms: C_40  and  O_45
REMARK   19  A    between atoms: C_41  and  O_44
REMARK   20  A    between atoms: O_49  and  C_50
REMARK   21  A    between atoms: C_50  and  C_52
REMARK   22  A    between atoms: O_53  and  C_54
REMARK   23  A    between atoms: C_54  and  C_56
REMARK                            x       y       z     vdW  Elec       q    Type
REMARK                         _______ _______ _______ _____ _____    ______ ____
ROOT
ATOM      1  C   UNL     1       9.217  -1.233  -5.678  0.00  0.00    +0.179 C 
ATOM      2  O   UNL     1       8.128  -1.599  -6.572  0.00  0.00    -0.331 OA
ATOM      3  C   UNL     1       7.288  -2.688  -6.106  0.00  0.00    +0.340 C 
ATOM      4  C   UNL     1       8.163  -3.943  -5.908  0.00  0.00    +0.214 C 
ATOM      5  C   UNL     1       9.334  -3.662  -4.964  0.00  0.00    +0.180 C 
ATOM      6  C   UNL     1      10.139  -2.447  -5.455  0.00  0.00    +0.177 C 
ENDROOT
BRANCH   6   7
ATOM      7  O   UNL     1      11.210  -2.160  -4.561  0.00  0.00    -0.386 OA
ATOM      8  H   UNL     1      11.740  -1.447  -4.957  0.00  0.00    +0.210 HD
ENDBRANCH   6   7
BRANCH   5   9
ATOM      9  O   UNL     1      10.174  -4.831  -4.932  0.00  0.00    -0.386 OA
ATOM     10  H   UNL     1      10.295  -5.089  -5.868  0.00  0.00    +0.210 HD
ENDBRANCH   5   9
BRANCH   4  11
ATOM     11  O   UNL     1       8.727  -4.371  -7.178  0.00  0.00    -0.383 OA
ATOM     12  H   UNL     1       8.368  -3.769  -7.860  0.00  0.00    +0.210 HD
ENDBRANCH   4  11
BRANCH   3  13
ATOM     13  O   UNL     1       6.291  -2.965  -7.129  0.00  0.00    -0.453 OA
BRANCH  13  14
ATOM     14  C   UNL     1       5.254  -3.871  -6.872  0.00  0.00    +0.214 A 
ATOM     15  C   UNL     1       4.862  -4.241  -5.473  0.00  0.00    +0.238 A 
ATOM     16  O   UNL     1       5.282  -3.611  -4.510  0.00  0.00    -0.283 OA
ATOM     17  C   UNL     1       3.963  -5.395  -5.288  0.00  0.00    +0.109 A 
ATOM     18  C   UNL     1       3.265  -5.845  -6.402  0.00  0.00    +0.147 A 
ATOM     19  C   UNL     1       2.299  -6.852  -6.269  0.00  0.00    +0.092 A 
ATOM     20  C   UNL     1       2.075  -7.425  -5.018  0.00  0.00    +0.124 A 
ATOM     21  C   UNL     1       2.810  -7.029  -3.907  0.00  0.00    +0.091 A 
ATOM     22  O   UNL     1       3.487  -5.345  -7.659  0.00  0.00    -0.451 OA
ATOM     23  C   UNL     1       3.756  -6.014  -4.044  0.00  0.00    +0.135 A 
ATOM     24  C   UNL     1       4.553  -4.465  -7.872  0.00  0.00    +0.181 A 
BRANCH  24  25
ATOM     25  C   UNL     1       4.878  -4.338  -9.328  0.00  0.00    +0.025 A 
ATOM     26  C   UNL     1       4.865  -5.511 -10.120  0.00  0.00    +0.015 A 
ATOM     27  C   UNL     1       5.267  -5.498 -11.460  0.00  0.00    +0.050 A 
ATOM     28  C   UNL     1       5.642  -4.301 -12.037  0.00  0.00    +0.158 A 
ATOM     29  C   UNL     1       5.577  -3.119 -11.309  0.00  0.00    +0.159 A 
ATOM     30  C   UNL     1       5.208  -3.123  -9.959  0.00  0.00    +0.060 A 
BRANCH  29  31
ATOM     31  O   UNL     1       5.901  -1.969 -11.975  0.00  0.00    -0.503 OA
ATOM     32  H   UNL     1       6.589  -1.518 -11.457  0.00  0.00    +0.292 HD
ENDBRANCH  29  31
BRANCH  28  33
ATOM     33  O   UNL     1       6.109  -4.297 -13.320  0.00  0.00    -0.503 OA
ATOM     34  H   UNL     1       6.327  -3.364 -13.509  0.00  0.00    +0.292 HD
ENDBRANCH  28  33
ENDBRANCH  24  25
BRANCH  23  35
ATOM     35  O   UNL     1       4.495  -5.657  -2.950  0.00  0.00    -0.506 OA
ATOM     36  H   UNL     1       4.199  -6.153  -2.169  0.00  0.00    +0.292 HD
ENDBRANCH  23  35
BRANCH  20  37
ATOM     37  O   UNL     1       1.141  -8.400  -4.829  0.00  0.00    -0.507 OA
ATOM     38  H   UNL     1       0.661  -8.556  -5.660  0.00  0.00    +0.292 HD
ENDBRANCH  20  37
ENDBRANCH  13  14
ENDBRANCH   3  13
BRANCH   1  39
ATOM     39  C   UNL     1       8.729  -0.508  -4.391  0.00  0.00    +0.197 C 
BRANCH  39  40
ATOM     40  O   UNL     1       9.761   0.217  -3.667  0.00  0.00    -0.345 OA
BRANCH  40  43
ATOM     41  C   UNL     1       8.584   3.231  -2.656  0.00  0.00    +0.203 C 
ATOM     42  O   UNL     1       8.239   1.924  -3.145  0.00  0.00    -0.337 OA
ATOM     43  C   UNL     1       9.168   0.976  -2.600  0.00  0.00    +0.295 C 
ATOM     44  C   UNL     1      10.106   1.749  -1.618  0.00  0.00    +0.275 C 
ATOM     45  C   UNL     1       9.248   2.990  -1.299  0.00  0.00    +0.254 C 
BRANCH  44  46
ATOM     46  O   UNL     1      11.388   2.154  -2.155  0.00  0.00    -0.453 OA
BRANCH  46  47
ATOM     47  C   UNL     1      12.246   2.606  -1.184  0.00  0.00    +0.304 C 
ATOM     48  C   UNL     1      13.580   3.005  -1.750  0.00  0.00    +0.136 C 
ATOM     49  O   UNL     1      11.975   2.684   0.006  0.00  0.00    -0.251 OA
ENDBRANCH  46  47
ENDBRANCH  44  46
BRANCH  41  50
ATOM     50  C   UNL     1       7.319   4.090  -2.668  0.00  0.00    +0.267 C 
BRANCH  50  51
ATOM     51  O   UNL     1       6.774   4.193  -4.000  0.00  0.00    -0.462 OA
BRANCH  51  53
ATOM     52  C   UNL     1       6.792   5.030  -6.186  0.00  0.00    +0.136 C 
ATOM     53  C   UNL     1       7.429   5.048  -4.829  0.00  0.00    +0.304 C 
ATOM     54  O   UNL     1       8.400   5.724  -4.522  0.00  0.00    -0.251 OA
ENDBRANCH  51  53
ENDBRANCH  50  51
ENDBRANCH  41  50
BRANCH  45  55
ATOM     55  O   UNL     1       8.284   2.649  -0.276  0.00  0.00    -0.455 OA
BRANCH  55  56
ATOM     56  C   UNL     1       7.741   3.700   0.403  0.00  0.00    +0.304 C 
ATOM     57  C   UNL     1       6.692   3.233   1.364  0.00  0.00    +0.136 C 
ATOM     58  O   UNL     1       7.992   4.878   0.190  0.00  0.00    -0.251 OA
ENDBRANCH  55  56
ENDBRANCH  45  55
ENDBRANCH  40  43
ENDBRANCH  39  40
ENDBRANCH   1  39
TORSDOF 20
