REMARK  Name = 
REMARK  17 active torsions:
REMARK  status: ('A' for Active; 'I' for Inactive)
REMARK    1  A    between atoms: C_3  and  O_47
REMARK    2  A    between atoms: C_4  and  O_46
REMARK    3  A    between atoms: C_6  and  C_7
REMARK    4  A    between atoms: C_8  and  O_20
REMARK    5  A    between atoms: C_12  and  O_19
REMARK    6  A    between atoms: C_14  and  O_18
REMARK    7  A    between atoms: O_20  and  C_21
REMARK    8  A    between atoms: C_23  and  O_45
REMARK    9  A    between atoms: C_24  and  O_44
REMARK   10  A    between atoms: C_25  and  O_43
REMARK   11  A    between atoms: C_27  and  C_30
REMARK   12  A    between atoms: C_30  and  O_31
REMARK   13  A    between atoms: O_31  and  C_32
REMARK   14  A    between atoms: C_32  and  C_34
REMARK   15  A    between atoms: C_36  and  O_42
REMARK   16  A    between atoms: C_37  and  O_41
REMARK   17  A    between atoms: C_38  and  O_40
REMARK                            x       y       z     vdW  Elec       q    Type
REMARK                         _______ _______ _______ _____ _____    ______ ____
ROOT
ATOM      1  C   UNL     1      -3.613  -0.718  -0.651  0.00  0.00    +0.340 C 
ATOM      2  O   UNL     1      -4.134  -0.157  -1.857  0.00  0.00    -0.330 OA
ATOM      3  C   UNL     1      -3.593  -0.424  -3.167  0.00  0.00    +0.191 C 
ATOM      4  C   UNL     1      -2.247  -1.196  -3.242  0.00  0.00    +0.178 C 
ATOM      5  C   UNL     1      -1.934  -1.924  -1.928  0.00  0.00    +0.180 C 
ATOM      6  C   UNL     1      -2.101  -0.890  -0.787  0.00  0.00    +0.214 C 
ENDROOT
BRANCH   4   7
ATOM      7  O   UNL     1      -2.118  -2.061  -4.369  0.00  0.00    -0.386 OA
ATOM      8  H   UNL     1      -2.829  -2.725  -4.345  0.00  0.00    +0.210 HD
ENDBRANCH   4   7
BRANCH   5   9
ATOM      9  O   UNL     1      -0.645  -2.549  -1.928  0.00  0.00    -0.386 OA
ATOM     10  H   UNL     1      -0.003  -1.924  -2.287  0.00  0.00    +0.210 HD
ENDBRANCH   5   9
BRANCH   6  11
ATOM     11  O   UNL     1      -1.521  -1.314   0.451  0.00  0.00    -0.383 OA
ATOM     12  H   UNL     1      -2.239  -1.374   1.108  0.00  0.00    +0.210 HD
ENDBRANCH   6  11
BRANCH   1  13
ATOM     13  O   UNL     1      -4.040  -2.049  -0.197  0.00  0.00    -0.453 OA
BRANCH  13  24
ATOM     14  C   UNL     1      -5.538  -3.331   1.245  0.00  0.00    +0.181 A 
ATOM     15  O   UNL     1      -6.877  -3.642   1.576  0.00  0.00    -0.451 OA
ATOM     16  C   UNL     1      -7.874  -3.301   0.710  0.00  0.00    +0.147 A 
ATOM     17  C   UNL     1      -7.716  -2.255  -0.178  0.00  0.00    +0.109 A 
ATOM     18  C   UNL     1      -8.741  -1.890  -1.045  0.00  0.00    +0.135 A 
ATOM     19  C   UNL     1      -9.947  -2.579  -1.023  0.00  0.00    +0.091 A 
ATOM     20  C   UNL     1     -10.106  -3.623  -0.111  0.00  0.00    +0.124 A 
ATOM     21  C   UNL     1      -6.441  -1.556  -0.151  0.00  0.00    +0.238 A 
ATOM     22  O   UNL     1      -6.394  -0.419  -0.597  0.00  0.00    -0.283 OA
ATOM     23  C   UNL     1      -9.076  -4.002   0.746  0.00  0.00    +0.092 A 
ATOM     24  C   UNL     1      -5.265  -2.321   0.360  0.00  0.00    +0.214 A 
BRANCH  14  26
ATOM     25  C   UNL     1      -3.290  -4.595   1.701  0.00  0.00    +0.015 A 
ATOM     26  C   UNL     1      -4.636  -4.321   1.988  0.00  0.00    +0.025 A 
ATOM     27  C   UNL     1      -5.217  -5.126   3.014  0.00  0.00    +0.060 A 
ATOM     28  C   UNL     1      -4.538  -6.203   3.595  0.00  0.00    +0.159 A 
ATOM     29  C   UNL     1      -3.255  -6.513   3.206  0.00  0.00    +0.158 A 
ATOM     30  C   UNL     1      -2.604  -5.689   2.294  0.00  0.00    +0.050 A 
BRANCH  28  31
ATOM     31  O   UNL     1      -5.177  -6.975   4.532  0.00  0.00    -0.503 OA
ATOM     32  H   UNL     1      -4.518  -7.659   4.783  0.00  0.00    +0.292 HD
ENDBRANCH  28  31
BRANCH  29  33
ATOM     33  O   UNL     1      -2.686  -7.645   3.730  0.00  0.00    -0.503 OA
ATOM     34  H   UNL     1      -1.960  -7.924   3.145  0.00  0.00    +0.292 HD
ENDBRANCH  29  33
ENDBRANCH  14  26
BRANCH  20  35
ATOM     35  O   UNL     1     -11.280  -4.313  -0.033  0.00  0.00    -0.507 OA
ATOM     36  H   UNL     1     -11.935  -3.885  -0.608  0.00  0.00    +0.292 HD
ENDBRANCH  20  35
BRANCH  18  37
ATOM     37  O   UNL     1      -8.614  -0.874  -1.953  0.00  0.00    -0.506 OA
ATOM     38  H   UNL     1      -7.779  -0.393  -1.755  0.00  0.00    +0.292 HD
ENDBRANCH  18  37
ENDBRANCH  13  24
ENDBRANCH   1  13
BRANCH   3  39
ATOM     39  C   UNL     1      -4.789  -0.958  -3.964  0.00  0.00    +0.266 C 
BRANCH  39  40
ATOM     40  O   UNL     1      -4.534  -1.277  -5.332  0.00  0.00    -0.458 OA
BRANCH  40  41
ATOM     41  C   UNL     1      -4.682  -0.281  -6.239  0.00  0.00    +0.340 C 
ATOM     42  O   UNL     1      -4.822   0.907  -5.991  0.00  0.00    -0.245 OA
BRANCH  41  43
ATOM     43  C   UNL     1      -4.692  -0.857  -7.613  0.00  0.00    +0.066 A 
ATOM     44  C   UNL     1      -4.648  -2.248  -7.811  0.00  0.00    +0.064 A 
ATOM     45  C   UNL     1      -4.652  -2.759  -9.097  0.00  0.00    +0.163 A 
ATOM     46  C   UNL     1      -4.698  -1.908 -10.191  0.00  0.00    +0.201 A 
ATOM     47  C   UNL     1      -4.746  -0.531 -10.006  0.00  0.00    +0.163 A 
ATOM     48  C   UNL     1      -4.757   0.010  -8.723  0.00  0.00    +0.064 A 
BRANCH  45  49
ATOM     49  O   UNL     1      -4.596  -4.109  -9.272  0.00  0.00    -0.503 OA
ATOM     50  H   UNL     1      -4.578  -4.235 -10.241  0.00  0.00    +0.292 HD
ENDBRANCH  45  49
BRANCH  46  51
ATOM     51  O   UNL     1      -4.679  -2.449 -11.447  0.00  0.00    -0.501 OA
ATOM     52  H   UNL     1      -4.708  -1.673 -12.045  0.00  0.00    +0.292 HD
ENDBRANCH  46  51
BRANCH  47  53
ATOM     53  O   UNL     1      -4.766   0.253 -11.128  0.00  0.00    -0.503 OA
ATOM     54  H   UNL     1      -4.658   1.181 -10.859  0.00  0.00    +0.292 HD
ENDBRANCH  47  53
ENDBRANCH  41  43
ENDBRANCH  40  41
ENDBRANCH  39  40
ENDBRANCH   3  39
TORSDOF 17
