REMARK  Name = 
REMARK  32 active torsions:
REMARK  status: ('A' for Active; 'I' for Inactive)
REMARK    1  A    between atoms: C_1  and  C_2
REMARK    2  A    between atoms: C_3  and  O_87
REMARK    3  A    between atoms: C_5  and  O_86
REMARK    4  A    between atoms: C_6  and  O_85
REMARK    5  A    between atoms: C_8  and  O_11
REMARK    6  A    between atoms: O_11  and  C_12
REMARK    7  A    between atoms: C_13  and  O_84
REMARK    8  A    between atoms: C_15  and  O_83
REMARK    9  A    between atoms: C_17  and  C_43
REMARK   10  A    between atoms: C_19  and  O_21
REMARK   11  A    between atoms: O_21  and  C_22
REMARK   12  A    between atoms: C_23  and  C_35
REMARK   13  A    between atoms: C_27  and  O_34
REMARK   14  A    between atoms: C_29  and  O_33
REMARK   15  A    between atoms: C_37  and  O_42
REMARK   16  A    between atoms: C_38  and  O_41
REMARK   17  A    between atoms: C_43  and  O_44
REMARK   18  A    between atoms: O_44  and  C_45
REMARK   19  A    between atoms: C_47  and  O_82
REMARK   20  A    between atoms: C_49  and  O_67
REMARK   21  A    between atoms: C_50  and  O_55
REMARK   22  A    between atoms: C_52  and  C_54
REMARK   23  A    between atoms: O_55  and  C_56
REMARK   24  A    between atoms: C_56  and  C_58
REMARK   25  A    between atoms: C_59  and  C_60
REMARK   26  A    between atoms: C_63  and  O_66
REMARK   27  A    between atoms: O_67  and  C_68
REMARK   28  A    between atoms: C_70  and  O_81
REMARK   29  A    between atoms: C_71  and  O_80
REMARK   30  A    between atoms: C_73  and  O_79
REMARK   31  A    between atoms: C_75  and  C_77
REMARK   32  A    between atoms: C_77  and  O_78
REMARK                            x       y       z     vdW  Elec       q    Type
REMARK                         _______ _______ _______ _____ _____    ______ ____
ROOT
ATOM      1  C   UNL     1       2.721   2.725  -3.160  0.00  0.00    +0.221 C 
ATOM      2  C   UNL     1       1.596   2.198  -4.108  0.00  0.00    +0.340 C 
ATOM      3  O   UNL     1       2.121   2.134  -5.457  0.00  0.00    -0.331 OA
ATOM      4  C   UNL     1       2.549   3.438  -5.964  0.00  0.00    +0.179 C 
ATOM      5  C   UNL     1       3.662   4.050  -5.105  0.00  0.00    +0.177 C 
ATOM      6  C   UNL     1       3.152   4.133  -3.658  0.00  0.00    +0.180 C 
ENDROOT
BRANCH   5   7
ATOM      7  O   UNL     1       4.855   3.269  -5.233  0.00  0.00    -0.386 OA
ATOM      8  H   UNL     1       4.661   2.383  -4.867  0.00  0.00    +0.210 HD
ENDBRANCH   5   7
BRANCH   6   9
ATOM      9  O   UNL     1       4.105   4.804  -2.825  0.00  0.00    -0.386 OA
ATOM     10  H   UNL     1       3.629   5.145  -2.050  0.00  0.00    +0.210 HD
ENDBRANCH   6   9
BRANCH   4  11
ATOM     11  C   UNL     1       1.404   4.450  -6.077  0.00  0.00    +0.197 C 
BRANCH  11  12
ATOM     12  O   UNL     1       1.801   5.745  -6.502  0.00  0.00    -0.346 OA
BRANCH  12  13
ATOM     13  C   UNL     1       1.838   5.997  -7.905  0.00  0.00    +0.282 C 
ATOM     14  O   UNL     1       1.855   7.419  -8.104  0.00  0.00    -0.342 OA
ATOM     15  C   UNL     1       0.689   8.042  -7.536  0.00  0.00    +0.162 C 
ATOM     16  C   UNL     1       0.846   9.555  -7.686  0.00  0.00    +0.042 C 
ATOM     17  C   UNL     1      -0.601   7.466  -8.184  0.00  0.00    +0.236 C 
ATOM     18  C   UNL     1      -0.663   5.906  -8.031  0.00  0.00    +0.198 C 
ATOM     19  C   UNL     1       0.651   5.415  -8.713  0.00  0.00    +0.203 C 
BRANCH  19  20
ATOM     20  O   UNL     1       0.768   3.999  -8.855  0.00  0.00    -0.384 OA
ATOM     21  H   UNL     1       1.646   3.795  -9.221  0.00  0.00    +0.210 HD
ENDBRANCH  19  20
BRANCH  18  22
ATOM     22  O   UNL     1      -1.869   5.366  -8.594  0.00  0.00    -0.339 OA
BRANCH  22  23
ATOM     23  C   UNL     1      -2.110   3.942  -8.504  0.00  0.00    +0.282 C 
ATOM     24  O   UNL     1      -3.294   3.672  -9.292  0.00  0.00    -0.341 OA
ATOM     25  C   UNL     1      -4.438   4.347  -8.742  0.00  0.00    +0.178 C 
ATOM     26  C   UNL     1      -4.833   3.779  -7.360  0.00  0.00    +0.177 C 
ATOM     27  C   UNL     1      -3.617   3.737  -6.422  0.00  0.00    +0.179 C 
ATOM     28  C   UNL     1      -2.346   3.247  -7.122  0.00  0.00    +0.201 C 
BRANCH  26  29
ATOM     29  O   UNL     1      -5.368   2.462  -7.445  0.00  0.00    -0.386 OA
ATOM     30  H   UNL     1      -6.087   2.380  -6.788  0.00  0.00    +0.210 HD
ENDBRANCH  26  29
BRANCH  27  31
ATOM     31  O   UNL     1      -3.292   5.005  -5.823  0.00  0.00    -0.386 OA
ATOM     32  H   UNL     1      -4.049   5.604  -5.901  0.00  0.00    +0.210 HD
ENDBRANCH  27  31
BRANCH  28  33
ATOM     33  O   UNL     1      -1.292   3.360  -6.164  0.00  0.00    -0.384 OA
ATOM     34  H   UNL     1      -1.525   4.151  -5.631  0.00  0.00    +0.210 HD
ENDBRANCH  28  33
BRANCH  25  35
ATOM     35  C   UNL     1      -5.531   4.377  -9.818  0.00  0.00    +0.190 C 
BRANCH  35  36
ATOM     36  O   UNL     1      -6.220   3.155 -10.030  0.00  0.00    -0.392 OA
ATOM     37  H   UNL     1      -5.607   2.568 -10.509  0.00  0.00    +0.210 HD
ENDBRANCH  35  36
ENDBRANCH  25  35
ENDBRANCH  22  23
ENDBRANCH  18  22
BRANCH  17  38
ATOM     38  O   UNL     1      -1.805   8.148  -7.807  0.00  0.00    -0.453 OA
BRANCH  38  39
ATOM     39  C   UNL     1      -2.079   8.477  -6.531  0.00  0.00    +0.332 C 
ATOM     40  O   UNL     1      -1.486   8.115  -5.532  0.00  0.00    -0.246 OA
BRANCH  39  41
ATOM     41  C   UNL     1      -3.249   9.383  -6.503  0.00  0.00    +0.092 C 
ATOM     42  C   UNL     1      -3.836   9.791  -7.639  0.00  0.00    +0.015 C 
BRANCH  42  43
ATOM     43  C   UNL     1      -5.161  10.389  -7.653  0.00  0.00    -0.025 A 
ATOM     44  C   UNL     1      -6.250   9.509  -7.662  0.00  0.00    +0.011 A 
ATOM     45  C   UNL     1      -7.547  10.001  -7.726  0.00  0.00    +0.046 A 
ATOM     46  C   UNL     1      -7.750  11.373  -7.771  0.00  0.00    +0.117 A 
ATOM     47  C   UNL     1      -6.676  12.262  -7.780  0.00  0.00    +0.046 A 
ATOM     48  C   UNL     1      -5.370  11.767  -7.719  0.00  0.00    +0.011 A 
BRANCH  46  49
ATOM     49  O   UNL     1      -9.039  11.806  -7.826  0.00  0.00    -0.507 OA
ATOM     50  H   UNL     1      -9.046  12.778  -7.773  0.00  0.00    +0.292 HD
ENDBRANCH  46  49
ENDBRANCH  42  43
ENDBRANCH  39  41
ENDBRANCH  38  39
ENDBRANCH  17  38
ENDBRANCH  12  13
ENDBRANCH  11  12
ENDBRANCH   4  11
BRANCH   2  51
ATOM     51  O   UNL     1       0.991   0.953  -3.621  0.00  0.00    -0.453 OA
BRANCH  51  52
ATOM     52  C   UNL     1      -0.088   1.111  -2.720  0.00  0.00    +0.214 A 
ATOM     53  C   UNL     1      -0.460   2.484  -2.168  0.00  0.00    +0.238 A 
ATOM     54  O   UNL     1       0.342   3.420  -2.104  0.00  0.00    -0.283 OA
ATOM     55  C   UNL     1      -1.797   2.695  -1.661  0.00  0.00    +0.109 A 
ATOM     56  C   UNL     1      -2.450   1.574  -1.202  0.00  0.00    +0.147 A 
ATOM     57  C   UNL     1      -3.688   1.693  -0.567  0.00  0.00    +0.092 A 
ATOM     58  C   UNL     1      -4.251   2.956  -0.410  0.00  0.00    +0.124 A 
ATOM     59  C   UNL     1      -3.615   4.091  -0.906  0.00  0.00    +0.091 A 
ATOM     60  O   UNL     1      -1.902   0.330  -1.316  0.00  0.00    -0.451 OA
ATOM     61  C   UNL     1      -2.387   3.959  -1.542  0.00  0.00    +0.135 A 
ATOM     62  C   UNL     1      -0.878   0.098  -2.259  0.00  0.00    +0.181 A 
BRANCH  62  63
ATOM     63  C   UNL     1      -0.847  -1.379  -2.566  0.00  0.00    +0.025 A 
ATOM     64  C   UNL     1      -2.065  -2.103  -2.413  0.00  0.00    +0.015 A 
ATOM     65  C   UNL     1      -2.142  -3.497  -2.505  0.00  0.00    +0.050 A 
ATOM     66  C   UNL     1      -0.999  -4.203  -2.806  0.00  0.00    +0.158 A 
ATOM     67  C   UNL     1       0.202  -3.528  -3.014  0.00  0.00    +0.159 A 
ATOM     68  C   UNL     1       0.297  -2.130  -2.877  0.00  0.00    +0.060 A 
BRANCH  67  69
ATOM     69  O   UNL     1       1.283  -4.304  -3.349  0.00  0.00    -0.503 OA
ATOM     70  H   UNL     1       1.984  -3.714  -3.675  0.00  0.00    +0.292 HD
ENDBRANCH  67  69
BRANCH  66  71
ATOM     71  O   UNL     1      -1.075  -5.563  -2.910  0.00  0.00    -0.503 OA
ATOM     72  H   UNL     1      -0.175  -5.846  -3.164  0.00  0.00    +0.292 HD
ENDBRANCH  66  71
ENDBRANCH  62  63
BRANCH  61  73
ATOM     73  O   UNL     1      -1.772   5.065  -2.056  0.00  0.00    -0.506 OA
ATOM     74  H   UNL     1      -2.296   5.862  -1.872  0.00  0.00    +0.292 HD
ENDBRANCH  61  73
BRANCH  58  75
ATOM     75  O   UNL     1      -5.441   3.142   0.227  0.00  0.00    -0.507 OA
ATOM     76  H   UNL     1      -5.761   2.292   0.574  0.00  0.00    +0.292 HD
ENDBRANCH  58  75
ENDBRANCH  51  52
ENDBRANCH   2  51
BRANCH   1  77
ATOM     77  O   UNL     1       3.826   1.792  -3.035  0.00  0.00    -0.337 OA
BRANCH  77  81
ATOM     78  C   UNL     1       7.609   3.057  -1.704  0.00  0.00    +0.041 C 
ATOM     79  C   UNL     1       6.939   1.816  -1.096  0.00  0.00    +0.149 C 
ATOM     80  O   UNL     1       5.871   1.297  -1.922  0.00  0.00    -0.343 OA
ATOM     81  C   UNL     1       4.767   2.208  -2.025  0.00  0.00    +0.282 C 
ATOM     82  C   UNL     1       4.135   2.448  -0.623  0.00  0.00    +0.201 C 
ATOM     83  C   UNL     1       5.197   2.972   0.339  0.00  0.00    +0.179 C 
ATOM     84  C   UNL     1       6.433   2.070   0.336  0.00  0.00    +0.174 C 
BRANCH  82  85
ATOM     85  O   UNL     1       3.553   1.235  -0.105  0.00  0.00    -0.384 OA
ATOM     86  H   UNL     1       3.079   1.499   0.707  0.00  0.00    +0.210 HD
ENDBRANCH  82  85
BRANCH  83  87
ATOM     87  O   UNL     1       4.630   3.040   1.657  0.00  0.00    -0.386 OA
ATOM     88  H   UNL     1       4.847   2.179   2.073  0.00  0.00    +0.210 HD
ENDBRANCH  83  87
BRANCH  84  89
ATOM     89  O   UNL     1       6.070   0.822   0.953  0.00  0.00    -0.387 OA
ATOM     90  H   UNL     1       5.432   0.392   0.339  0.00  0.00    +0.210 HD
ENDBRANCH  84  89
ENDBRANCH  77  81
ENDBRANCH   1  77
TORSDOF 30
