REMARK  Name = 
REMARK  19 active torsions:
REMARK  status: ('A' for Active; 'I' for Inactive)
REMARK    1  A    between atoms: C_1  and  C_2
REMARK    2  A    between atoms: C_3  and  O_52
REMARK    3  A    between atoms: C_5  and  O_51
REMARK    4  A    between atoms: C_6  and  O_50
REMARK    5  A    between atoms: C_8  and  O_11
REMARK    6  A    between atoms: O_11  and  C_12
REMARK    7  A    between atoms: C_12  and  C_13
REMARK    8  A    between atoms: C_14  and  O_49
REMARK    9  A    between atoms: C_16  and  O_48
REMARK   10  A    between atoms: C_18  and  O_44
REMARK   11  A    between atoms: C_19  and  O_22
REMARK   12  A    between atoms: O_22  and  C_23
REMARK   13  A    between atoms: C_24  and  C_36
REMARK   14  A    between atoms: C_28  and  O_35
REMARK   15  A    between atoms: C_30  and  O_34
REMARK   16  A    between atoms: C_38  and  O_43
REMARK   17  A    between atoms: C_39  and  O_42
REMARK   18  A    between atoms: O_44  and  C_45
REMARK   19  A    between atoms: C_45  and  C_47
REMARK                            x       y       z     vdW  Elec       q    Type
REMARK                         _______ _______ _______ _____ _____    ______ ____
ROOT
ATOM      1  C   UNL     1       2.975   3.819  -4.369  0.00  0.00    +0.179 C 
ATOM      2  O   UNL     1       3.542   4.749  -3.421  0.00  0.00    -0.330 OA
ATOM      3  C   UNL     1       2.696   5.764  -2.848  0.00  0.00    +0.352 C 
ATOM      4  C   UNL     1       1.745   6.479  -3.855  0.00  0.00    +0.275 C 
ATOM      5  C   UNL     1       1.019   5.396  -4.667  0.00  0.00    +0.192 C 
ATOM      6  C   UNL     1       2.024   4.490  -5.372  0.00  0.00    +0.178 C 
ENDROOT
BRANCH   6   7
ATOM      7  O   UNL     1       1.331   3.558  -6.210  0.00  0.00    -0.386 OA
ATOM      8  H   UNL     1       2.000   3.129  -6.773  0.00  0.00    +0.210 HD
ENDBRANCH   6   7
BRANCH   5   9
ATOM      9  O   UNL     1       0.151   5.974  -5.653  0.00  0.00    -0.385 OA
ATOM     10  H   UNL     1      -0.149   5.217  -6.197  0.00  0.00    +0.210 HD
ENDBRANCH   5   9
BRANCH   4  11
ATOM     11  O   UNL     1       2.445   7.404  -4.744  0.00  0.00    -0.452 OA
BRANCH  11  12
ATOM     12  C   UNL     1       1.917   8.661  -4.829  0.00  0.00    +0.304 C 
ATOM     13  C   UNL     1       2.633   9.534  -5.818  0.00  0.00    +0.136 C 
ATOM     14  O   UNL     1       0.972   9.091  -4.157  0.00  0.00    -0.251 OA
ENDBRANCH  11  12
ENDBRANCH   4  11
BRANCH   3  15
ATOM     15  O   UNL     1       3.516   6.776  -2.211  0.00  0.00    -0.452 OA
BRANCH  15  16
ATOM     16  C   UNL     1       3.848   6.768  -0.857  0.00  0.00    +0.214 A 
ATOM     17  C   UNL     1       3.155   5.908   0.162  0.00  0.00    +0.238 A 
ATOM     18  O   UNL     1       2.181   5.225  -0.123  0.00  0.00    -0.283 OA
ATOM     19  C   UNL     1       3.690   5.896   1.546  0.00  0.00    +0.109 A 
ATOM     20  C   UNL     1       4.699   6.797   1.864  0.00  0.00    +0.147 A 
ATOM     21  C   UNL     1       5.229   6.852   3.161  0.00  0.00    +0.092 A 
ATOM     22  C   UNL     1       4.735   6.000   4.138  0.00  0.00    +0.124 A 
ATOM     23  C   UNL     1       3.733   5.089   3.841  0.00  0.00    +0.091 A 
ATOM     24  O   UNL     1       5.232   7.659   0.944  0.00  0.00    -0.451 OA
ATOM     25  C   UNL     1       3.218   5.028   2.545  0.00  0.00    +0.135 A 
ATOM     26  C   UNL     1       4.850   7.550  -0.385  0.00  0.00    +0.181 A 
BRANCH  26  27
ATOM     27  C   UNL     1       5.863   8.186  -1.258  0.00  0.00    +0.025 A 
ATOM     28  C   UNL     1       6.809   7.300  -1.790  0.00  0.00    +0.015 A 
ATOM     29  C   UNL     1       8.018   7.763  -2.301  0.00  0.00    +0.050 A 
ATOM     30  C   UNL     1       8.206   9.128  -2.455  0.00  0.00    +0.158 A 
ATOM     31  C   UNL     1       7.221  10.030  -2.049  0.00  0.00    +0.159 A 
ATOM     32  C   UNL     1       6.072   9.572  -1.383  0.00  0.00    +0.060 A 
BRANCH  30  33
ATOM     33  O   UNL     1       9.360   9.582  -3.028  0.00  0.00    -0.503 OA
ATOM     34  H   UNL     1       9.711   8.866  -3.580  0.00  0.00    +0.292 HD
ENDBRANCH  30  33
BRANCH  31  35
ATOM     35  O   UNL     1       7.407  11.355  -2.339  0.00  0.00    -0.503 OA
ATOM     36  H   UNL     1       6.672  11.879  -1.992  0.00  0.00    +0.292 HD
ENDBRANCH  31  35
ENDBRANCH  26  27
BRANCH  25  37
ATOM     37  O   UNL     1       2.253   4.093   2.282  0.00  0.00    -0.506 OA
ATOM     38  H   UNL     1       2.024   3.583   3.077  0.00  0.00    +0.292 HD
ENDBRANCH  25  37
BRANCH  22  39
ATOM     39  O   UNL     1       5.205   6.013   5.417  0.00  0.00    -0.507 OA
ATOM     40  H   UNL     1       5.862   6.723   5.510  0.00  0.00    +0.292 HD
ENDBRANCH  22  39
ENDBRANCH  15  16
ENDBRANCH   3  15
BRANCH   1  41
ATOM     41  C   UNL     1       2.631   2.360  -3.841  0.00  0.00    +0.197 C 
BRANCH  41  42
ATOM     42  O   UNL     1       1.344   2.113  -3.257  0.00  0.00    -0.346 OA
BRANCH  42  46
ATOM     43  C   UNL     1       0.983  -1.036  -0.157  0.00  0.00    +0.041 C 
ATOM     44  C   UNL     1       1.983  -1.041  -1.318  0.00  0.00    +0.149 C 
ATOM     45  O   UNL     1       2.168   0.260  -1.920  0.00  0.00    -0.343 OA
ATOM     46  C   UNL     1       1.116   0.741  -2.773  0.00  0.00    +0.282 C 
ATOM     47  C   UNL     1       0.751  -0.302  -3.879  0.00  0.00    +0.201 C 
ATOM     48  C   UNL     1       0.471  -1.683  -3.240  0.00  0.00    +0.179 C 
ATOM     49  C   UNL     1       1.634  -2.129  -2.347  0.00  0.00    +0.174 C 
BRANCH  49  50
ATOM     50  O   UNL     1       2.765  -2.417  -3.187  0.00  0.00    -0.387 OA
ATOM     51  H   UNL     1       3.001  -1.577  -3.636  0.00  0.00    +0.210 HD
ENDBRANCH  49  50
BRANCH  48  52
ATOM     52  O   UNL     1       0.269  -2.663  -4.274  0.00  0.00    -0.386 OA
ATOM     53  H   UNL     1       1.155  -3.049  -4.448  0.00  0.00    +0.210 HD
ENDBRANCH  48  52
BRANCH  47  54
ATOM     54  O   UNL     1       1.815  -0.474  -4.840  0.00  0.00    -0.384 OA
ATOM     55  H   UNL     1       1.396  -0.927  -5.599  0.00  0.00    +0.210 HD
ENDBRANCH  47  54
ENDBRANCH  42  46
ENDBRANCH  41  42
ENDBRANCH   1  41
TORSDOF 17
