REMARK  Name = 
REMARK  21 active torsions:
REMARK  status: ('A' for Active; 'I' for Inactive)
REMARK    1  A    between atoms: C_1  and  C_2
REMARK    2  A    between atoms: C_3  and  O_54
REMARK    3  A    between atoms: C_5  and  O_53
REMARK    4  A    between atoms: C_7  and  O_52
REMARK    5  A    between atoms: C_8  and  O_11
REMARK    6  A    between atoms: O_11  and  C_12
REMARK    7  A    between atoms: C_14  and  O_51
REMARK    8  A    between atoms: C_19  and  C_43
REMARK    9  A    between atoms: C_20  and  O_23
REMARK   10  A    between atoms: O_23  and  C_24
REMARK   11  A    between atoms: C_26  and  O_42
REMARK   12  A    between atoms: C_27  and  O_41
REMARK   13  A    between atoms: C_28  and  O_40
REMARK   14  A    between atoms: C_30  and  C_32
REMARK   15  A    between atoms: C_32  and  O_33
REMARK   16  A    between atoms: O_33  and  C_34
REMARK   17  A    between atoms: C_34  and  C_36
REMARK   18  A    between atoms: C_36  and  C_37
REMARK   19  A    between atoms: C_37  and  O_39
REMARK   20  A    between atoms: C_45  and  O_50
REMARK   21  A    between atoms: C_46  and  O_49
REMARK                            x       y       z     vdW  Elec       q    Type
REMARK                         _______ _______ _______ _____ _____    ______ ____
ROOT
ATOM      1  C   UNL     1       2.709   2.829  -3.303  0.00  0.00    +0.131 A 
ATOM      2  C   UNL     1       1.460   3.340  -2.925  0.00  0.00    +0.093 A 
ATOM      3  C   UNL     1       1.271   4.724  -2.832  0.00  0.00    +0.147 A 
ATOM      4  O   UNL     1       0.046   5.204  -2.422  0.00  0.00    -0.451 OA
ATOM      5  C   UNL     1      -0.217   6.583  -2.492  0.00  0.00    +0.181 A 
ATOM      6  C   UNL     1       0.746   7.524  -2.684  0.00  0.00    +0.214 A 
ATOM      7  C   UNL     1       2.148   6.985  -2.723  0.00  0.00    +0.238 A 
ATOM      8  O   UNL     1       3.125   7.617  -2.341  0.00  0.00    -0.283 OA
ATOM      9  C   UNL     1       2.326   5.586  -3.099  0.00  0.00    +0.109 A 
ATOM     10  C   UNL     1       3.548   5.079  -3.553  0.00  0.00    +0.135 A 
ATOM     11  C   UNL     1       3.738   3.706  -3.651  0.00  0.00    +0.092 A 
ENDROOT
BRANCH   5  12
ATOM     12  C   UNL     1      -1.654   6.900  -2.214  0.00  0.00    +0.025 A 
ATOM     13  C   UNL     1      -2.391   6.064  -1.343  0.00  0.00    +0.015 A 
ATOM     14  C   UNL     1      -3.719   6.351  -0.997  0.00  0.00    +0.050 A 
ATOM     15  C   UNL     1      -4.326   7.475  -1.520  0.00  0.00    +0.158 A 
ATOM     16  C   UNL     1      -3.641   8.296  -2.406  0.00  0.00    +0.159 A 
ATOM     17  C   UNL     1      -2.323   8.010  -2.768  0.00  0.00    +0.060 A 
BRANCH  16  18
ATOM     18  O   UNL     1      -4.303   9.394  -2.883  0.00  0.00    -0.503 OA
ATOM     19  H   UNL     1      -3.709   9.884  -3.475  0.00  0.00    +0.292 HD
ENDBRANCH  16  18
BRANCH  15  20
ATOM     20  O   UNL     1      -5.605   7.775  -1.157  0.00  0.00    -0.503 OA
ATOM     21  H   UNL     1      -5.802   8.622  -1.604  0.00  0.00    +0.292 HD
ENDBRANCH  15  20
ENDBRANCH   5  12
BRANCH  10  22
ATOM     22  O   UNL     1       4.554   5.918  -3.930  0.00  0.00    -0.506 OA
ATOM     23  H   UNL     1       5.390   5.427  -3.971  0.00  0.00    +0.292 HD
ENDBRANCH  10  22
BRANCH   6  24
ATOM     24  O   UNL     1       0.449   8.894  -2.782  0.00  0.00    -0.453 OA
BRANCH  24  25
ATOM     25  C   UNL     1       1.513   9.839  -2.570  0.00  0.00    +0.340 C 
ATOM     26  O   UNL     1       1.666  10.138  -1.184  0.00  0.00    -0.330 OA
ATOM     27  C   UNL     1       0.704  11.061  -0.643  0.00  0.00    +0.191 C 
ATOM     28  C   UNL     1       0.748  12.395  -1.399  0.00  0.00    +0.178 C 
ATOM     29  C   UNL     1       0.428  12.155  -2.867  0.00  0.00    +0.180 C 
ATOM     30  C   UNL     1       1.369  11.102  -3.456  0.00  0.00    +0.214 C 
BRANCH  30  31
ATOM     31  O   UNL     1       0.978  10.801  -4.805  0.00  0.00    -0.383 OA
ATOM     32  H   UNL     1       0.160  10.276  -4.760  0.00  0.00    +0.210 HD
ENDBRANCH  30  31
BRANCH  29  33
ATOM     33  O   UNL     1       0.566  13.411  -3.563  0.00  0.00    -0.386 OA
ATOM     34  H   UNL     1       1.289  13.317  -4.212  0.00  0.00    +0.210 HD
ENDBRANCH  29  33
BRANCH  28  35
ATOM     35  O   UNL     1       2.054  12.985  -1.292  0.00  0.00    -0.386 OA
ATOM     36  H   UNL     1       2.023  13.807  -1.819  0.00  0.00    +0.210 HD
ENDBRANCH  28  35
BRANCH  27  37
ATOM     37  C   UNL     1       1.048  11.300   0.836  0.00  0.00    +0.266 C 
BRANCH  37  38
ATOM     38  O   UNL     1       0.852  10.110   1.624  0.00  0.00    -0.462 OA
BRANCH  38  39
ATOM     39  C   UNL     1      -0.427   9.867   2.015  0.00  0.00    +0.318 C 
ATOM     40  O   UNL     1      -1.401  10.537   1.695  0.00  0.00    -0.250 OA
BRANCH  39  41
ATOM     41  C   UNL     1      -0.488   8.631   2.855  0.00  0.00    +0.240 C 
BRANCH  41  42
ATOM     42  C   UNL     1      -0.333   8.907   4.317  0.00  0.00    +0.316 C 
ATOM     43  O   UNL     1      -0.144  10.002   4.820  0.00  0.00    -0.250 OA
BRANCH  42  44
ATOM     44  O   UNL     1      -0.417   7.780   5.068  0.00  0.00    -0.480 OA
ATOM     45  H   UNL     1      -0.562   6.960   4.560  0.00  0.00    +0.295 HD
ENDBRANCH  42  44
ENDBRANCH  41  42
ENDBRANCH  39  41
ENDBRANCH  38  39
ENDBRANCH  37  38
ENDBRANCH  27  37
ENDBRANCH  24  25
ENDBRANCH   6  24
BRANCH   1  46
ATOM     46  O   UNL     1       3.084   1.515  -3.364  0.00  0.00    -0.461 OA
BRANCH  46  50
ATOM     47  C   UNL     1      -0.578  -0.202  -1.885  0.00  0.00    +0.041 C 
ATOM     48  C   UNL     1       0.790  -0.416  -1.242  0.00  0.00    +0.150 C 
ATOM     49  O   UNL     1       1.706   0.604  -1.673  0.00  0.00    -0.334 OA
ATOM     50  C   UNL     1       2.130   0.499  -3.037  0.00  0.00    +0.339 C 
ATOM     51  C   UNL     1       2.851  -0.854  -3.238  0.00  0.00    +0.214 C 
ATOM     52  C   UNL     1       1.862  -1.983  -2.920  0.00  0.00    +0.180 C 
ATOM     53  C   UNL     1       1.335  -1.838  -1.480  0.00  0.00    +0.174 C 
BRANCH  53  54
ATOM     54  O   UNL     1       2.375  -2.118  -0.532  0.00  0.00    -0.387 OA
ATOM     55  H   UNL     1       3.173  -1.629  -0.831  0.00  0.00    +0.210 HD
ENDBRANCH  53  54
BRANCH  52  56
ATOM     56  O   UNL     1       2.455  -3.264  -3.153  0.00  0.00    -0.386 OA
ATOM     57  H   UNL     1       2.230  -3.843  -2.401  0.00  0.00    +0.210 HD
ENDBRANCH  52  56
BRANCH  51  58
ATOM     58  O   UNL     1       3.982  -0.932  -2.333  0.00  0.00    -0.383 OA
ATOM     59  H   UNL     1       4.319  -0.018  -2.239  0.00  0.00    +0.210 HD
ENDBRANCH  51  58
ENDBRANCH  46  50
ENDBRANCH   1  46
TORSDOF 20
