REMARK  Name = 
REMARK  14 active torsions:
REMARK  status: ('A' for Active; 'I' for Inactive)
REMARK    1  A    between atoms: C_1  and  C_2
REMARK    2  A    between atoms: C_3  and  O_38
REMARK    3  A    between atoms: C_5  and  O_37
REMARK    4  A    between atoms: C_6  and  O_36
REMARK    5  A    between atoms: C_8  and  O_11
REMARK    6  A    between atoms: O_11  and  C_12
REMARK    7  A    between atoms: C_13  and  C_26
REMARK    8  A    between atoms: C_17  and  O_24
REMARK    9  A    between atoms: C_19  and  O_23
REMARK   10  A    between atoms: O_24  and  C_25
REMARK   11  A    between atoms: C_28  and  O_34
REMARK   12  A    between atoms: C_29  and  O_32
REMARK   13  A    between atoms: O_32  and  C_33
REMARK   14  A    between atoms: O_34  and  C_35
REMARK                            x       y       z     vdW  Elec       q    Type
REMARK                         _______ _______ _______ _____ _____    ______ ____
ROOT
ATOM      1  C   UNL     1       2.624   2.820  -3.265  0.00  0.00    +0.214 A 
ATOM      2  C   UNL     1       1.224   3.313  -3.085  0.00  0.00    +0.238 A 
ATOM      3  O   UNL     1       0.245   2.621  -3.344  0.00  0.00    -0.283 OA
ATOM      4  C   UNL     1       1.032   4.725  -2.758  0.00  0.00    +0.109 A 
ATOM      5  C   UNL     1       2.091   5.586  -3.011  0.00  0.00    +0.147 A 
ATOM      6  C   UNL     1       1.898   6.971  -2.915  0.00  0.00    +0.092 A 
ATOM      7  C   UNL     1       0.641   7.480  -2.567  0.00  0.00    +0.127 A 
ATOM      8  C   UNL     1      -0.403   6.604  -2.266  0.00  0.00    +0.092 A 
ATOM      9  O   UNL     1       3.331   5.139  -3.402  0.00  0.00    -0.451 OA
ATOM     10  C   UNL     1      -0.208   5.232  -2.349  0.00  0.00    +0.135 A 
ATOM     11  C   UNL     1       3.576   3.761  -3.464  0.00  0.00    +0.181 A 
ENDROOT
BRANCH  11  12
ATOM     12  C   UNL     1       5.004   3.440  -3.799  0.00  0.00    +0.025 A 
ATOM     13  C   UNL     1       6.044   4.271  -3.356  0.00  0.00    +0.015 A 
ATOM     14  C   UNL     1       7.388   3.993  -3.661  0.00  0.00    +0.050 A 
ATOM     15  C   UNL     1       7.727   2.868  -4.412  0.00  0.00    +0.162 A 
ATOM     16  C   UNL     1       6.704   2.033  -4.896  0.00  0.00    +0.162 A 
ATOM     17  C   UNL     1       5.363   2.339  -4.604  0.00  0.00    +0.061 A 
BRANCH  15  18
ATOM     18  O   UNL     1       9.011   2.496  -4.732  0.00  0.00    -0.491 OA
ATOM     19  C   UNL     1      10.079   3.278  -4.219  0.00  0.00    +0.277 C 
ENDBRANCH  15  18
BRANCH  16  20
ATOM     20  O   UNL     1       7.113   0.953  -5.641  0.00  0.00    -0.491 OA
ATOM     21  C   UNL     1       6.121   0.056  -6.116  0.00  0.00    +0.277 C 
ENDBRANCH  16  20
ENDBRANCH  11  12
BRANCH   7  22
ATOM     22  O   UNL     1       0.282   8.796  -2.483  0.00  0.00    -0.495 OA
ATOM     23  C   UNL     1       1.267   9.763  -2.810  0.00  0.00    +0.277 C 
ENDBRANCH   7  22
BRANCH  10  24
ATOM     24  O   UNL     1      -1.239   4.399  -2.018  0.00  0.00    -0.506 OA
ATOM     25  H   UNL     1      -2.060   4.906  -1.915  0.00  0.00    +0.292 HD
ENDBRANCH  10  24
BRANCH   1  26
ATOM     26  O   UNL     1       2.927   1.463  -3.308  0.00  0.00    -0.453 OA
BRANCH  26  30
ATOM     27  C   UNL     1      -1.011   0.104  -2.144  0.00  0.00    +0.041 C 
ATOM     28  C   UNL     1       0.291  -0.315  -1.462  0.00  0.00    +0.150 C 
ATOM     29  O   UNL     1       1.382   0.573  -1.748  0.00  0.00    -0.334 OA
ATOM     30  C   UNL     1       1.871   0.517  -3.094  0.00  0.00    +0.339 C 
ATOM     31  C   UNL     1       2.402  -0.894  -3.421  0.00  0.00    +0.214 C 
ATOM     32  C   UNL     1       1.268  -1.901  -3.190  0.00  0.00    +0.180 C 
ATOM     33  C   UNL     1       0.682  -1.766  -1.776  0.00  0.00    +0.174 C 
BRANCH  31  34
ATOM     34  O   UNL     1       3.523  -1.246  -2.591  0.00  0.00    -0.383 OA
ATOM     35  H   UNL     1       3.812  -2.126  -2.903  0.00  0.00    +0.210 HD
ENDBRANCH  31  34
BRANCH  32  36
ATOM     36  O   UNL     1       1.787  -3.229  -3.371  0.00  0.00    -0.386 OA
ATOM     37  H   UNL     1       2.011  -3.542  -2.469  0.00  0.00    +0.210 HD
ENDBRANCH  32  36
BRANCH  33  38
ATOM     38  O   UNL     1       1.683  -2.211  -0.839  0.00  0.00    -0.387 OA
ATOM     39  H   UNL     1       2.412  -1.552  -0.891  0.00  0.00    +0.210 HD
ENDBRANCH  33  38
ENDBRANCH  26  30
ENDBRANCH   1  26
TORSDOF 10
