REMARK  Name = 
REMARK  17 active torsions:
REMARK  status: ('A' for Active; 'I' for Inactive)
REMARK    1  A    between atoms: C_1  and  C_2
REMARK    2  A    between atoms: C_3  and  O_48
REMARK    3  A    between atoms: C_5  and  O_47
REMARK    4  A    between atoms: C_6  and  O_46
REMARK    5  A    between atoms: C_8  and  O_11
REMARK    6  A    between atoms: O_11  and  C_12
REMARK    7  A    between atoms: C_13  and  O_24
REMARK    8  A    between atoms: C_16  and  C_22
REMARK    9  A    between atoms: C_17  and  O_21
REMARK   10  A    between atoms: C_19  and  O_20
REMARK   11  A    between atoms: C_22  and  O_23
REMARK   12  A    between atoms: O_24  and  C_25
REMARK   13  A    between atoms: C_26  and  C_38
REMARK   14  A    between atoms: C_30  and  O_37
REMARK   15  A    between atoms: C_32  and  O_36
REMARK   16  A    between atoms: C_40  and  O_45
REMARK   17  A    between atoms: C_41  and  O_44
REMARK                            x       y       z     vdW  Elec       q    Type
REMARK                         _______ _______ _______ _____ _____    ______ ____
ROOT
ATOM      1  C   UNL     1       2.150   2.609  -3.189  0.00  0.00    +0.221 C 
ATOM      2  C   UNL     1       1.138   2.011  -4.186  0.00  0.00    +0.180 C 
ATOM      3  C   UNL     1       1.601   2.162  -5.644  0.00  0.00    +0.177 C 
ATOM      4  C   UNL     1       2.009   3.601  -5.966  0.00  0.00    +0.179 C 
ATOM      5  O   UNL     1       3.020   4.049  -5.054  0.00  0.00    -0.331 OA
ATOM      6  C   UNL     1       2.692   3.988  -3.664  0.00  0.00    +0.340 C 
ENDROOT
BRANCH   3   7
ATOM      7  O   UNL     1       2.732   1.315  -5.903  0.00  0.00    -0.386 OA
ATOM      8  H   UNL     1       3.432   1.543  -5.258  0.00  0.00    +0.210 HD
ENDBRANCH   3   7
BRANCH   2   9
ATOM      9  O   UNL     1      -0.173   2.566  -4.027  0.00  0.00    -0.386 OA
ATOM     10  H   UNL     1      -0.148   3.354  -3.458  0.00  0.00    +0.210 HD
ENDBRANCH   2   9
BRANCH   6  11
ATOM     11  O   UNL     1       1.871   5.076  -3.212  0.00  0.00    -0.453 OA
BRANCH  11  12
ATOM     12  C   UNL     1       2.392   6.359  -3.442  0.00  0.00    +0.214 A 
ATOM     13  C   UNL     1       3.868   6.646  -3.455  0.00  0.00    +0.238 A 
ATOM     14  O   UNL     1       4.683   5.841  -3.039  0.00  0.00    -0.283 OA
ATOM     15  C   UNL     1       4.295   7.985  -3.907  0.00  0.00    +0.109 A 
ATOM     16  C   UNL     1       3.307   8.943  -4.123  0.00  0.00    +0.147 A 
ATOM     17  C   UNL     1       3.650  10.234  -4.539  0.00  0.00    +0.092 A 
ATOM     18  C   UNL     1       4.996  10.557  -4.712  0.00  0.00    +0.124 A 
ATOM     19  C   UNL     1       5.993   9.623  -4.478  0.00  0.00    +0.091 A 
ATOM     20  O   UNL     1       1.971   8.706  -3.909  0.00  0.00    -0.451 OA
ATOM     21  C   UNL     1       5.645   8.334  -4.081  0.00  0.00    +0.135 A 
ATOM     22  C   UNL     1       1.574   7.421  -3.590  0.00  0.00    +0.181 A 
BRANCH  22  23
ATOM     23  C   UNL     1       0.119   7.289  -3.376  0.00  0.00    +0.025 A 
ATOM     24  C   UNL     1      -0.404   7.358  -2.072  0.00  0.00    +0.015 A 
ATOM     25  C   UNL     1      -1.749   7.061  -1.829  0.00  0.00    +0.050 A 
ATOM     26  C   UNL     1      -2.555   6.663  -2.883  0.00  0.00    +0.158 A 
ATOM     27  C   UNL     1      -2.053   6.614  -4.180  0.00  0.00    +0.159 A 
ATOM     28  C   UNL     1      -0.738   6.986  -4.442  0.00  0.00    +0.060 A 
BRANCH  27  29
ATOM     29  O   UNL     1      -2.869   6.139  -5.168  0.00  0.00    -0.503 OA
ATOM     30  H   UNL     1      -2.302   5.759  -5.867  0.00  0.00    +0.292 HD
ENDBRANCH  27  29
BRANCH  26  31
ATOM     31  O   UNL     1      -3.839   6.273  -2.633  0.00  0.00    -0.503 OA
ATOM     32  H   UNL     1      -4.184   5.987  -3.501  0.00  0.00    +0.292 HD
ENDBRANCH  26  31
ENDBRANCH  22  23
BRANCH  21  33
ATOM     33  O   UNL     1       6.644   7.428  -3.862  0.00  0.00    -0.506 OA
ATOM     34  H   UNL     1       7.512   7.844  -3.987  0.00  0.00    +0.292 HD
ENDBRANCH  21  33
BRANCH  18  35
ATOM     35  O   UNL     1       5.388  11.802  -5.106  0.00  0.00    -0.507 OA
ATOM     36  H   UNL     1       4.601  12.360  -5.236  0.00  0.00    +0.292 HD
ENDBRANCH  18  35
ENDBRANCH  11  12
ENDBRANCH   6  11
BRANCH   4  37
ATOM     37  C   UNL     1       0.860   4.603  -6.054  0.00  0.00    +0.190 C 
BRANCH  37  38
ATOM     38  O   UNL     1      -0.159   4.276  -6.989  0.00  0.00    -0.392 OA
ATOM     39  H   UNL     1       0.277   4.069  -7.846  0.00  0.00    +0.210 HD
ENDBRANCH  37  38
ENDBRANCH   4  37
BRANCH   1  40
ATOM     40  O   UNL     1       3.220   1.646  -3.029  0.00  0.00    -0.337 OA
BRANCH  40  44
ATOM     41  C   UNL     1       7.157   2.219  -1.561  0.00  0.00    +0.041 C 
ATOM     42  C   UNL     1       6.246   1.095  -1.063  0.00  0.00    +0.149 C 
ATOM     43  O   UNL     1       5.147   0.870  -1.965  0.00  0.00    -0.343 OA
ATOM     44  C   UNL     1       4.173   1.923  -1.987  0.00  0.00    +0.282 C 
ATOM     45  C   UNL     1       3.539   2.100  -0.588  0.00  0.00    +0.201 C 
ATOM     46  C   UNL     1       4.643   2.383   0.434  0.00  0.00    +0.179 C 
ATOM     47  C   UNL     1       5.745   1.317   0.374  0.00  0.00    +0.174 C 
BRANCH  47  48
ATOM     48  O   UNL     1       5.196   0.091   0.896  0.00  0.00    -0.387 OA
ATOM     49  H   UNL     1       4.499  -0.189   0.261  0.00  0.00    +0.210 HD
ENDBRANCH  47  48
BRANCH  46  50
ATOM     50  O   UNL     1       4.057   2.415   1.746  0.00  0.00    -0.386 OA
ATOM     51  H   UNL     1       4.169   1.503   2.097  0.00  0.00    +0.210 HD
ENDBRANCH  46  50
BRANCH  45  52
ATOM     52  O   UNL     1       2.807   0.920  -0.206  0.00  0.00    -0.384 OA
ATOM     53  H   UNL     1       2.342   1.149   0.621  0.00  0.00    +0.210 HD
ENDBRANCH  45  52
ENDBRANCH  40  44
ENDBRANCH   1  40
TORSDOF 16
