REMARK  Name = 
REMARK  28 active torsions:
REMARK  status: ('A' for Active; 'I' for Inactive)
REMARK    1  A    between atoms: C_3  and  O_74
REMARK    2  A    between atoms: C_6  and  C_7
REMARK    3  A    between atoms: C_8  and  C_9
REMARK    4  A    between atoms: C_9  and  O_11
REMARK    5  A    between atoms: O_11  and  C_12
REMARK    6  A    between atoms: C_13  and  O_24
REMARK    7  A    between atoms: C_16  and  C_22
REMARK    8  A    between atoms: C_17  and  O_21
REMARK    9  A    between atoms: C_19  and  O_20
REMARK   10  A    between atoms: C_22  and  O_23
REMARK   11  A    between atoms: O_24  and  C_25
REMARK   12  A    between atoms: C_26  and  O_73
REMARK   13  A    between atoms: C_28  and  O_72
REMARK   14  A    between atoms: C_30  and  C_70
REMARK   15  A    between atoms: C_32  and  O_34
REMARK   16  A    between atoms: O_34  and  C_35
REMARK   17  A    between atoms: C_36  and  C_62
REMARK   18  A    between atoms: C_40  and  O_47
REMARK   19  A    between atoms: C_42  and  O_46
REMARK   20  A    between atoms: O_47  and  C_48
REMARK   21  A    between atoms: C_50  and  O_61
REMARK   22  A    between atoms: C_51  and  O_60
REMARK   23  A    between atoms: C_52  and  O_59
REMARK   24  A    between atoms: C_54  and  C_57
REMARK   25  A    between atoms: C_57  and  O_58
REMARK   26  A    between atoms: C_64  and  O_69
REMARK   27  A    between atoms: C_65  and  O_68
REMARK   28  A    between atoms: C_70  and  O_71
REMARK                            x       y       z     vdW  Elec       q    Type
REMARK                         _______ _______ _______ _____ _____    ______ ____
ROOT
ATOM      1  C   UNL     1      -9.786   3.521   0.207  0.00  0.00    +0.221 C 
ATOM      2  C   UNL     1     -11.347   3.620   0.032  0.00  0.00    +0.340 C 
ATOM      3  O   UNL     1     -11.679   4.726  -0.837  0.00  0.00    -0.331 OA
ATOM      4  C   UNL     1     -11.259   6.021  -0.397  0.00  0.00    +0.179 C 
ATOM      5  C   UNL     1      -9.743   6.059  -0.162  0.00  0.00    +0.177 C 
ATOM      6  C   UNL     1      -9.271   4.892   0.716  0.00  0.00    +0.180 C 
ENDROOT
BRANCH   6   7
ATOM      7  O   UNL     1      -7.843   4.970   0.795  0.00  0.00    -0.386 OA
ATOM      8  H   UNL     1      -7.509   4.371   1.496  0.00  0.00    +0.210 HD
ENDBRANCH   6   7
BRANCH   5   9
ATOM      9  O   UNL     1      -9.362   7.315   0.427  0.00  0.00    -0.386 OA
ATOM     10  H   UNL     1      -8.390   7.368   0.329  0.00  0.00    +0.210 HD
ENDBRANCH   5   9
BRANCH   2  11
ATOM     11  O   UNL     1     -11.893   2.459  -0.607  0.00  0.00    -0.453 OA
BRANCH  11  12
ATOM     12  C   UNL     1     -12.046   1.232   0.014  0.00  0.00    +0.214 A 
ATOM     13  C   UNL     1     -11.744   1.049   1.485  0.00  0.00    +0.238 A 
ATOM     14  O   UNL     1     -11.346   1.978   2.178  0.00  0.00    -0.283 OA
ATOM     15  C   UNL     1     -11.970  -0.290   2.060  0.00  0.00    +0.109 A 
ATOM     16  C   UNL     1     -12.224  -1.311   1.167  0.00  0.00    +0.147 A 
ATOM     17  C   UNL     1     -12.484  -2.604   1.599  0.00  0.00    +0.093 A 
ATOM     18  C   UNL     1     -12.703  -2.866   2.945  0.00  0.00    +0.131 A 
ATOM     19  C   UNL     1     -12.380  -1.865   3.870  0.00  0.00    +0.092 A 
ATOM     20  O   UNL     1     -12.321  -1.143  -0.177  0.00  0.00    -0.451 OA
ATOM     21  C   UNL     1     -11.966  -0.593   3.426  0.00  0.00    +0.135 A 
ATOM     22  C   UNL     1     -12.378   0.131  -0.709  0.00  0.00    +0.181 A 
BRANCH  22  23
ATOM     23  C   UNL     1     -12.798   0.057  -2.156  0.00  0.00    +0.025 A 
ATOM     24  C   UNL     1     -13.288   1.176  -2.853  0.00  0.00    +0.015 A 
ATOM     25  C   UNL     1     -13.779   1.077  -4.161  0.00  0.00    +0.050 A 
ATOM     26  C   UNL     1     -13.806  -0.149  -4.797  0.00  0.00    +0.158 A 
ATOM     27  C   UNL     1     -13.307  -1.270  -4.158  0.00  0.00    +0.159 A 
ATOM     28  C   UNL     1     -12.815  -1.184  -2.851  0.00  0.00    +0.060 A 
BRANCH  27  29
ATOM     29  O   UNL     1     -13.339  -2.451  -4.850  0.00  0.00    -0.503 OA
ATOM     30  H   UNL     1     -12.427  -2.787  -4.869  0.00  0.00    +0.292 HD
ENDBRANCH  27  29
BRANCH  26  31
ATOM     31  O   UNL     1     -14.337  -0.242  -6.052  0.00  0.00    -0.503 OA
ATOM     32  H   UNL     1     -14.378  -1.202  -6.235  0.00  0.00    +0.292 HD
ENDBRANCH  26  31
ENDBRANCH  22  23
BRANCH  21  33
ATOM     33  O   UNL     1     -11.620   0.348   4.350  0.00  0.00    -0.506 OA
ATOM     34  H   UNL     1     -11.237  -0.085   5.132  0.00  0.00    +0.292 HD
ENDBRANCH  21  33
BRANCH  18  35
ATOM     35  O   UNL     1     -13.318  -4.003   3.405  0.00  0.00    -0.461 OA
BRANCH  35  36
ATOM     36  C   UNL     1     -13.698  -5.001   2.416  0.00  0.00    +0.339 C 
ATOM     37  O   UNL     1     -14.445  -4.528   1.288  0.00  0.00    -0.331 OA
ATOM     38  C   UNL     1     -15.704  -3.918   1.607  0.00  0.00    +0.179 C 
ATOM     39  C   UNL     1     -16.622  -4.886   2.370  0.00  0.00    +0.177 C 
ATOM     40  C   UNL     1     -15.890  -5.602   3.511  0.00  0.00    +0.180 C 
ATOM     41  C   UNL     1     -14.514  -6.126   3.074  0.00  0.00    +0.214 C 
BRANCH  41  42
ATOM     42  O   UNL     1     -13.845  -6.718   4.195  0.00  0.00    -0.383 OA
ATOM     43  H   UNL     1     -13.444  -5.994   4.712  0.00  0.00    +0.210 HD
ENDBRANCH  41  42
BRANCH  40  44
ATOM     44  O   UNL     1     -16.730  -6.692   3.945  0.00  0.00    -0.386 OA
ATOM     45  H   UNL     1     -16.149  -7.470   4.061  0.00  0.00    +0.210 HD
ENDBRANCH  40  44
BRANCH  39  46
ATOM     46  O   UNL     1     -17.147  -5.889   1.486  0.00  0.00    -0.386 OA
ATOM     47  H   UNL     1     -17.632  -6.509   2.068  0.00  0.00    +0.210 HD
ENDBRANCH  39  46
BRANCH  38  48
ATOM     48  C   UNL     1     -16.369  -3.443   0.298  0.00  0.00    +0.190 C 
BRANCH  48  49
ATOM     49  O   UNL     1     -15.504  -2.629  -0.496  0.00  0.00    -0.392 OA
ATOM     50  H   UNL     1     -15.116  -1.943   0.068  0.00  0.00    +0.210 HD
ENDBRANCH  48  49
ENDBRANCH  38  48
ENDBRANCH  35  36
ENDBRANCH  18  35
ENDBRANCH  11  12
ENDBRANCH   2  11
BRANCH   1  51
ATOM     51  O   UNL     1      -9.218   3.028  -1.036  0.00  0.00    -0.336 OA
BRANCH  51  57
ATOM     52  C   UNL     1      -7.338   1.653  -0.036  0.00  0.00    +0.263 C 
ATOM     53  C   UNL     1      -7.867   0.259  -0.386  0.00  0.00    +0.191 C 
ATOM     54  C   UNL     1      -7.501  -0.144  -1.816  0.00  0.00    +0.178 C 
ATOM     55  C   UNL     1      -7.868   0.945  -2.837  0.00  0.00    +0.178 C 
ATOM     56  O   UNL     1      -7.481   2.267  -2.411  0.00  0.00    -0.340 OA
ATOM     57  C   UNL     1      -7.827   2.696  -1.076  0.00  0.00    +0.295 C 
BRANCH  54  58
ATOM     58  O   UNL     1      -6.090  -0.401  -1.891  0.00  0.00    -0.386 OA
ATOM     59  H   UNL     1      -5.638   0.464  -1.871  0.00  0.00    +0.210 HD
ENDBRANCH  54  58
BRANCH  53  60
ATOM     60  O   UNL     1      -9.275   0.197  -0.193  0.00  0.00    -0.385 OA
ATOM     61  H   UNL     1      -9.669   0.975  -0.630  0.00  0.00    +0.210 HD
ENDBRANCH  53  60
BRANCH  55  62
ATOM     62  C   UNL     1      -9.328   0.860  -3.307  0.00  0.00    +0.190 C 
BRANCH  62  63
ATOM     63  O   UNL     1      -9.530   1.706  -4.435  0.00  0.00    -0.392 OA
ATOM     64  H   UNL     1      -9.411   2.618  -4.113  0.00  0.00    +0.210 HD
ENDBRANCH  62  63
ENDBRANCH  55  62
BRANCH  52  65
ATOM     65  O   UNL     1      -5.889   1.608  -0.038  0.00  0.00    -0.450 OA
BRANCH  65  66
ATOM     66  C   UNL     1      -5.292   2.497   0.794  0.00  0.00    +0.332 C 
ATOM     67  O   UNL     1      -5.869   3.253   1.565  0.00  0.00    -0.246 OA
BRANCH  66  69
ATOM     68  C   UNL     1      -3.035   3.259   1.239  0.00  0.00    +0.015 C 
ATOM     69  C   UNL     1      -3.832   2.382   0.616  0.00  0.00    +0.092 C 
BRANCH  68  71
ATOM     70  C   UNL     1      -0.781   2.174   0.874  0.00  0.00    +0.011 A 
ATOM     71  C   UNL     1      -1.570   3.309   1.115  0.00  0.00    -0.025 A 
ATOM     72  C   UNL     1      -0.930   4.543   1.299  0.00  0.00    +0.011 A 
ATOM     73  C   UNL     1       0.461   4.645   1.230  0.00  0.00    +0.046 A 
ATOM     74  C   UNL     1       1.221   3.511   0.986  0.00  0.00    +0.117 A 
ATOM     75  C   UNL     1       0.613   2.275   0.804  0.00  0.00    +0.046 A 
BRANCH  74  76
ATOM     76  O   UNL     1       2.576   3.655   0.944  0.00  0.00    -0.507 OA
ATOM     77  H   UNL     1       2.979   2.776   0.850  0.00  0.00    +0.292 HD
ENDBRANCH  74  76
ENDBRANCH  68  71
ENDBRANCH  66  69
ENDBRANCH  65  66
ENDBRANCH  52  65
ENDBRANCH  51  57
ENDBRANCH   1  51
BRANCH   4  78
ATOM     78  C   UNL     1     -12.108   6.574   0.769  0.00  0.00    +0.190 C 
BRANCH  78  79
ATOM     79  O   UNL     1     -11.860   7.957   1.014  0.00  0.00    -0.392 OA
ATOM     80  H   UNL     1     -10.885   8.076   0.999  0.00  0.00    +0.210 HD
ENDBRANCH  78  79
ENDBRANCH   4  78
TORSDOF 28
