REMARK  Name = 
REMARK  18 active torsions:
REMARK  status: ('A' for Active; 'I' for Inactive)
REMARK    1  A    between atoms: C_3  and  O_49
REMARK    2  A    between atoms: C_4  and  O_48
REMARK    3  A    between atoms: C_6  and  C_7
REMARK    4  A    between atoms: C_8  and  O_20
REMARK    5  A    between atoms: C_12  and  O_19
REMARK    6  A    between atoms: C_14  and  O_18
REMARK    7  A    between atoms: O_20  and  C_21
REMARK    8  A    between atoms: C_23  and  O_47
REMARK    9  A    between atoms: C_24  and  O_46
REMARK   10  A    between atoms: C_25  and  O_31
REMARK   11  A    between atoms: C_27  and  C_29
REMARK   12  A    between atoms: C_29  and  O_30
REMARK   13  A    between atoms: O_31  and  C_32
REMARK   14  A    between atoms: C_34  and  O_45
REMARK   15  A    between atoms: C_36  and  O_44
REMARK   16  A    between atoms: C_37  and  O_43
REMARK   17  A    between atoms: C_39  and  C_41
REMARK   18  A    between atoms: C_41  and  O_42
REMARK                            x       y       z     vdW  Elec       q    Type
REMARK                         _______ _______ _______ _____ _____    ______ ____
ROOT
ATOM      1  C   UNL     1      -3.964  -0.654  -1.264  0.00  0.00    +0.340 C 
ATOM      2  O   UNL     1      -4.111  -0.027  -2.553  0.00  0.00    -0.331 OA
ATOM      3  C   UNL     1      -3.288  -0.424  -3.669  0.00  0.00    +0.179 C 
ATOM      4  C   UNL     1      -2.097  -1.396  -3.435  0.00  0.00    +0.184 C 
ATOM      5  C   UNL     1      -2.014  -1.938  -1.999  0.00  0.00    +0.180 C 
ATOM      6  C   UNL     1      -2.456  -0.829  -1.036  0.00  0.00    +0.214 C 
ENDROOT
BRANCH   5   7
ATOM      7  O   UNL     1      -0.659  -2.356  -1.767  0.00  0.00    -0.386 OA
ATOM      8  H   UNL     1      -0.315  -1.828  -1.022  0.00  0.00    +0.210 HD
ENDBRANCH   5   7
BRANCH   6   9
ATOM      9  O   UNL     1      -2.059  -1.072   0.308  0.00  0.00    -0.383 OA
ATOM     10  H   UNL     1      -2.844  -1.306   0.838  0.00  0.00    +0.210 HD
ENDBRANCH   6   9
BRANCH   1  11
ATOM     11  O   UNL     1      -4.707  -1.898  -1.216  0.00  0.00    -0.453 OA
BRANCH  11  22
ATOM     12  C   UNL     1      -6.905  -2.069  -0.191  0.00  0.00    +0.181 A 
ATOM     13  O   UNL     1      -7.782  -2.621   0.744  0.00  0.00    -0.451 OA
ATOM     14  C   UNL     1      -7.323  -3.482   1.703  0.00  0.00    +0.147 A 
ATOM     15  C   UNL     1      -5.977  -3.742   1.883  0.00  0.00    +0.109 A 
ATOM     16  C   UNL     1      -5.592  -4.603   2.923  0.00  0.00    +0.135 A 
ATOM     17  C   UNL     1      -6.541  -5.192   3.780  0.00  0.00    +0.091 A 
ATOM     18  C   UNL     1      -7.881  -4.916   3.577  0.00  0.00    +0.124 A 
ATOM     19  C   UNL     1      -5.019  -3.077   0.965  0.00  0.00    +0.238 A 
ATOM     20  O   UNL     1      -3.812  -3.250   1.122  0.00  0.00    -0.283 OA
ATOM     21  C   UNL     1      -8.284  -4.076   2.538  0.00  0.00    +0.092 A 
ATOM     22  C   UNL     1      -5.554  -2.202  -0.145  0.00  0.00    +0.214 A 
BRANCH  12  24
ATOM     23  C   UNL     1      -8.925  -1.915  -1.678  0.00  0.00    +0.015 A 
ATOM     24  C   UNL     1      -7.657  -1.418  -1.303  0.00  0.00    +0.025 A 
ATOM     25  C   UNL     1      -7.175  -0.307  -2.002  0.00  0.00    +0.060 A 
ATOM     26  C   UNL     1      -7.849   0.158  -3.125  0.00  0.00    +0.159 A 
ATOM     27  C   UNL     1      -9.050  -0.399  -3.536  0.00  0.00    +0.158 A 
ATOM     28  C   UNL     1      -9.623  -1.410  -2.785  0.00  0.00    +0.050 A 
BRANCH  26  29
ATOM     29  O   UNL     1      -7.283   1.182  -3.851  0.00  0.00    -0.503 OA
ATOM     30  H   UNL     1      -7.926   1.352  -4.570  0.00  0.00    +0.292 HD
ENDBRANCH  26  29
BRANCH  27  31
ATOM     31  O   UNL     1      -9.621   0.084  -4.672  0.00  0.00    -0.503 OA
ATOM     32  H   UNL     1     -10.321  -0.538  -4.941  0.00  0.00    +0.292 HD
ENDBRANCH  27  31
ENDBRANCH  12  24
BRANCH  18  33
ATOM     33  O   UNL     1      -8.850  -5.428   4.394  0.00  0.00    -0.507 OA
ATOM     34  H   UNL     1      -8.429  -5.906   5.130  0.00  0.00    +0.292 HD
ENDBRANCH  18  33
BRANCH  16  35
ATOM     35  O   UNL     1      -4.291  -4.942   3.180  0.00  0.00    -0.506 OA
ATOM     36  H   UNL     1      -3.720  -4.507   2.512  0.00  0.00    +0.292 HD
ENDBRANCH  16  35
ENDBRANCH  11  22
ENDBRANCH   1  11
BRANCH   3  37
ATOM     37  C   UNL     1      -2.696   0.888  -4.267  0.00  0.00    +0.190 C 
BRANCH  37  38
ATOM     38  O   UNL     1      -3.670   1.882  -4.552  0.00  0.00    -0.392 OA
ATOM     39  H   UNL     1      -4.539   1.449  -4.638  0.00  0.00    +0.210 HD
ENDBRANCH  37  38
ENDBRANCH   3  37
BRANCH   4  40
ATOM     40  O   UNL     1      -2.104  -2.515  -4.346  0.00  0.00    -0.340 OA
BRANCH  40  41
ATOM     41  C   UNL     1      -1.855  -2.244  -5.729  0.00  0.00    +0.282 C 
ATOM     42  O   UNL     1      -1.991  -3.461  -6.482  0.00  0.00    -0.341 OA
ATOM     43  C   UNL     1      -1.037  -4.480  -6.116  0.00  0.00    +0.178 C 
ATOM     44  C   UNL     1       0.421  -3.990  -6.231  0.00  0.00    +0.177 C 
ATOM     45  C   UNL     1       0.615  -2.619  -5.574  0.00  0.00    +0.179 C 
ATOM     46  C   UNL     1      -0.470  -1.641  -6.034  0.00  0.00    +0.201 C 
BRANCH  44  47
ATOM     47  O   UNL     1       0.800  -3.867  -7.616  0.00  0.00    -0.386 OA
ATOM     48  H   UNL     1       1.704  -3.489  -7.593  0.00  0.00    +0.210 HD
ENDBRANCH  44  47
BRANCH  45  49
ATOM     49  O   UNL     1       1.915  -2.113  -5.932  0.00  0.00    -0.386 OA
ATOM     50  H   UNL     1       1.766  -1.375  -6.558  0.00  0.00    +0.210 HD
ENDBRANCH  45  49
BRANCH  46  51
ATOM     51  O   UNL     1      -0.313  -1.369  -7.440  0.00  0.00    -0.384 OA
ATOM     52  H   UNL     1      -0.418  -2.231  -7.906  0.00  0.00    +0.210 HD
ENDBRANCH  46  51
BRANCH  43  53
ATOM     53  C   UNL     1      -1.277  -5.692  -7.039  0.00  0.00    +0.190 C 
BRANCH  53  54
ATOM     54  O   UNL     1      -2.583  -6.253  -6.887  0.00  0.00    -0.392 OA
ATOM     55  H   UNL     1      -3.008  -5.825  -6.124  0.00  0.00    +0.210 HD
ENDBRANCH  53  54
ENDBRANCH  43  53
ENDBRANCH  40  41
ENDBRANCH   4  40
TORSDOF 18
