REMARK  Name = 
REMARK  27 active torsions:
REMARK  status: ('A' for Active; 'I' for Inactive)
REMARK    1  A    between atoms: C_1  and  C_2
REMARK    2  A    between atoms: C_3  and  O_74
REMARK    3  A    between atoms: C_5  and  O_73
REMARK    4  A    between atoms: C_6  and  O_47
REMARK    5  A    between atoms: C_8  and  O_11
REMARK    6  A    between atoms: O_11  and  C_12
REMARK    7  A    between atoms: C_13  and  C_39
REMARK    8  A    between atoms: C_17  and  O_24
REMARK    9  A    between atoms: C_19  and  O_23
REMARK   10  A    between atoms: O_24  and  C_25
REMARK   11  A    between atoms: C_27  and  O_38
REMARK   12  A    between atoms: C_28  and  O_37
REMARK   13  A    between atoms: C_29  and  O_36
REMARK   14  A    between atoms: C_31  and  C_34
REMARK   15  A    between atoms: C_34  and  O_35
REMARK   16  A    between atoms: C_41  and  O_46
REMARK   17  A    between atoms: C_42  and  O_45
REMARK   18  A    between atoms: O_47  and  C_48
REMARK   19  A    between atoms: C_50  and  O_72
REMARK   20  A    between atoms: C_52  and  O_71
REMARK   21  A    between atoms: C_53  and  O_70
REMARK   22  A    between atoms: C_55  and  C_57
REMARK   23  A    between atoms: C_57  and  O_58
REMARK   24  A    between atoms: O_58  and  C_59
REMARK   25  A    between atoms: C_59  and  C_61
REMARK   26  A    between atoms: C_62  and  C_63
REMARK   27  A    between atoms: C_66  and  O_69
REMARK                            x       y       z     vdW  Elec       q    Type
REMARK                         _______ _______ _______ _____ _____    ______ ____
ROOT
ATOM      1  O   UNL     1       2.949   1.754  -2.607  0.00  0.00    -0.453 OA
ENDROOT
BRANCH   1   2
ATOM      2  C   UNL     1       2.443   3.003  -2.982  0.00  0.00    +0.214 A 
ATOM      3  C   UNL     1       2.606   4.205  -2.082  0.00  0.00    +0.238 A 
ATOM      4  O   UNL     1       2.316   4.136  -0.892  0.00  0.00    -0.283 OA
ATOM      5  C   UNL     1       3.109   5.468  -2.701  0.00  0.00    +0.109 A 
ATOM      6  C   UNL     1       3.063   5.528  -4.089  0.00  0.00    +0.147 A 
ATOM      7  C   UNL     1       3.671   6.600  -4.787  0.00  0.00    +0.093 A 
ATOM      8  C   UNL     1       4.293   7.654  -4.101  0.00  0.00    +0.131 A 
ATOM      9  C   UNL     1       4.224   7.659  -2.707  0.00  0.00    +0.092 A 
ATOM     10  O   UNL     1       2.372   4.584  -4.829  0.00  0.00    -0.451 OA
ATOM     11  C   UNL     1       3.662   6.578  -2.015  0.00  0.00    +0.135 A 
ATOM     12  C   UNL     1       2.205   3.295  -4.302  0.00  0.00    +0.181 A 
BRANCH  12  13
ATOM     13  C   UNL     1       1.738   2.284  -5.319  0.00  0.00    +0.025 A 
ATOM     14  C   UNL     1       1.292   1.016  -4.914  0.00  0.00    +0.015 A 
ATOM     15  C   UNL     1       0.834   0.024  -5.773  0.00  0.00    +0.050 A 
ATOM     16  C   UNL     1       0.677   0.337  -7.101  0.00  0.00    +0.158 A 
ATOM     17  C   UNL     1       1.022   1.605  -7.556  0.00  0.00    +0.159 A 
ATOM     18  C   UNL     1       1.572   2.571  -6.691  0.00  0.00    +0.060 A 
BRANCH  17  19
ATOM     19  O   UNL     1       0.761   1.864  -8.875  0.00  0.00    -0.503 OA
ATOM     20  H   UNL     1       0.984   2.786  -9.064  0.00  0.00    +0.292 HD
ENDBRANCH  17  19
BRANCH  16  21
ATOM     21  O   UNL     1       0.118  -0.591  -7.921  0.00  0.00    -0.503 OA
ATOM     22  H   UNL     1      -0.025  -0.129  -8.768  0.00  0.00    +0.292 HD
ENDBRANCH  16  21
ENDBRANCH  12  13
BRANCH  11  23
ATOM     23  O   UNL     1       3.681   6.612  -0.643  0.00  0.00    -0.506 OA
ATOM     24  H   UNL     1       3.994   7.485  -0.338  0.00  0.00    +0.292 HD
ENDBRANCH  11  23
BRANCH   8  25
ATOM     25  O   UNL     1       4.983   8.713  -4.678  0.00  0.00    -0.461 OA
BRANCH  25  26
ATOM     26  C   UNL     1       5.542   8.443  -5.982  0.00  0.00    +0.339 C 
ATOM     27  O   UNL     1       6.435   7.330  -5.945  0.00  0.00    -0.331 OA
ATOM     28  C   UNL     1       7.674   7.606  -5.264  0.00  0.00    +0.179 C 
ATOM     29  C   UNL     1       8.465   8.671  -6.031  0.00  0.00    +0.177 C 
ATOM     30  C   UNL     1       7.638   9.955  -6.092  0.00  0.00    +0.180 C 
ATOM     31  C   UNL     1       6.228   9.674  -6.641  0.00  0.00    +0.214 C 
BRANCH  31  32
ATOM     32  O   UNL     1       5.432  10.864  -6.586  0.00  0.00    -0.383 OA
ATOM     33  H   UNL     1       5.290  11.084  -5.647  0.00  0.00    +0.210 HD
ENDBRANCH  31  32
BRANCH  30  34
ATOM     34  O   UNL     1       8.353  10.895  -6.919  0.00  0.00    -0.386 OA
ATOM     35  H   UNL     1       7.812  11.076  -7.711  0.00  0.00    +0.210 HD
ENDBRANCH  30  34
BRANCH  29  36
ATOM     36  O   UNL     1       8.741   8.228  -7.369  0.00  0.00    -0.386 OA
ATOM     37  H   UNL     1       9.203   8.968  -7.809  0.00  0.00    +0.210 HD
ENDBRANCH  29  36
BRANCH  28  38
ATOM     38  C   UNL     1       8.460   6.294  -5.155  0.00  0.00    +0.190 C 
BRANCH  38  39
ATOM     39  O   UNL     1       7.756   5.339  -4.360  0.00  0.00    -0.392 OA
ATOM     40  H   UNL     1       7.576   5.722  -3.484  0.00  0.00    +0.210 HD
ENDBRANCH  38  39
ENDBRANCH  28  38
ENDBRANCH  25  26
ENDBRANCH   8  25
ENDBRANCH   1   2
BRANCH   1  44
ATOM     41  C   UNL     1       0.519  -0.063   0.591  0.00  0.00    +0.041 C 
ATOM     42  C   UNL     1       2.042  -0.074   0.535  0.00  0.00    +0.150 C 
ATOM     43  O   UNL     1       2.610   0.921  -0.345  0.00  0.00    -0.334 OA
ATOM     44  C   UNL     1       2.369   0.738  -1.742  0.00  0.00    +0.340 C 
ATOM     45  C   UNL     1       2.891  -0.707  -2.228  0.00  0.00    +0.221 C 
ATOM     46  C   UNL     1       2.377  -1.800  -1.277  0.00  0.00    +0.180 C 
ATOM     47  C   UNL     1       2.570  -1.481   0.221  0.00  0.00    +0.174 C 
BRANCH  47  48
ATOM     48  O   UNL     1       3.919  -1.545   0.683  0.00  0.00    -0.387 OA
ATOM     49  H   UNL     1       4.330  -0.662   0.547  0.00  0.00    +0.210 HD
ENDBRANCH  47  48
BRANCH  46  50
ATOM     50  O   UNL     1       2.826  -3.108  -1.640  0.00  0.00    -0.386 OA
ATOM     51  H   UNL     1       3.720  -3.038  -2.016  0.00  0.00    +0.210 HD
ENDBRANCH  46  50
BRANCH  45  52
ATOM     52  O   UNL     1       4.271  -0.909  -2.657  0.00  0.00    -0.337 OA
BRANCH  52  53
ATOM     53  C   UNL     1       5.300  -1.027  -1.677  0.00  0.00    +0.282 C 
ATOM     54  O   UNL     1       5.395   0.180  -0.929  0.00  0.00    -0.339 OA
ATOM     55  C   UNL     1       5.746   1.275  -1.802  0.00  0.00    +0.190 C 
ATOM     56  C   UNL     1       7.148   1.091  -2.386  0.00  0.00    +0.178 C 
ATOM     57  C   UNL     1       7.200  -0.257  -3.138  0.00  0.00    +0.179 C 
ATOM     58  C   UNL     1       6.688  -1.394  -2.253  0.00  0.00    +0.201 C 
BRANCH  58  59
ATOM     59  O   UNL     1       7.633  -1.624  -1.182  0.00  0.00    -0.384 OA
ATOM     60  H   UNL     1       7.771  -0.755  -0.742  0.00  0.00    +0.210 HD
ENDBRANCH  58  59
BRANCH  57  61
ATOM     61  O   UNL     1       8.549  -0.520  -3.546  0.00  0.00    -0.386 OA
ATOM     62  H   UNL     1       9.039  -0.662  -2.711  0.00  0.00    +0.210 HD
ENDBRANCH  57  61
BRANCH  56  63
ATOM     63  O   UNL     1       8.148   1.066  -1.357  0.00  0.00    -0.386 OA
ATOM     64  H   UNL     1       8.847   1.670  -1.676  0.00  0.00    +0.210 HD
ENDBRANCH  56  63
BRANCH  55  65
ATOM     65  C   UNL     1       5.374   2.591  -1.117  0.00  0.00    +0.266 C 
BRANCH  65  66
ATOM     66  O   UNL     1       6.175   3.015  -0.024  0.00  0.00    -0.459 OA
BRANCH  66  67
ATOM     67  C   UNL     1       7.155   3.864  -0.394  0.00  0.00    +0.332 C 
ATOM     68  O   UNL     1       7.588   4.022  -1.527  0.00  0.00    -0.246 OA
BRANCH  67  69
ATOM     69  C   UNL     1       7.672   4.634   0.728  0.00  0.00    +0.092 C 
ATOM     70  C   UNL     1       6.981   5.044   1.800  0.00  0.00    +0.015 C 
BRANCH  70  71
ATOM     71  C   UNL     1       7.628   5.874   2.827  0.00  0.00    -0.025 A 
ATOM     72  C   UNL     1       8.985   5.690   3.134  0.00  0.00    +0.011 A 
ATOM     73  C   UNL     1       9.630   6.500   4.061  0.00  0.00    +0.046 A 
ATOM     74  C   UNL     1       8.909   7.486   4.723  0.00  0.00    +0.117 A 
ATOM     75  C   UNL     1       7.552   7.659   4.474  0.00  0.00    +0.046 A 
ATOM     76  C   UNL     1       6.905   6.850   3.527  0.00  0.00    +0.011 A 
BRANCH  74  77
ATOM     77  O   UNL     1       9.585   8.264   5.608  0.00  0.00    -0.507 OA
ATOM     78  H   UNL     1       8.975   8.922   5.976  0.00  0.00    +0.292 HD
ENDBRANCH  74  77
ENDBRANCH  70  71
ENDBRANCH  67  69
ENDBRANCH  66  67
ENDBRANCH  65  66
ENDBRANCH  55  65
ENDBRANCH  52  53
ENDBRANCH  45  52
ENDBRANCH   1  44
TORSDOF 26
