REMARK  Name = 
REMARK  17 active torsions:
REMARK  status: ('A' for Active; 'I' for Inactive)
REMARK    1  A    between atoms: C_2  and  C_44
REMARK    2  A    between atoms: C_2  and  O_46
REMARK    3  A    between atoms: C_3  and  O_43
REMARK    4  A    between atoms: C_5  and  O_8
REMARK    5  A    between atoms: O_8  and  C_9
REMARK    6  A    between atoms: C_10  and  O_21
REMARK    7  A    between atoms: C_13  and  C_19
REMARK    8  A    between atoms: C_14  and  O_18
REMARK    9  A    between atoms: C_16  and  O_17
REMARK   10  A    between atoms: C_19  and  O_20
REMARK   11  A    between atoms: O_21  and  C_22
REMARK   12  A    between atoms: C_23  and  C_35
REMARK   13  A    between atoms: C_27  and  O_34
REMARK   14  A    between atoms: C_29  and  O_33
REMARK   15  A    between atoms: C_37  and  O_42
REMARK   16  A    between atoms: C_38  and  O_41
REMARK   17  A    between atoms: C_44  and  O_45
REMARK                            x       y       z     vdW  Elec       q    Type
REMARK                         _______ _______ _______ _____ _____    ______ ____
ROOT
ATOM      1  C   UNL     1       3.293   0.063  -1.035  0.00  0.00    +0.221 C 
ATOM      2  C   UNL     1       4.219   1.280  -1.222  0.00  0.00    +0.180 C 
ATOM      3  C   UNL     1       4.338   1.631  -2.717  0.00  0.00    +0.177 C 
ATOM      4  C   UNL     1       4.616   0.407  -3.607  0.00  0.00    +0.179 C 
ATOM      5  O   UNL     1       3.838  -0.744  -3.259  0.00  0.00    -0.331 OA
ATOM      6  C   UNL     1       3.781  -1.137  -1.887  0.00  0.00    +0.340 C 
ENDROOT
BRANCH   3   7
ATOM      7  O   UNL     1       3.113   2.244  -3.162  0.00  0.00    -0.386 OA
ATOM      8  H   UNL     1       2.368   1.695  -2.831  0.00  0.00    +0.210 HD
ENDBRANCH   3   7
BRANCH   2   9
ATOM      9  O   UNL     1       5.494   1.095  -0.602  0.00  0.00    -0.386 OA
ATOM     10  H   UNL     1       5.941   0.368  -1.059  0.00  0.00    +0.210 HD
ENDBRANCH   2   9
BRANCH   6  11
ATOM     11  O   UNL     1       5.006  -1.681  -1.368  0.00  0.00    -0.453 OA
BRANCH  11  12
ATOM     12  C   UNL     1       5.320  -3.027  -1.608  0.00  0.00    +0.214 A 
ATOM     13  C   UNL     1       4.715  -3.800  -2.760  0.00  0.00    +0.238 A 
ATOM     14  O   UNL     1       3.846  -3.318  -3.473  0.00  0.00    -0.283 OA
ATOM     15  C   UNL     1       5.172  -5.182  -2.996  0.00  0.00    +0.109 A 
ATOM     16  C   UNL     1       6.127  -5.699  -2.129  0.00  0.00    +0.147 A 
ATOM     17  C   UNL     1       6.639  -6.987  -2.309  0.00  0.00    +0.092 A 
ATOM     18  C   UNL     1       6.180  -7.771  -3.358  0.00  0.00    +0.124 A 
ATOM     19  C   UNL     1       5.205  -7.283  -4.224  0.00  0.00    +0.091 A 
ATOM     20  O   UNL     1       6.606  -5.006  -1.061  0.00  0.00    -0.451 OA
ATOM     21  C   UNL     1       4.706  -5.991  -4.045  0.00  0.00    +0.135 A 
ATOM     22  C   UNL     1       6.192  -3.702  -0.816  0.00  0.00    +0.181 A 
BRANCH  22  23
ATOM     23  C   UNL     1       6.822  -3.198   0.444  0.00  0.00    +0.025 A 
ATOM     24  C   UNL     1       7.226  -4.131   1.429  0.00  0.00    +0.015 A 
ATOM     25  C   UNL     1       7.842  -3.731   2.620  0.00  0.00    +0.050 A 
ATOM     26  C   UNL     1       8.031  -2.383   2.857  0.00  0.00    +0.158 A 
ATOM     27  C   UNL     1       7.636  -1.443   1.913  0.00  0.00    +0.159 A 
ATOM     28  C   UNL     1       7.073  -1.844   0.702  0.00  0.00    +0.060 A 
BRANCH  27  29
ATOM     29  O   UNL     1       7.816  -0.121   2.214  0.00  0.00    -0.503 OA
ATOM     30  H   UNL     1       7.314   0.414   1.571  0.00  0.00    +0.292 HD
ENDBRANCH  27  29
BRANCH  26  31
ATOM     31  O   UNL     1       8.601  -1.984   4.029  0.00  0.00    -0.503 OA
ATOM     32  H   UNL     1       8.616  -1.008   3.976  0.00  0.00    +0.292 HD
ENDBRANCH  26  31
ENDBRANCH  22  23
BRANCH  18  33
ATOM     33  O   UNL     1       6.649  -9.025  -3.571  0.00  0.00    -0.507 OA
ATOM     34  H   UNL     1       7.339  -9.225  -2.917  0.00  0.00    +0.292 HD
ENDBRANCH  18  33
BRANCH  21  35
ATOM     35  O   UNL     1       3.746  -5.544  -4.906  0.00  0.00    -0.506 OA
ATOM     36  H   UNL     1       3.575  -6.201  -5.599  0.00  0.00    +0.292 HD
ENDBRANCH  21  35
ENDBRANCH  11  12
ENDBRANCH   6  11
BRANCH   4  37
ATOM     37  C   UNL     1       6.097   0.030  -3.717  0.00  0.00    +0.190 C 
BRANCH  37  38
ATOM     38  O   UNL     1       6.264  -1.045  -4.642  0.00  0.00    -0.392 OA
ATOM     39  H   UNL     1       5.469  -1.613  -4.559  0.00  0.00    +0.210 HD
ENDBRANCH  37  38
ENDBRANCH   4  37
BRANCH   1  40
ATOM     40  O   UNL     1       1.989   0.519  -1.452  0.00  0.00    -0.337 OA
BRANCH  40  43
ATOM     41  C   UNL     1      -1.328  -0.040  -0.821  0.00  0.00    +0.202 C 
ATOM     42  O   UNL     1      -0.294   0.176  -1.793  0.00  0.00    -0.346 OA
ATOM     43  C   UNL     1       0.923  -0.401  -1.292  0.00  0.00    +0.282 C 
ATOM     44  C   UNL     1       0.676  -0.828   0.167  0.00  0.00    +0.206 C 
ATOM     45  C   UNL     1      -0.817  -1.117   0.131  0.00  0.00    +0.142 C 
BRANCH  45  46
ATOM     46  O   UNL     1      -1.031  -2.446  -0.399  0.00  0.00    -0.381 OA
ATOM     47  H   UNL     1      -0.658  -2.501  -1.297  0.00  0.00    +0.210 HD
ENDBRANCH  45  46
BRANCH  44  48
ATOM     48  O   UNL     1       1.002   0.227   1.075  0.00  0.00    -0.384 OA
ATOM     49  H   UNL     1       1.208  -0.185   1.935  0.00  0.00    +0.210 HD
ENDBRANCH  44  48
BRANCH  45  50
ATOM     50  C   UNL     1      -1.515  -1.067   1.486  0.00  0.00    +0.195 C 
BRANCH  50  51
ATOM     51  O   UNL     1      -0.971  -2.088   2.325  0.00  0.00    -0.392 OA
ATOM     52  H   UNL     1      -1.074  -2.914   1.810  0.00  0.00    +0.210 HD
ENDBRANCH  50  51
ENDBRANCH  45  50
ENDBRANCH  40  43
ENDBRANCH   1  40
TORSDOF 17
