REMARK  Name = 
REMARK  14 active torsions:
REMARK  status: ('A' for Active; 'I' for Inactive)
REMARK    1  A    between atoms: C_1  and  C_2
REMARK    2  A    between atoms: C_2  and  O_4
REMARK    3  A    between atoms: O_4  and  C_5
REMARK    4  A    between atoms: C_6  and  O_39
REMARK    5  A    between atoms: C_8  and  O_38
REMARK    6  A    between atoms: C_10  and  C_36
REMARK    7  A    between atoms: C_12  and  O_14
REMARK    8  A    between atoms: O_14  and  C_15
REMARK    9  A    between atoms: C_16  and  C_28
REMARK   10  A    between atoms: C_20  and  O_27
REMARK   11  A    between atoms: C_22  and  O_26
REMARK   12  A    between atoms: C_30  and  O_35
REMARK   13  A    between atoms: C_31  and  O_34
REMARK   14  A    between atoms: C_36  and  O_37
REMARK                            x       y       z     vdW  Elec       q    Type
REMARK                         _______ _______ _______ _____ _____    ______ ____
ROOT
ATOM      1  C   UNL     1       5.427  -1.500  -2.461  0.00  0.00    +0.214 A 
ATOM      2  C   UNL     1       4.733  -1.552  -3.791  0.00  0.00    +0.238 A 
ATOM      3  O   UNL     1       3.773  -2.303  -3.940  0.00  0.00    -0.283 OA
ATOM      4  C   UNL     1       5.203  -0.662  -4.862  0.00  0.00    +0.109 A 
ATOM      5  C   UNL     1       6.259   0.192  -4.569  0.00  0.00    +0.147 A 
ATOM      6  C   UNL     1       6.705   1.109  -5.531  0.00  0.00    +0.092 A 
ATOM      7  C   UNL     1       6.104   1.132  -6.790  0.00  0.00    +0.124 A 
ATOM      8  C   UNL     1       5.071   0.262  -7.106  0.00  0.00    +0.091 A 
ATOM      9  O   UNL     1       6.923   0.176  -3.368  0.00  0.00    -0.451 OA
ATOM     10  C   UNL     1       4.618  -0.634  -6.138  0.00  0.00    +0.135 A 
ATOM     11  C   UNL     1       6.471  -0.646  -2.328  0.00  0.00    +0.181 A 
ENDROOT
BRANCH  11  12
ATOM     12  C   UNL     1       7.202  -0.306  -1.079  0.00  0.00    +0.025 A 
ATOM     13  C   UNL     1       6.712   0.723  -0.251  0.00  0.00    +0.015 A 
ATOM     14  C   UNL     1       7.456   1.186   0.841  0.00  0.00    +0.050 A 
ATOM     15  C   UNL     1       8.687   0.618   1.120  0.00  0.00    +0.158 A 
ATOM     16  C   UNL     1       9.188  -0.409   0.326  0.00  0.00    +0.159 A 
ATOM     17  C   UNL     1       8.464  -0.862  -0.781  0.00  0.00    +0.060 A 
BRANCH  15  18
ATOM     18  O   UNL     1       9.413   1.089   2.178  0.00  0.00    -0.503 OA
ATOM     19  H   UNL     1      10.260   0.603   2.145  0.00  0.00    +0.292 HD
ENDBRANCH  15  18
BRANCH  16  20
ATOM     20  O   UNL     1      10.402  -0.928   0.678  0.00  0.00    -0.503 OA
ATOM     21  H   UNL     1      10.586  -1.699   0.118  0.00  0.00    +0.292 HD
ENDBRANCH  16  20
ENDBRANCH  11  12
BRANCH   7  22
ATOM     22  O   UNL     1       6.501   1.996  -7.769  0.00  0.00    -0.507 OA
ATOM     23  H   UNL     1       7.212   2.555  -7.421  0.00  0.00    +0.292 HD
ENDBRANCH   7  22
BRANCH  10  24
ATOM     24  O   UNL     1       3.602  -1.484  -6.468  0.00  0.00    -0.506 OA
ATOM     25  H   UNL     1       3.287  -1.305  -7.369  0.00  0.00    +0.292 HD
ENDBRANCH  10  24
BRANCH   1  26
ATOM     26  O   UNL     1       4.726  -2.185  -1.522  0.00  0.00    -0.452 OA
BRANCH  26  28
ATOM     27  C   UNL     1       4.771  -4.559  -0.874  0.00  0.00    +0.275 C 
ATOM     28  C   UNL     1       5.132  -3.091  -0.512  0.00  0.00    +0.352 C 
ATOM     29  O   UNL     1       6.468  -2.993  -0.043  0.00  0.00    -0.330 OA
ATOM     30  C   UNL     1       6.677  -3.701   1.202  0.00  0.00    +0.179 C 
ATOM     31  C   UNL     1       6.415  -5.203   0.989  0.00  0.00    +0.178 C 
ATOM     32  C   UNL     1       5.016  -5.444   0.375  0.00  0.00    +0.192 C 
BRANCH  31  33
ATOM     33  O   UNL     1       7.449  -5.718   0.135  0.00  0.00    -0.386 OA
ATOM     34  H   UNL     1       7.301  -5.340  -0.754  0.00  0.00    +0.210 HD
ENDBRANCH  31  33
BRANCH  32  35
ATOM     35  O   UNL     1       4.838  -6.843   0.136  0.00  0.00    -0.385 OA
ATOM     36  H   UNL     1       4.127  -6.965  -0.529  0.00  0.00    +0.210 HD
ENDBRANCH  32  35
BRANCH  27  37
ATOM     37  O   UNL     1       5.580  -5.024  -1.985  0.00  0.00    -0.452 OA
BRANCH  37  39
ATOM     38  C   UNL     1       5.938  -6.467  -3.814  0.00  0.00    +0.136 C 
ATOM     39  C   UNL     1       5.034  -6.056  -2.695  0.00  0.00    +0.304 C 
ATOM     40  O   UNL     1       3.977  -6.614  -2.418  0.00  0.00    -0.251 OA
ENDBRANCH  37  39
ENDBRANCH  27  37
BRANCH  30  41
ATOM     41  C   UNL     1       5.858  -3.126   2.379  0.00  0.00    +0.190 C 
BRANCH  41  42
ATOM     42  O   UNL     1       6.049  -1.726   2.527  0.00  0.00    -0.392 OA
ATOM     43  H   UNL     1       7.000  -1.552   2.650  0.00  0.00    +0.210 HD
ENDBRANCH  41  42
ENDBRANCH  30  41
ENDBRANCH  26  28
ENDBRANCH   1  26
TORSDOF 13
