REMARK  Name = 
REMARK  13 active torsions:
REMARK  status: ('A' for Active; 'I' for Inactive)
REMARK    1  A    between atoms: C_1  and  C_2
REMARK    2  A    between atoms: C_3  and  O_37
REMARK    3  A    between atoms: C_5  and  O_36
REMARK    4  A    between atoms: C_6  and  O_35
REMARK    5  A    between atoms: C_8  and  O_11
REMARK    6  A    between atoms: O_11  and  C_12
REMARK    7  A    between atoms: C_14  and  O_34
REMARK    8  A    between atoms: C_19  and  C_25
REMARK    9  A    between atoms: C_20  and  O_23
REMARK   10  A    between atoms: O_23  and  C_24
REMARK   11  A    between atoms: C_27  and  O_33
REMARK   12  A    between atoms: C_28  and  O_31
REMARK   13  A    between atoms: O_31  and  C_32
REMARK                            x       y       z     vdW  Elec       q    Type
REMARK                         _______ _______ _______ _____ _____    ______ ____
ROOT
ATOM      1  C   UNL     1       2.689   3.024  -3.223  0.00  0.00    +0.131 A 
ATOM      2  C   UNL     1       1.441   3.530  -2.862  0.00  0.00    +0.093 A 
ATOM      3  C   UNL     1       1.236   4.917  -2.795  0.00  0.00    +0.147 A 
ATOM      4  O   UNL     1      -0.020   5.333  -2.428  0.00  0.00    -0.451 OA
ATOM      5  C   UNL     1      -0.288   6.691  -2.385  0.00  0.00    +0.181 A 
ATOM      6  C   UNL     1       0.602   7.672  -2.635  0.00  0.00    +0.211 A 
ATOM      7  C   UNL     1       2.004   7.252  -2.978  0.00  0.00    +0.238 A 
ATOM      8  O   UNL     1       2.898   8.067  -3.156  0.00  0.00    -0.283 OA
ATOM      9  C   UNL     1       2.269   5.802  -3.089  0.00  0.00    +0.109 A 
ATOM     10  C   UNL     1       3.518   5.287  -3.463  0.00  0.00    +0.135 A 
ATOM     11  C   UNL     1       3.723   3.909  -3.527  0.00  0.00    +0.092 A 
ENDROOT
BRANCH   5  12
ATOM     12  C   UNL     1      -1.705   6.975  -2.069  0.00  0.00    +0.025 A 
ATOM     13  C   UNL     1      -2.651   7.032  -3.101  0.00  0.00    +0.015 A 
ATOM     14  C   UNL     1      -4.009   7.253  -2.826  0.00  0.00    +0.050 A 
ATOM     15  C   UNL     1      -4.447   7.415  -1.511  0.00  0.00    +0.161 A 
ATOM     16  C   UNL     1      -3.495   7.384  -0.481  0.00  0.00    +0.159 A 
ATOM     17  C   UNL     1      -2.136   7.168  -0.749  0.00  0.00    +0.060 A 
BRANCH  15  18
ATOM     18  O   UNL     1      -5.752   7.603  -1.134  0.00  0.00    -0.491 OA
ATOM     19  C   UNL     1      -6.744   7.569  -2.151  0.00  0.00    +0.277 C 
ENDBRANCH  15  18
BRANCH  16  20
ATOM     20  O   UNL     1      -3.916   7.559   0.813  0.00  0.00    -0.503 OA
ATOM     21  H   UNL     1      -3.147   7.561   1.404  0.00  0.00    +0.292 HD
ENDBRANCH  16  20
ENDBRANCH   5  12
BRANCH   6  22
ATOM     22  O   UNL     1       0.198   9.002  -2.570  0.00  0.00    -0.488 OA
ATOM     23  C   UNL     1       1.153  10.005  -2.898  0.00  0.00    +0.277 C 
ENDBRANCH   6  22
BRANCH  10  24
ATOM     24  O   UNL     1       4.562   6.107  -3.783  0.00  0.00    -0.506 OA
ATOM     25  H   UNL     1       5.369   5.589  -3.927  0.00  0.00    +0.292 HD
ENDBRANCH  10  24
BRANCH   1  26
ATOM     26  O   UNL     1       3.055   1.715  -3.322  0.00  0.00    -0.461 OA
BRANCH  26  30
ATOM     27  C   UNL     1      -0.643  -0.035  -1.944  0.00  0.00    +0.041 C 
ATOM     28  C   UNL     1       0.716  -0.252  -1.280  0.00  0.00    +0.150 C 
ATOM     29  O   UNL     1       1.650   0.762  -1.668  0.00  0.00    -0.334 OA
ATOM     30  C   UNL     1       2.097   0.695  -3.028  0.00  0.00    +0.339 C 
ATOM     31  C   UNL     1       2.777  -0.665  -3.314  0.00  0.00    +0.214 C 
ATOM     32  C   UNL     1       1.814  -1.804  -2.963  0.00  0.00    +0.180 C 
ATOM     33  C   UNL     1       1.289  -1.655  -1.527  0.00  0.00    +0.174 C 
BRANCH  31  34
ATOM     34  O   UNL     1       3.978  -0.825  -2.524  0.00  0.00    -0.383 OA
ATOM     35  H   UNL     1       4.371  -1.668  -2.822  0.00  0.00    +0.210 HD
ENDBRANCH  31  34
BRANCH  32  36
ATOM     36  O   UNL     1       2.504  -3.057  -3.094  0.00  0.00    -0.386 OA
ATOM     37  H   UNL     1       2.804  -3.290  -2.189  0.00  0.00    +0.210 HD
ENDBRANCH  32  36
BRANCH  33  38
ATOM     38  O   UNL     1       2.382  -1.902  -0.622  0.00  0.00    -0.387 OA
ATOM     39  H   UNL     1       3.039  -1.185  -0.779  0.00  0.00    +0.210 HD
ENDBRANCH  33  38
ENDBRANCH  26  30
ENDBRANCH   1  26
TORSDOF 10
