REMARK  Name = 
REMARK  16 active torsions:
REMARK  status: ('A' for Active; 'I' for Inactive)
REMARK    1  A    between atoms: C_2  and  O_47
REMARK    2  A    between atoms: C_4  and  O_46
REMARK    3  A    between atoms: C_5  and  O_45
REMARK    4  A    between atoms: C_7  and  O_10
REMARK    5  A    between atoms: O_10  and  C_11
REMARK    6  A    between atoms: C_12  and  O_23
REMARK    7  A    between atoms: C_15  and  C_21
REMARK    8  A    between atoms: C_16  and  O_20
REMARK    9  A    between atoms: C_18  and  O_19
REMARK   10  A    between atoms: C_21  and  O_22
REMARK   11  A    between atoms: O_23  and  C_24
REMARK   12  A    between atoms: C_25  and  C_37
REMARK   13  A    between atoms: C_29  and  O_36
REMARK   14  A    between atoms: C_31  and  O_35
REMARK   15  A    between atoms: C_39  and  O_44
REMARK   16  A    between atoms: C_40  and  O_43
REMARK                            x       y       z     vdW  Elec       q    Type
REMARK                         _______ _______ _______ _____ _____    ______ ____
ROOT
ATOM      1  C   UNL     1       2.740  -2.164  -0.513  0.00  0.00    +0.221 C 
ATOM      2  C   UNL     1       2.781  -1.369  -1.834  0.00  0.00    +0.180 C 
ATOM      3  C   UNL     1       2.077  -2.096  -2.987  0.00  0.00    +0.177 C 
ATOM      4  C   UNL     1       2.552  -3.544  -3.132  0.00  0.00    +0.179 C 
ATOM      5  O   UNL     1       2.479  -4.204  -1.867  0.00  0.00    -0.331 OA
ATOM      6  C   UNL     1       3.192  -3.620  -0.778  0.00  0.00    +0.340 C 
ENDROOT
BRANCH   3   7
ATOM      7  O   UNL     1       0.660  -2.108  -2.750  0.00  0.00    -0.386 OA
ATOM      8  H   UNL     1       0.494  -2.685  -1.977  0.00  0.00    +0.210 HD
ENDBRANCH   3   7
BRANCH   2   9
ATOM      9  O   UNL     1       4.138  -1.069  -2.206  0.00  0.00    -0.386 OA
ATOM     10  H   UNL     1       4.749  -1.711  -1.797  0.00  0.00    +0.210 HD
ENDBRANCH   2   9
BRANCH   6  11
ATOM     11  O   UNL     1       4.618  -3.726  -0.877  0.00  0.00    -0.453 OA
BRANCH  11  12
ATOM     12  C   UNL     1       5.165  -4.952  -0.470  0.00  0.00    +0.214 A 
ATOM     13  C   UNL     1       4.363  -6.232  -0.476  0.00  0.00    +0.238 A 
ATOM     14  O   UNL     1       3.141  -6.246  -0.540  0.00  0.00    -0.283 OA
ATOM     15  C   UNL     1       5.072  -7.499  -0.309  0.00  0.00    +0.109 A 
ATOM     16  C   UNL     1       6.406  -7.427   0.055  0.00  0.00    +0.147 A 
ATOM     17  C   UNL     1       7.137  -8.614   0.235  0.00  0.00    +0.092 A 
ATOM     18  C   UNL     1       6.505  -9.845   0.066  0.00  0.00    +0.124 A 
ATOM     19  C   UNL     1       5.160  -9.920  -0.270  0.00  0.00    +0.091 A 
ATOM     20  O   UNL     1       7.052  -6.258   0.301  0.00  0.00    -0.451 OA
ATOM     21  C   UNL     1       4.443  -8.746  -0.462  0.00  0.00    +0.135 A 
ATOM     22  C   UNL     1       6.431  -5.043  -0.002  0.00  0.00    +0.181 A 
BRANCH  22  23
ATOM     23  C   UNL     1       7.323  -3.881   0.321  0.00  0.00    +0.025 A 
ATOM     24  C   UNL     1       8.722  -4.068   0.326  0.00  0.00    +0.015 A 
ATOM     25  C   UNL     1       9.598  -3.077   0.784  0.00  0.00    +0.050 A 
ATOM     26  C   UNL     1       9.084  -1.872   1.231  0.00  0.00    +0.158 A 
ATOM     27  C   UNL     1       7.714  -1.647   1.215  0.00  0.00    +0.159 A 
ATOM     28  C   UNL     1       6.837  -2.639   0.773  0.00  0.00    +0.060 A 
BRANCH  27  29
ATOM     29  O   UNL     1       7.270  -0.435   1.671  0.00  0.00    -0.503 OA
ATOM     30  H   UNL     1       6.299  -0.406   1.598  0.00  0.00    +0.292 HD
ENDBRANCH  27  29
BRANCH  26  31
ATOM     31  O   UNL     1       9.935  -0.918   1.705  0.00  0.00    -0.503 OA
ATOM     32  H   UNL     1       9.354  -0.178   1.973  0.00  0.00    +0.292 HD
ENDBRANCH  26  31
ENDBRANCH  22  23
BRANCH  21  33
ATOM     33  O   UNL     1       3.121  -8.833  -0.795  0.00  0.00    -0.506 OA
ATOM     34  H   UNL     1       2.832  -9.760  -0.827  0.00  0.00    +0.292 HD
ENDBRANCH  21  33
BRANCH  18  35
ATOM     35  O   UNL     1       7.166 -11.023   0.239  0.00  0.00    -0.507 OA
ATOM     36  H   UNL     1       8.097 -10.848   0.448  0.00  0.00    +0.292 HD
ENDBRANCH  18  35
ENDBRANCH  11  12
ENDBRANCH   6  11
BRANCH   4  37
ATOM     37  C   UNL     1       3.924  -3.736  -3.794  0.00  0.00    +0.190 C 
BRANCH  37  38
ATOM     38  O   UNL     1       4.197  -5.132  -3.962  0.00  0.00    -0.392 OA
ATOM     39  H   UNL     1       3.848  -5.584  -3.169  0.00  0.00    +0.210 HD
ENDBRANCH  37  38
ENDBRANCH   4  37
BRANCH   1  40
ATOM     40  O   UNL     1       1.436  -2.091   0.126  0.00  0.00    -0.337 OA
BRANCH  40  43
ATOM     41  C   UNL     1      -0.194  -3.822   2.879  0.00  0.00    +0.197 C 
ATOM     42  O   UNL     1      -0.035  -2.839   1.834  0.00  0.00    -0.346 OA
ATOM     43  C   UNL     1       1.328  -2.812   1.373  0.00  0.00    +0.282 C 
ATOM     44  C   UNL     1       2.239  -2.273   2.510  0.00  0.00    +0.201 C 
ATOM     45  C   UNL     1       2.075  -3.192   3.733  0.00  0.00    +0.178 C 
ATOM     46  C   UNL     1       0.606  -3.384   4.107  0.00  0.00    +0.171 C 
BRANCH  46  47
ATOM     47  O   UNL     1       0.102  -2.131   4.594  0.00  0.00    -0.387 OA
ATOM     48  H   UNL     1      -0.348  -1.690   3.845  0.00  0.00    +0.210 HD
ENDBRANCH  46  47
BRANCH  45  49
ATOM     49  O   UNL     1       2.821  -2.666   4.835  0.00  0.00    -0.386 OA
ATOM     50  H   UNL     1       2.291  -1.924   5.191  0.00  0.00    +0.210 HD
ENDBRANCH  45  49
BRANCH  44  51
ATOM     51  O   UNL     1       3.630  -2.236   2.147  0.00  0.00    -0.384 OA
ATOM     52  H   UNL     1       4.055  -3.046   2.481  0.00  0.00    +0.210 HD
ENDBRANCH  44  51
ENDBRANCH  40  43
ENDBRANCH   1  40
TORSDOF 16
