REMARK  Name = 
REMARK  18 active torsions:
REMARK  status: ('A' for Active; 'I' for Inactive)
REMARK    1  A    between atoms: C_3  and  O_49
REMARK    2  A    between atoms: C_4  and  O_48
REMARK    3  A    between atoms: C_6  and  C_7
REMARK    4  A    between atoms: C_8  and  O_20
REMARK    5  A    between atoms: C_12  and  O_19
REMARK    6  A    between atoms: C_14  and  O_18
REMARK    7  A    between atoms: O_20  and  C_21
REMARK    8  A    between atoms: C_23  and  O_47
REMARK    9  A    between atoms: C_24  and  O_32
REMARK   10  A    between atoms: C_25  and  O_31
REMARK   11  A    between atoms: C_27  and  C_29
REMARK   12  A    between atoms: C_29  and  O_30
REMARK   13  A    between atoms: O_32  and  C_33
REMARK   14  A    between atoms: C_35  and  O_46
REMARK   15  A    between atoms: C_37  and  O_45
REMARK   16  A    between atoms: C_38  and  O_44
REMARK   17  A    between atoms: C_40  and  C_42
REMARK   18  A    between atoms: C_42  and  O_43
REMARK                            x       y       z     vdW  Elec       q    Type
REMARK                         _______ _______ _______ _____ _____    ______ ____
ROOT
ATOM      1  C   UNL     1      -3.839  -0.386  -1.560  0.00  0.00    +0.340 C 
ATOM      2  O   UNL     1      -4.091  -0.292  -2.955  0.00  0.00    -0.331 OA
ATOM      3  C   UNL     1      -2.984  -0.424  -3.885  0.00  0.00    +0.179 C 
ATOM      4  C   UNL     1      -1.862  -1.425  -3.485  0.00  0.00    +0.177 C 
ATOM      5  C   UNL     1      -2.140  -1.988  -2.088  0.00  0.00    +0.187 C 
ATOM      6  C   UNL     1      -2.384  -0.739  -1.214  0.00  0.00    +0.214 C 
ENDROOT
BRANCH   6   7
ATOM      7  O   UNL     1      -2.184  -0.891   0.187  0.00  0.00    -0.383 OA
ATOM      8  H   UNL     1      -2.968  -1.333   0.573  0.00  0.00    +0.210 HD
ENDBRANCH   6   7
BRANCH   4   9
ATOM      9  O   UNL     1      -0.567  -0.811  -3.511  0.00  0.00    -0.386 OA
ATOM     10  H   UNL     1       0.032  -1.392  -3.001  0.00  0.00    +0.210 HD
ENDBRANCH   4   9
BRANCH   5  11
ATOM     11  O   UNL     1      -1.110  -2.889  -1.677  0.00  0.00    -0.340 OA
BRANCH  11  12
ATOM     12  C   UNL     1      -1.630  -3.911  -0.803  0.00  0.00    +0.282 C 
ATOM     13  O   UNL     1      -1.630  -3.511   0.562  0.00  0.00    -0.341 OA
ATOM     14  C   UNL     1      -0.324  -3.149   1.042  0.00  0.00    +0.178 C 
ATOM     15  C   UNL     1       0.672  -4.316   0.903  0.00  0.00    +0.177 C 
ATOM     16  C   UNL     1       0.627  -4.929  -0.504  0.00  0.00    +0.179 C 
ATOM     17  C   UNL     1      -0.813  -5.202  -0.943  0.00  0.00    +0.201 C 
BRANCH  17  18
ATOM     18  O   UNL     1      -1.364  -6.259  -0.131  0.00  0.00    -0.384 OA
ATOM     19  H   UNL     1      -1.382  -5.913   0.791  0.00  0.00    +0.210 HD
ENDBRANCH  17  18
BRANCH  16  20
ATOM     20  O   UNL     1       1.370  -6.160  -0.500  0.00  0.00    -0.386 OA
ATOM     21  H   UNL     1       0.706  -6.871  -0.384  0.00  0.00    +0.210 HD
ENDBRANCH  16  20
BRANCH  15  22
ATOM     22  O   UNL     1       0.361  -5.347   1.859  0.00  0.00    -0.386 OA
ATOM     23  H   UNL     1       1.033  -6.041   1.709  0.00  0.00    +0.210 HD
ENDBRANCH  15  22
BRANCH  14  24
ATOM     24  C   UNL     1      -0.485  -2.696   2.497  0.00  0.00    +0.190 C 
BRANCH  24  25
ATOM     25  O   UNL     1       0.762  -2.308   3.065  0.00  0.00    -0.392 OA
ATOM     26  H   UNL     1       1.223  -3.133   3.301  0.00  0.00    +0.210 HD
ENDBRANCH  24  25
ENDBRANCH  14  24
ENDBRANCH  11  12
ENDBRANCH   5  11
BRANCH   3  27
ATOM     27  C   UNL     1      -2.461   0.937  -4.380  0.00  0.00    +0.190 C 
BRANCH  27  28
ATOM     28  O   UNL     1      -3.529   1.802  -4.763  0.00  0.00    -0.392 OA
ATOM     29  H   UNL     1      -4.325   1.510  -4.279  0.00  0.00    +0.210 HD
ENDBRANCH  27  28
ENDBRANCH   3  27
BRANCH   1  30
ATOM     30  O   UNL     1      -4.577  -1.369  -0.827  0.00  0.00    -0.453 OA
BRANCH  30  41
ATOM     31  C   UNL     1      -6.203  -2.914  -1.890  0.00  0.00    +0.181 A 
ATOM     32  O   UNL     1      -7.263  -3.809  -1.667  0.00  0.00    -0.451 OA
ATOM     33  C   UNL     1      -7.647  -4.078  -0.373  0.00  0.00    +0.147 A 
ATOM     34  C   UNL     1      -6.817  -3.812   0.706  0.00  0.00    +0.109 A 
ATOM     35  C   UNL     1      -7.161  -4.218   2.003  0.00  0.00    +0.135 A 
ATOM     36  C   UNL     1      -8.401  -4.790   2.246  0.00  0.00    +0.091 A 
ATOM     37  C   UNL     1      -9.279  -4.951   1.179  0.00  0.00    +0.124 A 
ATOM     38  C   UNL     1      -5.634  -3.005   0.453  0.00  0.00    +0.238 A 
ATOM     39  O   UNL     1      -4.812  -2.828   1.352  0.00  0.00    -0.283 OA
ATOM     40  C   UNL     1      -8.899  -4.642  -0.133  0.00  0.00    +0.092 A 
ATOM     41  C   UNL     1      -5.477  -2.362  -0.890  0.00  0.00    +0.214 A 
BRANCH  31  43
ATOM     42  C   UNL     1      -5.143  -3.425  -4.108  0.00  0.00    +0.015 A 
ATOM     43  C   UNL     1      -6.014  -2.644  -3.325  0.00  0.00    +0.025 A 
ATOM     44  C   UNL     1      -6.733  -1.619  -3.936  0.00  0.00    +0.060 A 
ATOM     45  C   UNL     1      -6.494  -1.320  -5.270  0.00  0.00    +0.159 A 
ATOM     46  C   UNL     1      -5.562  -2.037  -6.018  0.00  0.00    +0.158 A 
ATOM     47  C   UNL     1      -4.896  -3.122  -5.456  0.00  0.00    +0.050 A 
BRANCH  46  48
ATOM     48  O   UNL     1      -5.301  -1.597  -7.287  0.00  0.00    -0.503 OA
ATOM     49  H   UNL     1      -4.449  -1.969  -7.577  0.00  0.00    +0.292 HD
ENDBRANCH  46  48
BRANCH  45  50
ATOM     50  O   UNL     1      -7.155  -0.269  -5.835  0.00  0.00    -0.503 OA
ATOM     51  H   UNL     1      -6.821  -0.226  -6.754  0.00  0.00    +0.292 HD
ENDBRANCH  45  50
ENDBRANCH  31  43
BRANCH  37  52
ATOM     52  O   UNL     1     -10.546  -5.410   1.388  0.00  0.00    -0.507 OA
ATOM     53  H   UNL     1     -10.733  -5.388   2.344  0.00  0.00    +0.292 HD
ENDBRANCH  37  52
BRANCH  35  54
ATOM     54  O   UNL     1      -6.338  -4.056   3.085  0.00  0.00    -0.506 OA
ATOM     55  H   UNL     1      -5.511  -3.620   2.779  0.00  0.00    +0.292 HD
ENDBRANCH  35  54
ENDBRANCH  30  41
ENDBRANCH   1  30
TORSDOF 18
