REMARK  Name = 
REMARK  26 active torsions:
REMARK  status: ('A' for Active; 'I' for Inactive)
REMARK    1  A    between atoms: C_2  and  O_72
REMARK    2  A    between atoms: C_4  and  O_71
REMARK    3  A    between atoms: C_5  and  O_59
REMARK    4  A    between atoms: C_6  and  O_9
REMARK    5  A    between atoms: O_9  and  C_10
REMARK    6  A    between atoms: C_11  and  O_58
REMARK    7  A    between atoms: C_13  and  O_57
REMARK    8  A    between atoms: C_15  and  C_55
REMARK    9  A    between atoms: C_17  and  O_19
REMARK   10  A    between atoms: O_19  and  C_20
REMARK   11  A    between atoms: C_21  and  C_47
REMARK   12  A    between atoms: C_25  and  O_32
REMARK   13  A    between atoms: C_27  and  O_31
REMARK   14  A    between atoms: O_32  and  C_33
REMARK   15  A    between atoms: C_35  and  O_46
REMARK   16  A    between atoms: C_36  and  O_45
REMARK   17  A    between atoms: C_37  and  O_44
REMARK   18  A    between atoms: C_39  and  C_42
REMARK   19  A    between atoms: C_42  and  O_43
REMARK   20  A    between atoms: C_49  and  O_54
REMARK   21  A    between atoms: C_50  and  O_53
REMARK   22  A    between atoms: C_55  and  O_56
REMARK   23  A    between atoms: O_59  and  C_60
REMARK   24  A    between atoms: C_60  and  C_62
REMARK   25  A    between atoms: C_63  and  C_64
REMARK   26  A    between atoms: C_67  and  O_70
REMARK                            x       y       z     vdW  Elec       q    Type
REMARK                         _______ _______ _______ _____ _____    ______ ____
ROOT
ATOM      1  C   UNL     1       3.652   0.418  -0.671  0.00  0.00    +0.214 A 
ATOM      2  C   UNL     1       4.981  -0.211  -0.280  0.00  0.00    +0.238 A 
ATOM      3  O   UNL     1       5.251  -1.382  -0.525  0.00  0.00    -0.283 OA
ATOM      4  C   UNL     1       5.933   0.596   0.517  0.00  0.00    +0.109 A 
ATOM      5  C   UNL     1       5.493   1.825   0.961  0.00  0.00    +0.147 A 
ATOM      6  C   UNL     1       6.277   2.621   1.806  0.00  0.00    +0.093 A 
ATOM      7  C   UNL     1       7.518   2.177   2.252  0.00  0.00    +0.131 A 
ATOM      8  C   UNL     1       8.001   0.956   1.764  0.00  0.00    +0.092 A 
ATOM      9  O   UNL     1       4.283   2.347   0.639  0.00  0.00    -0.451 OA
ATOM     10  C   UNL     1       7.217   0.179   0.895  0.00  0.00    +0.135 A 
ATOM     11  C   UNL     1       3.391   1.639  -0.150  0.00  0.00    +0.181 A 
ENDROOT
BRANCH  11  12
ATOM     12  C   UNL     1       2.097   2.392  -0.216  0.00  0.00    +0.025 A 
ATOM     13  C   UNL     1       2.122   3.797  -0.033  0.00  0.00    +0.015 A 
ATOM     14  C   UNL     1       0.958   4.533   0.208  0.00  0.00    +0.050 A 
ATOM     15  C   UNL     1      -0.251   3.873   0.250  0.00  0.00    +0.158 A 
ATOM     16  C   UNL     1      -0.316   2.498   0.025  0.00  0.00    +0.159 A 
ATOM     17  C   UNL     1       0.843   1.756  -0.211  0.00  0.00    +0.060 A 
BRANCH  16  18
ATOM     18  O   UNL     1      -1.545   1.900   0.115  0.00  0.00    -0.503 OA
ATOM     19  H   UNL     1      -1.436   0.965  -0.137  0.00  0.00    +0.292 HD
ENDBRANCH  16  18
BRANCH  15  20
ATOM     20  O   UNL     1      -1.384   4.569   0.561  0.00  0.00    -0.503 OA
ATOM     21  H   UNL     1      -2.093   3.896   0.575  0.00  0.00    +0.292 HD
ENDBRANCH  15  20
ENDBRANCH  11  12
BRANCH  10  22
ATOM     22  O   UNL     1       7.736  -0.993   0.418  0.00  0.00    -0.506 OA
ATOM     23  H   UNL     1       8.671  -1.077   0.663  0.00  0.00    +0.292 HD
ENDBRANCH  10  22
BRANCH   7  24
ATOM     24  O   UNL     1       8.326   2.848   3.139  0.00  0.00    -0.461 OA
BRANCH  24  25
ATOM     25  C   UNL     1       7.740   3.983   3.807  0.00  0.00    +0.339 C 
ATOM     26  O   UNL     1       7.540   5.089   2.926  0.00  0.00    -0.331 OA
ATOM     27  C   UNL     1       8.763   5.607   2.371  0.00  0.00    +0.179 C 
ATOM     28  C   UNL     1       9.726   6.088   3.468  0.00  0.00    +0.177 C 
ATOM     29  C   UNL     1       9.927   5.014   4.540  0.00  0.00    +0.180 C 
ATOM     30  C   UNL     1       8.585   4.450   5.012  0.00  0.00    +0.214 C 
BRANCH  30  31
ATOM     31  O   UNL     1       8.846   3.423   5.981  0.00  0.00    -0.383 OA
ATOM     32  H   UNL     1       8.027   2.910   6.105  0.00  0.00    +0.210 HD
ENDBRANCH  30  31
BRANCH  29  33
ATOM     33  O   UNL     1      10.612   5.620   5.655  0.00  0.00    -0.386 OA
ATOM     34  H   UNL     1      10.414   5.049   6.425  0.00  0.00    +0.210 HD
ENDBRANCH  29  33
BRANCH  28  35
ATOM     35  O   UNL     1       9.215   7.267   4.110  0.00  0.00    -0.386 OA
ATOM     36  H   UNL     1       9.792   7.395   4.892  0.00  0.00    +0.210 HD
ENDBRANCH  28  35
BRANCH  27  37
ATOM     37  C   UNL     1       8.390   6.749   1.414  0.00  0.00    +0.190 C 
BRANCH  37  38
ATOM     38  O   UNL     1       7.562   6.292   0.340  0.00  0.00    -0.392 OA
ATOM     39  H   UNL     1       7.876   5.416   0.062  0.00  0.00    +0.210 HD
ENDBRANCH  37  38
ENDBRANCH  27  37
ENDBRANCH  24  25
ENDBRANCH   7  24
BRANCH   1  40
ATOM     40  O   UNL     1       2.698  -0.240  -1.469  0.00  0.00    -0.453 OA
BRANCH  40  42
ATOM     41  C   UNL     1       2.510  -2.457  -0.406  0.00  0.00    +0.221 C 
ATOM     42  C   UNL     1       2.859  -1.651  -1.692  0.00  0.00    +0.340 C 
ATOM     43  O   UNL     1       2.035  -2.126  -2.784  0.00  0.00    -0.331 OA
ATOM     44  C   UNL     1       2.277  -3.519  -3.111  0.00  0.00    +0.179 C 
ATOM     45  C   UNL     1       2.045  -4.423  -1.883  0.00  0.00    +0.177 C 
ATOM     46  C   UNL     1       2.891  -3.917  -0.708  0.00  0.00    +0.180 C 
BRANCH  46  47
ATOM     47  O   UNL     1       2.754  -4.795   0.421  0.00  0.00    -0.386 OA
ATOM     48  H   UNL     1       3.474  -4.571   1.042  0.00  0.00    +0.210 HD
ENDBRANCH  46  47
BRANCH  45  49
ATOM     49  O   UNL     1       2.373  -5.788  -2.151  0.00  0.00    -0.386 OA
ATOM     50  H   UNL     1       2.354  -6.234  -1.280  0.00  0.00    +0.210 HD
ENDBRANCH  45  49
BRANCH  44  51
ATOM     51  C   UNL     1       3.667  -3.770  -3.752  0.00  0.00    +0.190 C 
BRANCH  51  52
ATOM     52  O   UNL     1       3.898  -2.915  -4.872  0.00  0.00    -0.392 OA
ATOM     53  H   UNL     1       3.120  -2.986  -5.454  0.00  0.00    +0.210 HD
ENDBRANCH  51  52
ENDBRANCH  44  51
BRANCH  41  54
ATOM     54  O   UNL     1       1.102  -2.263  -0.053  0.00  0.00    -0.336 OA
BRANCH  54  57
ATOM     55  C   UNL     1      -1.184  -3.837   2.285  0.00  0.00    +0.197 C 
ATOM     56  O   UNL     1      -0.752  -2.875   1.310  0.00  0.00    -0.345 OA
ATOM     57  C   UNL     1       0.671  -2.991   1.102  0.00  0.00    +0.294 C 
ATOM     58  C   UNL     1       1.380  -2.542   2.392  0.00  0.00    +0.263 C 
ATOM     59  C   UNL     1       1.023  -3.537   3.489  0.00  0.00    +0.191 C 
ATOM     60  C   UNL     1      -0.499  -3.656   3.651  0.00  0.00    +0.172 C 
BRANCH  60  61
ATOM     61  O   UNL     1      -0.784  -4.778   4.494  0.00  0.00    -0.387 OA
ATOM     62  H   UNL     1      -1.741  -4.812   4.643  0.00  0.00    +0.210 HD
ENDBRANCH  60  61
BRANCH  59  63
ATOM     63  O   UNL     1       1.662  -3.146   4.713  0.00  0.00    -0.385 OA
ATOM     64  H   UNL     1       1.263  -2.306   4.998  0.00  0.00    +0.210 HD
ENDBRANCH  59  63
BRANCH  58  65
ATOM     65  O   UNL     1       0.886  -1.233   2.792  0.00  0.00    -0.450 OA
BRANCH  65  66
ATOM     66  C   UNL     1       1.755  -0.196   2.715  0.00  0.00    +0.332 C 
ATOM     67  O   UNL     1       2.922  -0.256   2.370  0.00  0.00    -0.246 OA
BRANCH  66  68
ATOM     68  C   UNL     1       1.057   1.011   3.199  0.00  0.00    +0.092 C 
ATOM     69  C   UNL     1       1.736   2.156   3.359  0.00  0.00    +0.015 C 
BRANCH  69  70
ATOM     70  C   UNL     1       1.174   3.381   3.948  0.00  0.00    -0.025 A 
ATOM     71  C   UNL     1      -0.188   3.705   3.901  0.00  0.00    +0.011 A 
ATOM     72  C   UNL     1      -0.672   4.838   4.562  0.00  0.00    +0.046 A 
ATOM     73  C   UNL     1       0.204   5.655   5.262  0.00  0.00    +0.117 A 
ATOM     74  C   UNL     1       1.568   5.391   5.268  0.00  0.00    +0.046 A 
ATOM     75  C   UNL     1       2.050   4.261   4.602  0.00  0.00    +0.011 A 
BRANCH  73  76
ATOM     76  O   UNL     1      -0.317   6.711   5.948  0.00  0.00    -0.507 OA
ATOM     77  H   UNL     1       0.391   7.117   6.475  0.00  0.00    +0.292 HD
ENDBRANCH  73  76
ENDBRANCH  69  70
ENDBRANCH  66  68
ENDBRANCH  65  66
ENDBRANCH  58  65
ENDBRANCH  54  57
ENDBRANCH  41  54
ENDBRANCH  40  42
ENDBRANCH   1  40
TORSDOF 26
