REMARK  Name = 
REMARK  23 active torsions:
REMARK  status: ('A' for Active; 'I' for Inactive)
REMARK    1  A    between atoms: C_1  and  C_2
REMARK    2  A    between atoms: C_3  and  O_48
REMARK    3  A    between atoms: C_5  and  O_47
REMARK    4  A    between atoms: C_7  and  O_46
REMARK    5  A    between atoms: C_8  and  O_11
REMARK    6  A    between atoms: O_11  and  C_12
REMARK    7  A    between atoms: C_14  and  O_45
REMARK    8  A    between atoms: C_19  and  C_37
REMARK    9  A    between atoms: C_20  and  O_23
REMARK   10  A    between atoms: O_23  and  C_24
REMARK   11  A    between atoms: C_26  and  O_36
REMARK   12  A    between atoms: C_27  and  O_35
REMARK   13  A    between atoms: C_28  and  O_34
REMARK   14  A    between atoms: C_30  and  C_32
REMARK   15  A    between atoms: C_32  and  O_33
REMARK   16  A    between atoms: C_39  and  O_44
REMARK   17  A    between atoms: C_40  and  O_43
REMARK   18  A    between atoms: O_48  and  C_49
REMARK   19  A    between atoms: C_51  and  O_62
REMARK   20  A    between atoms: C_52  and  O_61
REMARK   21  A    between atoms: C_54  and  O_60
REMARK   22  A    between atoms: C_56  and  C_58
REMARK   23  A    between atoms: C_58  and  O_59
REMARK                            x       y       z     vdW  Elec       q    Type
REMARK                         _______ _______ _______ _____ _____    ______ ____
ROOT
ATOM      1  C   UNL     1       2.678   3.026  -3.278  0.00  0.00    +0.131 A 
ATOM      2  C   UNL     1       1.435   3.521  -2.870  0.00  0.00    +0.093 A 
ATOM      3  C   UNL     1       1.257   4.897  -2.706  0.00  0.00    +0.147 A 
ATOM      4  O   UNL     1       0.035   5.357  -2.270  0.00  0.00    -0.451 OA
ATOM      5  C   UNL     1      -0.234   6.733  -2.323  0.00  0.00    +0.181 A 
ATOM      6  C   UNL     1       0.728   7.677  -2.501  0.00  0.00    +0.214 A 
ATOM      7  C   UNL     1       2.130   7.139  -2.495  0.00  0.00    +0.238 A 
ATOM      8  O   UNL     1       3.083   7.749  -2.030  0.00  0.00    -0.283 OA
ATOM      9  C   UNL     1       2.314   5.762  -2.931  0.00  0.00    +0.109 A 
ATOM     10  C   UNL     1       3.531   5.281  -3.422  0.00  0.00    +0.135 A 
ATOM     11  C   UNL     1       3.712   3.914  -3.587  0.00  0.00    +0.092 A 
ENDROOT
BRANCH   5  12
ATOM     12  C   UNL     1      -1.682   7.030  -2.091  0.00  0.00    +0.025 A 
ATOM     13  C   UNL     1      -2.677   6.100  -2.464  0.00  0.00    +0.015 A 
ATOM     14  C   UNL     1      -4.032   6.319  -2.174  0.00  0.00    +0.050 A 
ATOM     15  C   UNL     1      -4.406   7.477  -1.512  0.00  0.00    +0.158 A 
ATOM     16  C   UNL     1      -3.449   8.406  -1.130  0.00  0.00    +0.159 A 
ATOM     17  C   UNL     1      -2.100   8.179  -1.397  0.00  0.00    +0.060 A 
BRANCH  16  18
ATOM     18  O   UNL     1      -3.882   9.530  -0.482  0.00  0.00    -0.503 OA
ATOM     19  H   UNL     1      -3.110  10.075  -0.245  0.00  0.00    +0.292 HD
ENDBRANCH  16  18
BRANCH  15  20
ATOM     20  O   UNL     1      -5.722   7.690  -1.220  0.00  0.00    -0.503 OA
ATOM     21  H   UNL     1      -5.732   8.539  -0.733  0.00  0.00    +0.292 HD
ENDBRANCH  15  20
ENDBRANCH   5  12
BRANCH  10  22
ATOM     22  O   UNL     1       4.539   6.134  -3.760  0.00  0.00    -0.506 OA
ATOM     23  H   UNL     1       5.369   5.638  -3.848  0.00  0.00    +0.292 HD
ENDBRANCH  10  22
BRANCH   6  24
ATOM     24  O   UNL     1       0.439   9.041  -2.647  0.00  0.00    -0.453 OA
BRANCH  24  25
ATOM     25  C   UNL     1       1.505   9.974  -2.396  0.00  0.00    +0.340 C 
ATOM     26  O   UNL     1       1.615  10.277  -1.002  0.00  0.00    -0.331 OA
ATOM     27  C   UNL     1       0.611  11.155  -0.488  0.00  0.00    +0.179 C 
ATOM     28  C   UNL     1       0.655  12.501  -1.217  0.00  0.00    +0.177 C 
ATOM     29  C   UNL     1       0.396  12.262  -2.707  0.00  0.00    +0.180 C 
ATOM     30  C   UNL     1       1.395  11.252  -3.265  0.00  0.00    +0.214 C 
BRANCH  29  31
ATOM     31  O   UNL     1       0.481  13.524  -3.390  0.00  0.00    -0.386 OA
ATOM     32  H   UNL     1       1.418  13.729  -3.548  0.00  0.00    +0.210 HD
ENDBRANCH  29  31
BRANCH  30  33
ATOM     33  O   UNL     1       1.116  10.956  -4.637  0.00  0.00    -0.383 OA
ATOM     34  H   UNL     1       0.239  10.534  -4.679  0.00  0.00    +0.210 HD
ENDBRANCH  30  33
BRANCH  28  35
ATOM     35  O   UNL     1      -0.317  13.402  -0.670  0.00  0.00    -0.386 OA
ATOM     36  H   UNL     1      -0.880  13.712  -1.407  0.00  0.00    +0.210 HD
ENDBRANCH  28  35
BRANCH  27  37
ATOM     37  C   UNL     1       0.826  11.319   1.026  0.00  0.00    +0.190 C 
BRANCH  37  38
ATOM     38  O   UNL     1      -0.159  12.150   1.633  0.00  0.00    -0.392 OA
ATOM     39  H   UNL     1      -0.198  12.976   1.102  0.00  0.00    +0.210 HD
ENDBRANCH  37  38
ENDBRANCH  27  37
ENDBRANCH  24  25
ENDBRANCH   6  24
BRANCH   1  40
ATOM     40  O   UNL     1       3.049   1.721  -3.408  0.00  0.00    -0.461 OA
BRANCH  40  44
ATOM     41  C   UNL     1      -0.656   0.078  -1.970  0.00  0.00    +0.041 C 
ATOM     42  C   UNL     1       0.706  -0.201  -1.331  0.00  0.00    +0.151 C 
ATOM     43  O   UNL     1       1.678   0.777  -1.715  0.00  0.00    -0.334 OA
ATOM     44  C   UNL     1       2.102   0.705  -3.084  0.00  0.00    +0.339 C 
ATOM     45  C   UNL     1       2.764  -0.664  -3.363  0.00  0.00    +0.214 C 
ATOM     46  C   UNL     1       1.729  -1.752  -3.051  0.00  0.00    +0.180 C 
ATOM     47  C   UNL     1       1.218  -1.631  -1.598  0.00  0.00    +0.181 C 
BRANCH  46  48
ATOM     48  O   UNL     1       2.261  -3.060  -3.301  0.00  0.00    -0.386 OA
ATOM     49  H   UNL     1       1.610  -3.719  -3.002  0.00  0.00    +0.210 HD
ENDBRANCH  46  48
BRANCH  45  50
ATOM     50  O   UNL     1       3.959  -0.837  -2.579  0.00  0.00    -0.383 OA
ATOM     51  H   UNL     1       3.686  -0.861  -1.640  0.00  0.00    +0.210 HD
ENDBRANCH  45  50
BRANCH  47  52
ATOM     52  O   UNL     1       2.299  -2.032  -0.719  0.00  0.00    -0.340 OA
BRANCH  52  53
ATOM     53  C   UNL     1       2.039  -2.045   0.696  0.00  0.00    +0.282 C 
ATOM     54  O   UNL     1       3.241  -2.410   1.393  0.00  0.00    -0.341 OA
ATOM     55  C   UNL     1       3.692  -3.760   1.169  0.00  0.00    +0.178 C 
ATOM     56  C   UNL     1       2.591  -4.807   1.470  0.00  0.00    +0.177 C 
ATOM     57  C   UNL     1       1.281  -4.440   0.766  0.00  0.00    +0.179 C 
ATOM     58  C   UNL     1       0.896  -2.994   1.125  0.00  0.00    +0.201 C 
BRANCH  58  59
ATOM     59  O   UNL     1      -0.373  -2.641   0.559  0.00  0.00    -0.384 OA
ATOM     60  H   UNL     1      -0.668  -3.400   0.021  0.00  0.00    +0.210 HD
ENDBRANCH  58  59
BRANCH  57  61
ATOM     61  O   UNL     1       1.374  -4.619  -0.657  0.00  0.00    -0.386 OA
ATOM     62  H   UNL     1       2.109  -4.045  -0.972  0.00  0.00    +0.210 HD
ENDBRANCH  57  61
BRANCH  56  63
ATOM     63  O   UNL     1       2.350  -4.882   2.881  0.00  0.00    -0.386 OA
ATOM     64  H   UNL     1       1.659  -5.548   3.045  0.00  0.00    +0.210 HD
ENDBRANCH  56  63
BRANCH  55  65
ATOM     65  C   UNL     1       4.931  -4.033   2.047  0.00  0.00    +0.190 C 
BRANCH  65  66
ATOM     66  O   UNL     1       6.024  -3.165   1.749  0.00  0.00    -0.392 OA
ATOM     67  H   UNL     1       6.067  -3.040   0.787  0.00  0.00    +0.210 HD
ENDBRANCH  65  66
ENDBRANCH  55  65
ENDBRANCH  52  53
ENDBRANCH  47  52
ENDBRANCH  40  44
ENDBRANCH   1  40
TORSDOF 22
