REMARK  Name = 
REMARK  14 active torsions:
REMARK  status: ('A' for Active; 'I' for Inactive)
REMARK    1  A    between atoms: C_1  and  C_2
REMARK    2  A    between atoms: C_2  and  O_4
REMARK    3  A    between atoms: O_4  and  C_5
REMARK    4  A    between atoms: C_5  and  C_6
REMARK    5  A    between atoms: C_8  and  O_39
REMARK    6  A    between atoms: C_10  and  O_38
REMARK    7  A    between atoms: C_11  and  O_37
REMARK    8  A    between atoms: C_12  and  O_15
REMARK    9  A    between atoms: O_15  and  C_16
REMARK   10  A    between atoms: C_17  and  C_29
REMARK   11  A    between atoms: C_21  and  O_28
REMARK   12  A    between atoms: C_23  and  O_27
REMARK   13  A    between atoms: C_31  and  O_36
REMARK   14  A    between atoms: C_32  and  O_35
REMARK                            x       y       z     vdW  Elec       q    Type
REMARK                         _______ _______ _______ _____ _____    ______ ____
ROOT
ATOM      1  C   UNL     1       8.476  -1.841  -0.990  0.00  0.00    +0.214 A 
ATOM      2  C   UNL     1       7.946  -0.438  -0.997  0.00  0.00    +0.238 A 
ATOM      3  O   UNL     1       6.743  -0.216  -1.020  0.00  0.00    -0.283 OA
ATOM      4  C   UNL     1       8.916   0.665  -1.013  0.00  0.00    +0.109 A 
ATOM      5  C   UNL     1      10.267   0.339  -1.071  0.00  0.00    +0.147 A 
ATOM      6  C   UNL     1      11.234   1.349  -1.112  0.00  0.00    +0.092 A 
ATOM      7  C   UNL     1      10.832   2.682  -1.093  0.00  0.00    +0.124 A 
ATOM      8  C   UNL     1       9.488   3.024  -1.030  0.00  0.00    +0.091 A 
ATOM      9  O   UNL     1      10.723  -0.953  -1.098  0.00  0.00    -0.451 OA
ATOM     10  C   UNL     1       8.529   2.015  -0.989  0.00  0.00    +0.135 A 
ATOM     11  C   UNL     1       9.817  -2.011  -1.032  0.00  0.00    +0.181 A 
ENDROOT
BRANCH  11  12
ATOM     12  C   UNL     1      10.507  -3.345  -1.039  0.00  0.00    +0.025 A 
ATOM     13  C   UNL     1      11.779  -3.473  -1.642  0.00  0.00    +0.015 A 
ATOM     14  C   UNL     1      12.483  -4.687  -1.633  0.00  0.00    +0.050 A 
ATOM     15  C   UNL     1      11.917  -5.793  -1.027  0.00  0.00    +0.158 A 
ATOM     16  C   UNL     1      10.662  -5.705  -0.440  0.00  0.00    +0.159 A 
ATOM     17  C   UNL     1       9.968  -4.495  -0.427  0.00  0.00    +0.060 A 
BRANCH  15  18
ATOM     18  O   UNL     1      12.603  -6.973  -1.006  0.00  0.00    -0.503 OA
ATOM     19  H   UNL     1      12.020  -7.587  -0.512  0.00  0.00    +0.292 HD
ENDBRANCH  15  18
BRANCH  16  20
ATOM     20  O   UNL     1      10.145  -6.840   0.124  0.00  0.00    -0.503 OA
ATOM     21  H   UNL     1       9.213  -6.668   0.348  0.00  0.00    +0.292 HD
ENDBRANCH  16  20
ENDBRANCH  11  12
BRANCH   7  22
ATOM     22  O   UNL     1      11.729   3.706  -1.136  0.00  0.00    -0.507 OA
ATOM     23  H   UNL     1      12.629   3.345  -1.179  0.00  0.00    +0.292 HD
ENDBRANCH   7  22
BRANCH  10  24
ATOM     24  O   UNL     1       7.213   2.369  -0.922  0.00  0.00    -0.506 OA
ATOM     25  H   UNL     1       7.111   3.333  -0.970  0.00  0.00    +0.292 HD
ENDBRANCH  10  24
BRANCH   1  26
ATOM     26  O   UNL     1       7.609  -2.923  -0.913  0.00  0.00    -0.453 OA
BRANCH  26  29
ATOM     27  C   UNL     1       4.068  -2.167  -1.243  0.00  0.00    +0.191 C 
ATOM     28  O   UNL     1       5.313  -2.472  -0.578  0.00  0.00    -0.330 OA
ATOM     29  C   UNL     1       6.332  -2.806  -1.546  0.00  0.00    +0.340 C 
ATOM     30  C   UNL     1       5.968  -4.187  -2.128  0.00  0.00    +0.214 C 
ATOM     31  C   UNL     1       4.578  -4.084  -2.782  0.00  0.00    +0.180 C 
ATOM     32  C   UNL     1       3.522  -3.482  -1.831  0.00  0.00    +0.178 C 
BRANCH  30  33
ATOM     33  O   UNL     1       5.958  -5.194  -1.090  0.00  0.00    -0.383 OA
ATOM     34  H   UNL     1       5.795  -4.720  -0.254  0.00  0.00    +0.210 HD
ENDBRANCH  30  33
BRANCH  31  35
ATOM     35  O   UNL     1       4.153  -5.369  -3.237  0.00  0.00    -0.386 OA
ATOM     36  H   UNL     1       4.070  -5.904  -2.421  0.00  0.00    +0.210 HD
ENDBRANCH  31  35
BRANCH  32  37
ATOM     37  O   UNL     1       3.216  -4.430  -0.793  0.00  0.00    -0.386 OA
ATOM     38  H   UNL     1       3.711  -4.178   0.007  0.00  0.00    +0.210 HD
ENDBRANCH  32  37
BRANCH  27  39
ATOM     39  C   UNL     1       3.093  -1.511  -0.253  0.00  0.00    +0.266 C 
BRANCH  39  40
ATOM     40  O   UNL     1       1.814  -1.251  -0.860  0.00  0.00    -0.462 OA
BRANCH  40  42
ATOM     41  C   UNL     1       0.380  -0.009  -2.244  0.00  0.00    +0.136 C 
ATOM     42  C   UNL     1       1.738  -0.126  -1.622  0.00  0.00    +0.304 C 
ATOM     43  O   UNL     1       2.654   0.657  -1.823  0.00  0.00    -0.251 OA
ENDBRANCH  40  42
ENDBRANCH  39  40
ENDBRANCH  27  39
ENDBRANCH  26  29
ENDBRANCH   1  26
TORSDOF 13
