REMARK  Name = 
REMARK  14 active torsions:
REMARK  status: ('A' for Active; 'I' for Inactive)
REMARK    1  A    between atoms: C_1  and  O_2
REMARK    2  A    between atoms: O_2  and  C_3
REMARK    3  A    between atoms: C_5  and  O_37
REMARK    4  A    between atoms: C_10  and  C_16
REMARK    5  A    between atoms: C_11  and  O_14
REMARK    6  A    between atoms: O_14  and  C_15
REMARK    7  A    between atoms: C_18  and  O_36
REMARK    8  A    between atoms: C_19  and  O_22
REMARK    9  A    between atoms: O_22  and  C_23
REMARK   10  A    between atoms: C_25  and  O_35
REMARK   11  A    between atoms: C_26  and  O_34
REMARK   12  A    between atoms: C_27  and  O_33
REMARK   13  A    between atoms: C_29  and  C_31
REMARK   14  A    between atoms: C_31  and  O_32
REMARK                            x       y       z     vdW  Elec       q    Type
REMARK                         _______ _______ _______ _____ _____    ______ ____
ROOT
ATOM      1  C   UNL     1       3.024   6.573  -2.671  0.00  0.00    +0.025 A 
ATOM      2  C   UNL     1       3.885   7.396  -1.934  0.00  0.00    +0.015 A 
ATOM      3  C   UNL     1       3.638   8.764  -1.821  0.00  0.00    +0.050 A 
ATOM      4  C   UNL     1       2.531   9.329  -2.448  0.00  0.00    +0.165 A 
ATOM      5  C   UNL     1       1.623   8.495  -3.117  0.00  0.00    +0.159 A 
ATOM      6  C   UNL     1       1.866   7.121  -3.238  0.00  0.00    +0.060 A 
ENDROOT
BRANCH   1  11
ATOM      7  C   UNL     1       3.594   1.020  -0.506  0.00  0.00    +0.127 A 
ATOM      8  C   UNL     1       3.226   2.359  -0.609  0.00  0.00    +0.092 A 
ATOM      9  C   UNL     1       3.530   3.081  -1.766  0.00  0.00    +0.147 A 
ATOM     10  O   UNL     1       3.115   4.385  -1.768  0.00  0.00    -0.451 OA
ATOM     11  C   UNL     1       3.407   5.164  -2.862  0.00  0.00    +0.181 A 
ATOM     12  C   UNL     1       4.061   4.758  -3.973  0.00  0.00    +0.211 A 
ATOM     13  C   UNL     1       4.511   3.320  -4.015  0.00  0.00    +0.238 A 
ATOM     14  O   UNL     1       5.092   2.856  -4.988  0.00  0.00    -0.283 OA
ATOM     15  C   UNL     1       4.219   2.490  -2.822  0.00  0.00    +0.109 A 
ATOM     16  C   UNL     1       4.615   1.150  -2.699  0.00  0.00    +0.135 A 
ATOM     17  C   UNL     1       4.308   0.422  -1.544  0.00  0.00    +0.092 A 
BRANCH   7  19
ATOM     18  C   UNL     1       2.146   0.562   1.290  0.00  0.00    +0.277 C 
ATOM     19  O   UNL     1       3.333   0.225   0.574  0.00  0.00    -0.495 OA
ENDBRANCH   7  19
BRANCH  12  20
ATOM     20  O   UNL     1       4.292   5.673  -4.991  0.00  0.00    -0.488 OA
ATOM     21  C   UNL     1       5.115   5.279  -6.080  0.00  0.00    +0.277 C 
ENDBRANCH  12  20
BRANCH  16  22
ATOM     22  O   UNL     1       5.303   0.525  -3.700  0.00  0.00    -0.506 OA
ATOM     23  H   UNL     1       5.515  -0.386  -3.447  0.00  0.00    +0.292 HD
ENDBRANCH  16  22
ENDBRANCH   1  11
BRANCH   5  24
ATOM     24  O   UNL     1       0.501   9.036  -3.680  0.00  0.00    -0.503 OA
ATOM     25  H   UNL     1      -0.052   8.323  -4.043  0.00  0.00    +0.292 HD
ENDBRANCH   5  24
BRANCH   4  26
ATOM     26  O   UNL     1       2.260  10.668  -2.355  0.00  0.00    -0.457 OA
BRANCH  26  27
ATOM     27  C   UNL     1       3.365  11.551  -2.638  0.00  0.00    +0.339 C 
ATOM     28  O   UNL     1       4.231  11.781  -1.520  0.00  0.00    -0.331 OA
ATOM     29  C   UNL     1       3.595  12.372  -0.370  0.00  0.00    +0.179 C 
ATOM     30  C   UNL     1       2.690  13.588  -0.684  0.00  0.00    +0.177 C 
ATOM     31  C   UNL     1       1.896  13.430  -1.981  0.00  0.00    +0.180 C 
ATOM     32  C   UNL     1       2.809  12.915  -3.095  0.00  0.00    +0.214 C 
BRANCH  30  33
ATOM     33  O   UNL     1       3.463  14.795  -0.802  0.00  0.00    -0.386 OA
ATOM     34  H   UNL     1       2.843  15.445  -1.199  0.00  0.00    +0.210 HD
ENDBRANCH  30  33
BRANCH  31  35
ATOM     35  O   UNL     1       1.345  14.709  -2.350  0.00  0.00    -0.386 OA
ATOM     36  H   UNL     1       1.036  14.582  -3.271  0.00  0.00    +0.210 HD
ENDBRANCH  31  35
BRANCH  32  37
ATOM     37  O   UNL     1       2.055  12.871  -4.315  0.00  0.00    -0.383 OA
ATOM     38  H   UNL     1       2.492  12.237  -4.910  0.00  0.00    +0.210 HD
ENDBRANCH  32  37
BRANCH  29  39
ATOM     39  C   UNL     1       4.716  12.784   0.612  0.00  0.00    +0.190 C 
BRANCH  39  40
ATOM     40  O   UNL     1       5.554  11.694   1.001  0.00  0.00    -0.392 OA
ATOM     41  H   UNL     1       5.064  10.869   0.860  0.00  0.00    +0.210 HD
ENDBRANCH  39  40
ENDBRANCH  29  39
ENDBRANCH  26  27
ENDBRANCH   4  26
TORSDOF 12
