REMARK  Name = 
REMARK  14 active torsions:
REMARK  status: ('A' for Active; 'I' for Inactive)
REMARK    1  A    between atoms: C_3  and  O_40
REMARK    2  A    between atoms: C_4  and  O_35
REMARK    3  A    between atoms: C_6  and  C_7
REMARK    4  A    between atoms: C_8  and  O_20
REMARK    5  A    between atoms: C_12  and  O_19
REMARK    6  A    between atoms: C_14  and  O_18
REMARK    7  A    between atoms: O_20  and  C_21
REMARK    8  A    between atoms: C_23  and  O_34
REMARK    9  A    between atoms: C_24  and  O_33
REMARK   10  A    between atoms: C_26  and  O_32
REMARK   11  A    between atoms: C_28  and  C_30
REMARK   12  A    between atoms: C_30  and  O_31
REMARK   13  A    between atoms: O_35  and  S_36
REMARK   14  A    between atoms: S_36  and  O_39
REMARK                            x       y       z     vdW  Elec       q    Type
REMARK                         _______ _______ _______ _____ _____    ______ ____
ROOT
ATOM      1  C   UNL     1      -1.278  -2.699   0.318  0.00  0.00    +0.181 A 
ATOM      2  O   UNL     1      -0.610  -3.893   0.479  0.00  0.00    -0.451 OA
ATOM      3  C   UNL     1      -1.218  -5.059   0.131  0.00  0.00    +0.147 A 
ATOM      4  C   UNL     1      -2.544  -5.119  -0.274  0.00  0.00    +0.109 A 
ATOM      5  C   UNL     1      -3.079  -6.388  -0.555  0.00  0.00    +0.135 A 
ATOM      6  C   UNL     1      -2.283  -7.545  -0.489  0.00  0.00    +0.091 A 
ATOM      7  C   UNL     1      -0.949  -7.441  -0.115  0.00  0.00    +0.124 A 
ATOM      8  C   UNL     1      -3.288  -3.829  -0.408  0.00  0.00    +0.238 A 
ATOM      9  O   UNL     1      -4.475  -3.830  -0.722  0.00  0.00    -0.283 OA
ATOM     10  C   UNL     1      -0.418  -6.204   0.212  0.00  0.00    +0.092 A 
ATOM     11  C   UNL     1      -2.525  -2.546  -0.158  0.00  0.00    +0.214 A 
ENDROOT
BRANCH   1  13
ATOM     12  C   UNL     1       0.681  -1.394  -0.237  0.00  0.00    +0.015 A 
ATOM     13  C   UNL     1      -0.374  -1.595   0.664  0.00  0.00    +0.025 A 
ATOM     14  C   UNL     1      -0.347  -0.995   1.933  0.00  0.00    +0.064 A 
ATOM     15  C   UNL     1       0.798  -0.288   2.321  0.00  0.00    +0.201 A 
ATOM     16  C   UNL     1       1.900  -0.228   1.463  0.00  0.00    +0.161 A 
ATOM     17  C   UNL     1       1.834  -0.731   0.169  0.00  0.00    +0.050 A 
BRANCH  16  18
ATOM     18  O   UNL     1       3.080   0.286   1.925  0.00  0.00    -0.503 OA
ATOM     19  H   UNL     1       3.801  -0.101   1.397  0.00  0.00    +0.292 HD
ENDBRANCH  16  18
BRANCH  15  20
ATOM     20  O   UNL     1       0.965   0.224   3.582  0.00  0.00    -0.321 OA
BRANCH  20  21
ATOM     21  S   UNL     1      -0.115   1.279   4.186  0.00  0.00    +0.251 S 
ATOM     22  O   UNL     1      -1.129   0.540   4.906  0.00  0.00    -0.108 OA
ATOM     23  O   UNL     1      -0.464   2.254   3.175  0.00  0.00    -0.108 OA
BRANCH  21  24
ATOM     24  O   UNL     1       0.755   2.096   5.273  0.00  0.00    -0.222 OA
ATOM     25  H   UNL     1       1.232   2.809   4.800  0.00  0.00    +0.248 HD
ENDBRANCH  21  24
ENDBRANCH  20  21
ENDBRANCH  15  20
ENDBRANCH   1  13
BRANCH   5  26
ATOM     26  O   UNL     1      -4.384  -6.591  -0.910  0.00  0.00    -0.506 OA
ATOM     27  H   UNL     1      -4.868  -5.743  -0.834  0.00  0.00    +0.292 HD
ENDBRANCH   5  26
BRANCH   7  28
ATOM     28  O   UNL     1      -0.119  -8.509  -0.046  0.00  0.00    -0.507 OA
ATOM     29  H   UNL     1      -0.623  -9.307  -0.335  0.00  0.00    +0.292 HD
ENDBRANCH   7  28
BRANCH  11  30
ATOM     30  O   UNL     1      -3.123  -1.295  -0.122  0.00  0.00    -0.453 OA
BRANCH  30  31
ATOM     31  C   UNL     1      -3.566  -0.603  -1.308  0.00  0.00    +0.340 C 
ATOM     32  O   UNL     1      -3.024   0.736  -1.335  0.00  0.00    -0.331 OA
ATOM     33  C   UNL     1      -3.660   1.795  -0.560  0.00  0.00    +0.179 C 
ATOM     34  C   UNL     1      -5.081   1.567   0.065  0.00  0.00    +0.177 C 
ATOM     35  C   UNL     1      -5.549   0.113   0.020  0.00  0.00    +0.180 C 
ATOM     36  C   UNL     1      -5.095  -0.481  -1.328  0.00  0.00    +0.214 C 
BRANCH  34  37
ATOM     37  O   UNL     1      -6.083   2.365  -0.588  0.00  0.00    -0.386 OA
ATOM     38  H   UNL     1      -6.918   2.279  -0.088  0.00  0.00    +0.210 HD
ENDBRANCH  34  37
BRANCH  35  39
ATOM     39  O   UNL     1      -5.080  -0.570   1.188  0.00  0.00    -0.386 OA
ATOM     40  H   UNL     1      -4.105  -0.638   1.138  0.00  0.00    +0.210 HD
ENDBRANCH  35  39
BRANCH  36  41
ATOM     41  O   UNL     1      -5.785  -1.680  -1.661  0.00  0.00    -0.383 OA
ATOM     42  H   UNL     1      -5.262  -2.455  -1.375  0.00  0.00    +0.210 HD
ENDBRANCH  36  41
BRANCH  33  43
ATOM     43  C   UNL     1      -3.666   3.064  -1.454  0.00  0.00    +0.190 C 
BRANCH  43  44
ATOM     44  O   UNL     1      -2.378   3.347  -2.003  0.00  0.00    -0.392 OA
ATOM     45  H   UNL     1      -1.832   2.555  -1.857  0.00  0.00    +0.210 HD
ENDBRANCH  43  44
ENDBRANCH  33  43
ENDBRANCH  30  31
ENDBRANCH  11  30
TORSDOF 14
