REMARK  Name = 
REMARK  16 active torsions:
REMARK  status: ('A' for Active; 'I' for Inactive)
REMARK    1  A    between atoms: C_2  and  O_47
REMARK    2  A    between atoms: C_4  and  O_46
REMARK    3  A    between atoms: C_5  and  O_45
REMARK    4  A    between atoms: C_6  and  O_9
REMARK    5  A    between atoms: O_9  and  C_10
REMARK    6  A    between atoms: C_11  and  C_37
REMARK    7  A    between atoms: C_15  and  O_22
REMARK    8  A    between atoms: C_17  and  O_21
REMARK    9  A    between atoms: O_22  and  C_23
REMARK   10  A    between atoms: C_25  and  O_36
REMARK   11  A    between atoms: C_26  and  O_35
REMARK   12  A    between atoms: C_28  and  O_34
REMARK   13  A    between atoms: C_30  and  C_32
REMARK   14  A    between atoms: C_32  and  O_33
REMARK   15  A    between atoms: C_39  and  O_44
REMARK   16  A    between atoms: C_40  and  O_43
REMARK                            x       y       z     vdW  Elec       q    Type
REMARK                         _______ _______ _______ _____ _____    ______ ____
ROOT
ATOM      1  C   UNL     1       2.563  -2.582  -0.010  0.00  0.00    +0.214 A 
ATOM      2  C   UNL     1       3.531  -1.532  -0.490  0.00  0.00    +0.238 A 
ATOM      3  O   UNL     1       3.179  -0.389  -0.753  0.00  0.00    -0.283 OA
ATOM      4  C   UNL     1       4.910  -1.960  -0.770  0.00  0.00    +0.109 A 
ATOM      5  C   UNL     1       5.138  -3.318  -0.915  0.00  0.00    +0.147 A 
ATOM      6  C   UNL     1       6.402  -3.792  -1.284  0.00  0.00    +0.093 A 
ATOM      7  C   UNL     1       7.461  -2.905  -1.508  0.00  0.00    +0.131 A 
ATOM      8  C   UNL     1       7.232  -1.534  -1.358  0.00  0.00    +0.092 A 
ATOM      9  O   UNL     1       4.159  -4.257  -0.730  0.00  0.00    -0.451 OA
ATOM     10  C   UNL     1       5.970  -1.066  -0.975  0.00  0.00    +0.135 A 
ATOM     11  C   UNL     1       2.925  -3.869  -0.217  0.00  0.00    +0.181 A 
ENDROOT
BRANCH  11  12
ATOM     12  C   UNL     1       2.036  -5.050   0.002  0.00  0.00    +0.025 A 
ATOM     13  C   UNL     1       0.667  -5.010  -0.324  0.00  0.00    +0.015 A 
ATOM     14  C   UNL     1      -0.139  -6.151  -0.243  0.00  0.00    +0.050 A 
ATOM     15  C   UNL     1       0.426  -7.354   0.141  0.00  0.00    +0.158 A 
ATOM     16  C   UNL     1       1.777  -7.427   0.462  0.00  0.00    +0.159 A 
ATOM     17  C   UNL     1       2.583  -6.289   0.402  0.00  0.00    +0.060 A 
BRANCH  16  18
ATOM     18  O   UNL     1       2.275  -8.654   0.808  0.00  0.00    -0.503 OA
ATOM     19  H   UNL     1       3.232  -8.566   0.962  0.00  0.00    +0.292 HD
ENDBRANCH  16  18
BRANCH  15  20
ATOM     20  O   UNL     1      -0.352  -8.475   0.177  0.00  0.00    -0.503 OA
ATOM     21  H   UNL     1       0.260  -9.191   0.440  0.00  0.00    +0.292 HD
ENDBRANCH  15  20
ENDBRANCH  11  12
BRANCH  10  22
ATOM     22  O   UNL     1       5.798   0.275  -0.766  0.00  0.00    -0.506 OA
ATOM     23  H   UNL     1       6.555   0.775  -1.109  0.00  0.00    +0.292 HD
ENDBRANCH  10  22
BRANCH   7  24
ATOM     24  O   UNL     1       8.752  -3.256  -1.829  0.00  0.00    -0.461 OA
BRANCH  24  25
ATOM     25  C   UNL     1       8.968  -4.632  -2.191  0.00  0.00    +0.339 C 
ATOM     26  O   UNL     1       8.951  -5.497  -1.054  0.00  0.00    -0.331 OA
ATOM     27  C   UNL     1      10.085  -5.395  -0.175  0.00  0.00    +0.179 C 
ATOM     28  C   UNL     1      11.411  -5.625  -0.929  0.00  0.00    +0.177 C 
ATOM     29  C   UNL     1      11.519  -4.672  -2.129  0.00  0.00    +0.180 C 
ATOM     30  C   UNL     1      10.270  -4.793  -3.003  0.00  0.00    +0.214 C 
BRANCH  29  31
ATOM     31  O   UNL     1      11.756  -3.317  -1.717  0.00  0.00    -0.386 OA
ATOM     32  H   UNL     1      11.041  -3.024  -1.125  0.00  0.00    +0.210 HD
ENDBRANCH  29  31
BRANCH  30  33
ATOM     33  O   UNL     1      10.336  -3.875  -4.094  0.00  0.00    -0.383 OA
ATOM     34  H   UNL     1      10.646  -3.027  -3.724  0.00  0.00    +0.210 HD
ENDBRANCH  30  33
BRANCH  28  35
ATOM     35  O   UNL     1      11.461  -6.979  -1.397  0.00  0.00    -0.386 OA
ATOM     36  H   UNL     1      12.286  -7.107  -1.900  0.00  0.00    +0.210 HD
ENDBRANCH  28  35
BRANCH  27  37
ATOM     37  C   UNL     1       9.903  -6.455   0.929  0.00  0.00    +0.190 C 
BRANCH  37  38
ATOM     38  O   UNL     1       8.776  -6.170   1.760  0.00  0.00    -0.392 OA
ATOM     39  H   UNL     1       8.848  -5.253   2.067  0.00  0.00    +0.210 HD
ENDBRANCH  37  38
ENDBRANCH  27  37
ENDBRANCH  24  25
ENDBRANCH   7  24
BRANCH   1  40
ATOM     40  O   UNL     1       1.324  -2.260   0.551  0.00  0.00    -0.453 OA
BRANCH  40  43
ATOM     41  C   UNL     1       1.800   1.083   1.847  0.00  0.00    +0.198 C 
ATOM     42  O   UNL     1       1.955  -0.334   1.759  0.00  0.00    -0.337 OA
ATOM     43  C   UNL     1       1.044  -0.875   0.791  0.00  0.00    +0.339 C 
ATOM     44  C   UNL     1      -0.379  -0.726   1.373  0.00  0.00    +0.214 C 
ATOM     45  C   UNL     1      -0.681   0.767   1.596  0.00  0.00    +0.180 C 
ATOM     46  C   UNL     1       0.430   1.441   2.426  0.00  0.00    +0.171 C 
BRANCH  46  47
ATOM     47  O   UNL     1       0.268   2.860   2.430  0.00  0.00    -0.387 OA
ATOM     48  H   UNL     1       0.787   3.210   3.175  0.00  0.00    +0.210 HD
ENDBRANCH  46  47
BRANCH  45  49
ATOM     49  O   UNL     1      -1.944   0.888   2.270  0.00  0.00    -0.386 OA
ATOM     50  H   UNL     1      -1.950   0.176   2.941  0.00  0.00    +0.210 HD
ENDBRANCH  45  49
BRANCH  44  51
ATOM     51  O   UNL     1      -0.502  -1.388   2.655  0.00  0.00    -0.383 OA
ATOM     52  H   UNL     1       0.400  -1.672   2.904  0.00  0.00    +0.210 HD
ENDBRANCH  44  51
ENDBRANCH  40  43
ENDBRANCH   1  40
TORSDOF 16
