REMARK  Name = 
REMARK  18 active torsions:
REMARK  status: ('A' for Active; 'I' for Inactive)
REMARK    1  A    between atoms: C_1  and  C_2
REMARK    2  A    between atoms: C_3  and  O_49
REMARK    3  A    between atoms: C_5  and  O_48
REMARK    4  A    between atoms: C_7  and  O_47
REMARK    5  A    between atoms: C_8  and  O_11
REMARK    6  A    between atoms: O_11  and  C_12
REMARK    7  A    between atoms: C_12  and  C_13
REMARK    8  A    between atoms: C_14  and  O_46
REMARK    9  A    between atoms: C_16  and  O_45
REMARK   10  A    between atoms: C_17  and  O_44
REMARK   11  A    between atoms: C_18  and  O_21
REMARK   12  A    between atoms: O_21  and  C_22
REMARK   13  A    between atoms: C_23  and  C_36
REMARK   14  A    between atoms: C_27  and  O_34
REMARK   15  A    between atoms: C_29  and  O_33
REMARK   16  A    between atoms: O_34  and  C_35
REMARK   17  A    between atoms: C_38  and  O_43
REMARK   18  A    between atoms: C_39  and  O_42
REMARK                            x       y       z     vdW  Elec       q    Type
REMARK                         _______ _______ _______ _____ _____    ______ ____
ROOT
ATOM      1  C   UNL     1       3.224   3.804  -4.496  0.00  0.00    +0.179 C 
ATOM      2  O   UNL     1       3.725   4.808  -3.587  0.00  0.00    -0.331 OA
ATOM      3  C   UNL     1       2.811   5.785  -3.074  0.00  0.00    +0.340 C 
ATOM      4  C   UNL     1       1.954   6.451  -4.174  0.00  0.00    +0.214 C 
ATOM      5  C   UNL     1       1.227   5.334  -4.916  0.00  0.00    +0.180 C 
ATOM      6  C   UNL     1       2.245   4.390  -5.563  0.00  0.00    +0.177 C 
ENDROOT
BRANCH   6   7
ATOM      7  O   UNL     1       2.989   5.078  -6.588  0.00  0.00    -0.386 OA
ATOM      8  H   UNL     1       3.300   5.926  -6.204  0.00  0.00    +0.210 HD
ENDBRANCH   6   7
BRANCH   5   9
ATOM      9  O   UNL     1       0.336   5.888  -5.898  0.00  0.00    -0.386 OA
ATOM     10  H   UNL     1       0.898   6.396  -6.514  0.00  0.00    +0.210 HD
ENDBRANCH   5   9
BRANCH   4  11
ATOM     11  O   UNL     1       2.760   7.208  -5.102  0.00  0.00    -0.383 OA
ATOM     12  H   UNL     1       3.343   7.774  -4.556  0.00  0.00    +0.210 HD
ENDBRANCH   4  11
BRANCH   3  13
ATOM     13  O   UNL     1       3.548   6.848  -2.414  0.00  0.00    -0.453 OA
BRANCH  13  14
ATOM     14  C   UNL     1       3.904   6.737  -1.081  0.00  0.00    +0.214 A 
ATOM     15  C   UNL     1       3.393   5.670  -0.178  0.00  0.00    +0.238 A 
ATOM     16  O   UNL     1       2.843   4.671  -0.620  0.00  0.00    -0.283 OA
ATOM     17  C   UNL     1       3.735   5.737   1.244  0.00  0.00    +0.109 A 
ATOM     18  C   UNL     1       4.761   6.585   1.634  0.00  0.00    +0.147 A 
ATOM     19  C   UNL     1       5.271   6.519   2.936  0.00  0.00    +0.092 A 
ATOM     20  C   UNL     1       4.766   5.576   3.835  0.00  0.00    +0.127 A 
ATOM     21  C   UNL     1       3.717   4.740   3.446  0.00  0.00    +0.092 A 
ATOM     22  O   UNL     1       5.326   7.477   0.773  0.00  0.00    -0.451 OA
ATOM     23  C   UNL     1       3.166   4.869   2.176  0.00  0.00    +0.135 A 
ATOM     24  C   UNL     1       4.879   7.517  -0.543  0.00  0.00    +0.181 A 
BRANCH  24  25
ATOM     25  C   UNL     1       5.815   8.244  -1.391  0.00  0.00    +0.025 A 
ATOM     26  C   UNL     1       6.748   7.442  -2.104  0.00  0.00    +0.015 A 
ATOM     27  C   UNL     1       7.808   8.024  -2.781  0.00  0.00    +0.050 A 
ATOM     28  C   UNL     1       7.891   9.406  -2.834  0.00  0.00    +0.158 A 
ATOM     29  C   UNL     1       6.963  10.213  -2.181  0.00  0.00    +0.159 A 
ATOM     30  C   UNL     1       5.947   9.640  -1.412  0.00  0.00    +0.060 A 
BRANCH  29  31
ATOM     31  O   UNL     1       7.055  11.567  -2.327  0.00  0.00    -0.503 OA
ATOM     32  H   UNL     1       6.360  12.001  -1.810  0.00  0.00    +0.292 HD
ENDBRANCH  29  31
BRANCH  28  33
ATOM     33  O   UNL     1       8.889   9.958  -3.582  0.00  0.00    -0.503 OA
ATOM     34  H   UNL     1       8.643   9.772  -4.504  0.00  0.00    +0.292 HD
ENDBRANCH  28  33
ENDBRANCH  24  25
BRANCH  23  35
ATOM     35  O   UNL     1       1.997   4.233   1.887  0.00  0.00    -0.506 OA
ATOM     36  H   UNL     1       2.087   3.268   2.056  0.00  0.00    +0.292 HD
ENDBRANCH  23  35
BRANCH  20  37
ATOM     37  O   UNL     1       5.202   5.377   5.117  0.00  0.00    -0.495 OA
ATOM     38  C   UNL     1       6.032   6.389   5.676  0.00  0.00    +0.277 C 
ENDBRANCH  20  37
ENDBRANCH  13  14
ENDBRANCH   3  13
BRANCH   1  39
ATOM     39  C   UNL     1       2.589   2.550  -3.810  0.00  0.00    +0.197 C 
BRANCH  39  40
ATOM     40  O   UNL     1       3.468   1.590  -3.229  0.00  0.00    -0.346 OA
BRANCH  40  44
ATOM     41  C   UNL     1       6.212   0.373  -0.097  0.00  0.00    +0.041 C 
ATOM     42  C   UNL     1       4.819  -0.188  -0.366  0.00  0.00    +0.149 C 
ATOM     43  O   UNL     1       4.367   0.213  -1.667  0.00  0.00    -0.343 OA
ATOM     44  C   UNL     1       3.788   1.532  -1.834  0.00  0.00    +0.282 C 
ATOM     45  C   UNL     1       2.613   1.645  -0.819  0.00  0.00    +0.201 C 
ATOM     46  C   UNL     1       3.228   1.517   0.598  0.00  0.00    +0.179 C 
ATOM     47  C   UNL     1       3.859   0.137   0.784  0.00  0.00    +0.174 C 
BRANCH  47  48
ATOM     48  O   UNL     1       2.820  -0.851   0.896  0.00  0.00    -0.387 OA
ATOM     49  H   UNL     1       2.139  -0.618   0.223  0.00  0.00    +0.210 HD
ENDBRANCH  47  48
BRANCH  46  50
ATOM     50  O   UNL     1       2.276   1.738   1.661  0.00  0.00    -0.386 OA
ATOM     51  H   UNL     1       2.359   0.983   2.281  0.00  0.00    +0.210 HD
ENDBRANCH  46  50
BRANCH  45  52
ATOM     52  O   UNL     1       1.654   0.579  -1.025  0.00  0.00    -0.384 OA
ATOM     53  H   UNL     1       1.679   0.377  -1.981  0.00  0.00    +0.210 HD
ENDBRANCH  45  52
ENDBRANCH  40  44
ENDBRANCH  39  40
ENDBRANCH   1  39
TORSDOF 16
