REMARK  Name = 
REMARK  25 active torsions:
REMARK  status: ('A' for Active; 'I' for Inactive)
REMARK    1  A    between atoms: C_1  and  C_2
REMARK    2  A    between atoms: C_3  and  O_71
REMARK    3  A    between atoms: C_5  and  O_70
REMARK    4  A    between atoms: C_6  and  O_69
REMARK    5  A    between atoms: C_8  and  O_11
REMARK    6  A    between atoms: O_11  and  C_12
REMARK    7  A    between atoms: C_12  and  C_13
REMARK    8  A    between atoms: C_14  and  O_68
REMARK    9  A    between atoms: C_16  and  O_67
REMARK   10  A    between atoms: C_18  and  O_66
REMARK   11  A    between atoms: C_19  and  O_22
REMARK   12  A    between atoms: O_22  and  C_23
REMARK   13  A    between atoms: C_24  and  C_58
REMARK   14  A    between atoms: C_28  and  O_35
REMARK   15  A    between atoms: C_30  and  O_34
REMARK   16  A    between atoms: O_35  and  C_36
REMARK   17  A    between atoms: C_38  and  O_57
REMARK   18  A    between atoms: C_39  and  O_56
REMARK   19  A    between atoms: C_41  and  O_55
REMARK   20  A    between atoms: C_43  and  C_45
REMARK   21  A    between atoms: C_45  and  O_46
REMARK   22  A    between atoms: O_46  and  C_47
REMARK   23  A    between atoms: C_47  and  C_49
REMARK   24  A    between atoms: C_60  and  O_65
REMARK   25  A    between atoms: C_61  and  O_64
REMARK                            x       y       z     vdW  Elec       q    Type
REMARK                         _______ _______ _______ _____ _____    ______ ____
ROOT
ATOM      1  C   UNL     1       4.176   7.086  -0.954  0.00  0.00    +0.214 A 
ATOM      2  C   UNL     1       4.665   8.383  -0.361  0.00  0.00    +0.238 A 
ATOM      3  O   UNL     1       4.395   9.463  -0.886  0.00  0.00    -0.283 OA
ATOM      4  C   UNL     1       5.461   8.247   0.911  0.00  0.00    +0.109 A 
ATOM      5  C   UNL     1       5.229   7.115   1.683  0.00  0.00    +0.147 A 
ATOM      6  C   UNL     1       5.932   6.817   2.866  0.00  0.00    +0.093 A 
ATOM      7  C   UNL     1       6.934   7.673   3.327  0.00  0.00    +0.131 A 
ATOM      8  C   UNL     1       7.139   8.852   2.606  0.00  0.00    +0.092 A 
ATOM      9  O   UNL     1       4.265   6.229   1.315  0.00  0.00    -0.451 OA
ATOM     10  C   UNL     1       6.400   9.137   1.407  0.00  0.00    +0.135 A 
ATOM     11  C   UNL     1       4.059   6.085  -0.042  0.00  0.00    +0.181 A 
ENDROOT
BRANCH  11  12
ATOM     12  C   UNL     1       3.878   4.644  -0.287  0.00  0.00    +0.025 A 
ATOM     13  C   UNL     1       5.062   3.901  -0.477  0.00  0.00    +0.015 A 
ATOM     14  C   UNL     1       5.032   2.505  -0.540  0.00  0.00    +0.050 A 
ATOM     15  C   UNL     1       3.847   1.841  -0.266  0.00  0.00    +0.158 A 
ATOM     16  C   UNL     1       2.700   2.575   0.061  0.00  0.00    +0.159 A 
ATOM     17  C   UNL     1       2.700   3.970   0.002  0.00  0.00    +0.060 A 
BRANCH  16  18
ATOM     18  O   UNL     1       1.571   1.987   0.557  0.00  0.00    -0.503 OA
ATOM     19  H   UNL     1       1.403   1.194   0.024  0.00  0.00    +0.292 HD
ENDBRANCH  16  18
BRANCH  15  20
ATOM     20  O   UNL     1       3.824   0.475  -0.224  0.00  0.00    -0.503 OA
ATOM     21  H   UNL     1       4.748   0.164  -0.185  0.00  0.00    +0.292 HD
ENDBRANCH  15  20
ENDBRANCH  11  12
BRANCH  10  22
ATOM     22  O   UNL     1       6.652  10.315   0.761  0.00  0.00    -0.506 OA
ATOM     23  H   UNL     1       6.852  10.994   1.425  0.00  0.00    +0.292 HD
ENDBRANCH  10  22
BRANCH   7  24
ATOM     24  O   UNL     1       7.743   7.438   4.428  0.00  0.00    -0.461 OA
BRANCH  24  25
ATOM     25  C   UNL     1       7.292   6.420   5.358  0.00  0.00    +0.339 C 
ATOM     26  O   UNL     1       6.091   6.819   6.020  0.00  0.00    -0.330 OA
ATOM     27  C   UNL     1       6.304   7.948   6.896  0.00  0.00    +0.191 C 
ATOM     28  C   UNL     1       7.239   7.580   8.067  0.00  0.00    +0.178 C 
ATOM     29  C   UNL     1       8.579   7.042   7.523  0.00  0.00    +0.180 C 
ATOM     30  C   UNL     1       8.342   5.996   6.408  0.00  0.00    +0.214 C 
BRANCH  28  31
ATOM     31  O   UNL     1       6.612   6.593   8.893  0.00  0.00    -0.386 OA
ATOM     32  H   UNL     1       7.153   6.476   9.695  0.00  0.00    +0.210 HD
ENDBRANCH  28  31
BRANCH  30  33
ATOM     33  O   UNL     1       9.569   5.540   5.842  0.00  0.00    -0.383 OA
ATOM     34  H   UNL     1       9.914   6.272   5.305  0.00  0.00    +0.210 HD
ENDBRANCH  30  33
BRANCH  29  35
ATOM     35  O   UNL     1       9.447   8.084   7.066  0.00  0.00    -0.386 OA
ATOM     36  H   UNL     1       8.940   8.892   6.876  0.00  0.00    +0.210 HD
ENDBRANCH  29  35
BRANCH  27  37
ATOM     37  C   UNL     1       4.926   8.401   7.385  0.00  0.00    +0.266 C 
BRANCH  37  38
ATOM     38  O   UNL     1       4.131   8.871   6.275  0.00  0.00    -0.458 OA
BRANCH  38  39
ATOM     39  C   UNL     1       4.441  10.119   5.847  0.00  0.00    +0.339 C 
ATOM     40  O   UNL     1       5.288  10.846   6.333  0.00  0.00    -0.245 OA
BRANCH  39  41
ATOM     41  C   UNL     1       3.596  10.511   4.700  0.00  0.00    +0.059 A 
ATOM     42  C   UNL     1       3.404  11.882   4.475  0.00  0.00    +0.015 A 
ATOM     43  C   UNL     1       2.652  12.316   3.385  0.00  0.00    +0.001 A 
ATOM     44  C   UNL     1       2.092  11.381   2.513  0.00  0.00    +0.000 A 
ATOM     45  C   UNL     1       2.278  10.016   2.732  0.00  0.00    +0.001 A 
ATOM     46  C   UNL     1       3.029   9.577   3.827  0.00  0.00    +0.015 A 
ENDBRANCH  39  41
ENDBRANCH  38  39
ENDBRANCH  37  38
ENDBRANCH  27  37
ENDBRANCH  24  25
ENDBRANCH   7  24
BRANCH   1  47
ATOM     47  O   UNL     1       3.817   6.911  -2.283  0.00  0.00    -0.453 OA
BRANCH  47  50
ATOM     48  C   UNL     1       5.905   9.366  -4.282  0.00  0.00    +0.179 C 
ATOM     49  O   UNL     1       5.495   8.382  -3.298  0.00  0.00    -0.331 OA
ATOM     50  C   UNL     1       4.227   7.726  -3.424  0.00  0.00    +0.340 C 
ATOM     51  C   UNL     1       3.056   8.620  -3.939  0.00  0.00    +0.214 C 
ATOM     52  C   UNL     1       3.538   9.318  -5.219  0.00  0.00    +0.180 C 
ATOM     53  C   UNL     1       4.731  10.210  -4.870  0.00  0.00    +0.177 C 
BRANCH  53  54
ATOM     54  O   UNL     1       5.095  10.941  -6.055  0.00  0.00    -0.386 OA
ATOM     55  H   UNL     1       5.681  11.667  -5.771  0.00  0.00    +0.210 HD
ENDBRANCH  53  54
BRANCH  52  56
ATOM     56  O   UNL     1       2.506  10.097  -5.845  0.00  0.00    -0.386 OA
ATOM     57  H   UNL     1       2.969  10.671  -6.487  0.00  0.00    +0.210 HD
ENDBRANCH  52  56
BRANCH  51  58
ATOM     58  O   UNL     1       2.618   9.599  -2.982  0.00  0.00    -0.383 OA
ATOM     59  H   UNL     1       3.269   9.636  -2.254  0.00  0.00    +0.210 HD
ENDBRANCH  51  58
BRANCH  48  60
ATOM     60  C   UNL     1       6.836   8.869  -5.444  0.00  0.00    +0.197 C 
BRANCH  60  61
ATOM     61  O   UNL     1       7.937   8.004  -5.180  0.00  0.00    -0.346 OA
BRANCH  61  65
ATOM     62  C   UNL     1      10.730   7.571  -2.011  0.00  0.00    +0.041 C 
ATOM     63  C   UNL     1       9.884   8.832  -2.209  0.00  0.00    +0.149 C 
ATOM     64  O   UNL     1       8.773   8.618  -3.088  0.00  0.00    -0.343 OA
ATOM     65  C   UNL     1       9.088   8.459  -4.466  0.00  0.00    +0.282 C 
ATOM     66  C   UNL     1       9.891   9.666  -5.040  0.00  0.00    +0.201 C 
ATOM     67  C   UNL     1      11.124   9.920  -4.138  0.00  0.00    +0.179 C 
ATOM     68  C   UNL     1      10.719  10.039  -2.659  0.00  0.00    +0.174 C 
BRANCH  68  69
ATOM     69  O   UNL     1       9.956  11.249  -2.502  0.00  0.00    -0.387 OA
ATOM     70  H   UNL     1       9.148  11.137  -3.049  0.00  0.00    +0.210 HD
ENDBRANCH  68  69
BRANCH  67  71
ATOM     71  O   UNL     1      11.786  11.127  -4.549  0.00  0.00    -0.386 OA
ATOM     72  H   UNL     1      11.361  11.846  -4.035  0.00  0.00    +0.210 HD
ENDBRANCH  67  71
BRANCH  66  73
ATOM     73  O   UNL     1       9.102  10.873  -5.088  0.00  0.00    -0.384 OA
ATOM     74  H   UNL     1       9.569  11.457  -5.719  0.00  0.00    +0.210 HD
ENDBRANCH  66  73
ENDBRANCH  61  65
ENDBRANCH  60  61
ENDBRANCH  48  60
ENDBRANCH  47  50
ENDBRANCH   1  47
TORSDOF 24
