REMARK  Name = 
REMARK  14 active torsions:
REMARK  status: ('A' for Active; 'I' for Inactive)
REMARK    1  A    between atoms: C_1  and  C_2
REMARK    2  A    between atoms: C_2  and  O_4
REMARK    3  A    between atoms: O_4  and  C_5
REMARK    4  A    between atoms: C_5  and  C_6
REMARK    5  A    between atoms: C_8  and  O_39
REMARK    6  A    between atoms: C_10  and  O_38
REMARK    7  A    between atoms: C_11  and  O_37
REMARK    8  A    between atoms: C_12  and  O_15
REMARK    9  A    between atoms: O_15  and  C_16
REMARK   10  A    between atoms: C_17  and  C_29
REMARK   11  A    between atoms: C_21  and  O_28
REMARK   12  A    between atoms: C_23  and  O_27
REMARK   13  A    between atoms: C_31  and  O_36
REMARK   14  A    between atoms: C_32  and  O_35
REMARK                            x       y       z     vdW  Elec       q    Type
REMARK                         _______ _______ _______ _____ _____    ______ ____
ROOT
ATOM      1  C   UNL     1       6.389   3.705   2.457  0.00  0.00    +0.214 A 
ATOM      2  C   UNL     1       7.133   4.449   3.533  0.00  0.00    +0.238 A 
ATOM      3  O   UNL     1       6.952   5.641   3.738  0.00  0.00    -0.283 OA
ATOM      4  C   UNL     1       8.027   3.697   4.404  0.00  0.00    +0.109 A 
ATOM      5  C   UNL     1       7.816   2.332   4.483  0.00  0.00    +0.147 A 
ATOM      6  C   UNL     1       8.566   1.564   5.373  0.00  0.00    +0.092 A 
ATOM      7  C   UNL     1       9.511   2.190   6.188  0.00  0.00    +0.124 A 
ATOM      8  C   UNL     1       9.741   3.559   6.106  0.00  0.00    +0.091 A 
ATOM      9  O   UNL     1       6.859   1.703   3.731  0.00  0.00    -0.451 OA
ATOM     10  C   UNL     1       8.994   4.312   5.210  0.00  0.00    +0.135 A 
ATOM     11  C   UNL     1       6.195   2.378   2.687  0.00  0.00    +0.181 A 
ENDROOT
BRANCH  11  12
ATOM     12  C   UNL     1       5.223   1.445   2.000  0.00  0.00    +0.025 A 
ATOM     13  C   UNL     1       5.030   0.141   2.537  0.00  0.00    +0.015 A 
ATOM     14  C   UNL     1       4.008  -0.713   2.103  0.00  0.00    +0.050 A 
ATOM     15  C   UNL     1       3.166  -0.285   1.099  0.00  0.00    +0.158 A 
ATOM     16  C   UNL     1       3.386   0.941   0.481  0.00  0.00    +0.159 A 
ATOM     17  C   UNL     1       4.401   1.804   0.918  0.00  0.00    +0.060 A 
BRANCH  15  18
ATOM     18  O   UNL     1       2.109  -1.067   0.731  0.00  0.00    -0.503 OA
ATOM     19  H   UNL     1       1.598  -0.516   0.105  0.00  0.00    +0.292 HD
ENDBRANCH  15  18
BRANCH  16  20
ATOM     20  O   UNL     1       2.559   1.271  -0.559  0.00  0.00    -0.503 OA
ATOM     21  H   UNL     1       2.978   1.991  -1.060  0.00  0.00    +0.292 HD
ENDBRANCH  16  20
ENDBRANCH  11  12
BRANCH   7  22
ATOM     22  O   UNL     1      10.260   1.495   7.092  0.00  0.00    -0.507 OA
ATOM     23  H   UNL     1       9.997   0.565   7.069  0.00  0.00    +0.292 HD
ENDBRANCH   7  22
BRANCH  10  24
ATOM     24  O   UNL     1       9.233   5.649   5.095  0.00  0.00    -0.506 OA
ATOM     25  H   UNL     1       9.858   5.963   5.768  0.00  0.00    +0.292 HD
ENDBRANCH  10  24
BRANCH   1  26
ATOM     26  O   UNL     1       5.853   4.432   1.382  0.00  0.00    -0.453 OA
BRANCH  26  29
ATOM     27  C   UNL     1       7.590   7.636   1.444  0.00  0.00    +0.191 C 
ATOM     28  O   UNL     1       6.461   6.753   1.587  0.00  0.00    -0.330 OA
ATOM     29  C   UNL     1       6.731   5.495   0.936  0.00  0.00    +0.340 C 
ATOM     30  C   UNL     1       6.546   5.823  -0.560  0.00  0.00    +0.214 C 
ATOM     31  C   UNL     1       7.653   6.828  -0.954  0.00  0.00    +0.180 C 
ATOM     32  C   UNL     1       7.678   8.076  -0.032  0.00  0.00    +0.178 C 
BRANCH  30  33
ATOM     33  O   UNL     1       5.263   6.448  -0.808  0.00  0.00    -0.383 OA
ATOM     34  H   UNL     1       4.923   6.725   0.069  0.00  0.00    +0.210 HD
ENDBRANCH  30  33
BRANCH  31  35
ATOM     35  O   UNL     1       7.475   7.222  -2.322  0.00  0.00    -0.386 OA
ATOM     36  H   UNL     1       6.533   7.460  -2.414  0.00  0.00    +0.210 HD
ENDBRANCH  31  35
BRANCH  32  37
ATOM     37  O   UNL     1       8.874   8.822  -0.277  0.00  0.00    -0.386 OA
ATOM     38  H   UNL     1       8.773   9.681   0.174  0.00  0.00    +0.210 HD
ENDBRANCH  32  37
BRANCH  27  39
ATOM     39  C   UNL     1       7.465   8.816   2.423  0.00  0.00    +0.266 C 
BRANCH  39  40
ATOM     40  O   UNL     1       8.569   9.741   2.309  0.00  0.00    -0.462 OA
BRANCH  40  42
ATOM     41  C   UNL     1      10.765  10.443   2.784  0.00  0.00    +0.136 C 
ATOM     42  C   UNL     1       9.698   9.412   3.001  0.00  0.00    +0.304 C 
ATOM     43  O   UNL     1       9.844   8.424   3.705  0.00  0.00    -0.251 OA
ENDBRANCH  40  42
ENDBRANCH  39  40
ENDBRANCH  27  39
ENDBRANCH  26  29
ENDBRANCH   1  26
TORSDOF 13
