REMARK  Name = 
REMARK  22 active torsions:
REMARK  status: ('A' for Active; 'I' for Inactive)
REMARK    1  A    between atoms: C_1  and  C_2
REMARK    2  A    between atoms: C_3  and  O_62
REMARK    3  A    between atoms: C_5  and  O_61
REMARK    4  A    between atoms: C_7  and  O_60
REMARK    5  A    between atoms: C_8  and  O_11
REMARK    6  A    between atoms: O_11  and  C_12
REMARK    7  A    between atoms: C_14  and  O_59
REMARK    8  A    between atoms: C_19  and  C_51
REMARK    9  A    between atoms: C_20  and  O_23
REMARK   10  A    between atoms: O_23  and  C_24
REMARK   11  A    between atoms: C_26  and  O_36
REMARK   12  A    between atoms: C_28  and  O_35
REMARK   13  A    between atoms: C_29  and  O_34
REMARK   14  A    between atoms: C_31  and  C_33
REMARK   15  A    between atoms: O_36  and  C_37
REMARK   16  A    between atoms: C_39  and  O_50
REMARK   17  A    between atoms: C_41  and  O_49
REMARK   18  A    between atoms: C_42  and  O_48
REMARK   19  A    between atoms: C_44  and  C_46
REMARK   20  A    between atoms: C_46  and  O_47
REMARK   21  A    between atoms: C_53  and  O_58
REMARK   22  A    between atoms: C_54  and  O_57
REMARK                            x       y       z     vdW  Elec       q    Type
REMARK                         _______ _______ _______ _____ _____    ______ ____
ROOT
ATOM      1  C   UNL     1       2.498   2.704  -3.032  0.00  0.00    +0.131 A 
ATOM      2  C   UNL     1       1.263   3.252  -2.692  0.00  0.00    +0.093 A 
ATOM      3  C   UNL     1       1.145   4.593  -2.340  0.00  0.00    +0.147 A 
ATOM      4  O   UNL     1      -0.127   5.011  -2.055  0.00  0.00    -0.451 OA
ATOM      5  C   UNL     1      -0.343   6.361  -1.990  0.00  0.00    +0.181 A 
ATOM      6  C   UNL     1       0.610   7.311  -1.996  0.00  0.00    +0.214 A 
ATOM      7  C   UNL     1       2.027   6.844  -1.943  0.00  0.00    +0.238 A 
ATOM      8  O   UNL     1       2.929   7.580  -1.543  0.00  0.00    -0.283 OA
ATOM      9  C   UNL     1       2.257   5.428  -2.316  0.00  0.00    +0.109 A 
ATOM     10  C   UNL     1       3.498   4.888  -2.667  0.00  0.00    +0.135 A 
ATOM     11  C   UNL     1       3.620   3.536  -3.025  0.00  0.00    +0.092 A 
ENDROOT
BRANCH   5  12
ATOM     12  C   UNL     1      -1.768   6.728  -1.968  0.00  0.00    +0.025 A 
ATOM     13  C   UNL     1      -2.369   7.011  -3.201  0.00  0.00    +0.015 A 
ATOM     14  C   UNL     1      -3.703   7.398  -3.269  0.00  0.00    +0.050 A 
ATOM     15  C   UNL     1      -4.433   7.503  -2.097  0.00  0.00    +0.158 A 
ATOM     16  C   UNL     1      -3.850   7.219  -0.862  0.00  0.00    +0.159 A 
ATOM     17  C   UNL     1      -2.514   6.831  -0.778  0.00  0.00    +0.060 A 
BRANCH  16  18
ATOM     18  O   UNL     1      -4.652   7.337   0.240  0.00  0.00    -0.503 OA
ATOM     19  H   UNL     1      -4.162   7.026   1.020  0.00  0.00    +0.292 HD
ENDBRANCH  16  18
BRANCH  15  20
ATOM     20  O   UNL     1      -5.740   7.885  -2.170  0.00  0.00    -0.503 OA
ATOM     21  H   UNL     1      -6.047   7.898  -1.241  0.00  0.00    +0.292 HD
ENDBRANCH  15  20
ENDBRANCH   5  12
BRANCH  10  22
ATOM     22  O   UNL     1       4.606   5.685  -2.709  0.00  0.00    -0.506 OA
ATOM     23  H   UNL     1       5.369   5.186  -3.041  0.00  0.00    +0.292 HD
ENDBRANCH  10  22
BRANCH   6  24
ATOM     24  O   UNL     1       0.254   8.573  -1.646  0.00  0.00    -0.453 OA
BRANCH  24  25
ATOM     25  C   UNL     1       0.403   9.777  -2.379  0.00  0.00    +0.340 C 
ATOM     26  O   UNL     1       0.529   9.610  -3.793  0.00  0.00    -0.334 OA
ATOM     27  C   UNL     1       0.691  10.873  -4.460  0.00  0.00    +0.150 C 
ATOM     28  C   UNL     1       0.910  10.594  -5.946  0.00  0.00    +0.041 C 
ATOM     29  C   UNL     1      -0.530  11.792  -4.246  0.00  0.00    +0.174 C 
ATOM     30  C   UNL     1      -0.842  11.952  -2.742  0.00  0.00    +0.180 C 
ATOM     31  C   UNL     1      -0.904  10.573  -2.076  0.00  0.00    +0.221 C 
BRANCH  30  32
ATOM     32  O   UNL     1      -2.072  12.672  -2.558  0.00  0.00    -0.386 OA
ATOM     33  H   UNL     1      -2.730  12.335  -3.195  0.00  0.00    +0.210 HD
ENDBRANCH  30  32
BRANCH  29  34
ATOM     34  O   UNL     1      -0.327  13.066  -4.859  0.00  0.00    -0.387 OA
ATOM     35  H   UNL     1       0.184  13.632  -4.253  0.00  0.00    +0.210 HD
ENDBRANCH  29  34
BRANCH  31  36
ATOM     36  O   UNL     1      -1.343  10.573  -0.704  0.00  0.00    -0.337 OA
BRANCH  36  37
ATOM     37  C   UNL     1      -0.625  11.320   0.276  0.00  0.00    +0.282 C 
ATOM     38  O   UNL     1       0.682  10.792   0.503  0.00  0.00    -0.341 OA
ATOM     39  C   UNL     1       0.694   9.457   1.056  0.00  0.00    +0.178 C 
ATOM     40  C   UNL     1      -0.099   9.303   2.347  0.00  0.00    +0.177 C 
ATOM     41  C   UNL     1      -1.518   9.848   2.108  0.00  0.00    +0.179 C 
ATOM     42  C   UNL     1      -1.438  11.306   1.601  0.00  0.00    +0.201 C 
BRANCH  42  43
ATOM     43  O   UNL     1      -0.822  12.172   2.571  0.00  0.00    -0.384 OA
ATOM     44  H   UNL     1      -0.058  11.682   2.943  0.00  0.00    +0.210 HD
ENDBRANCH  42  43
BRANCH  41  45
ATOM     45  O   UNL     1      -2.270   9.738   3.325  0.00  0.00    -0.386 OA
ATOM     46  H   UNL     1      -2.510   8.804   3.440  0.00  0.00    +0.210 HD
ENDBRANCH  41  45
BRANCH  40  47
ATOM     47  O   UNL     1       0.485  10.006   3.443  0.00  0.00    -0.386 OA
ATOM     48  H   UNL     1      -0.116   9.866   4.203  0.00  0.00    +0.210 HD
ENDBRANCH  40  47
BRANCH  39  49
ATOM     49  C   UNL     1       2.134   8.943   1.063  0.00  0.00    +0.190 C 
BRANCH  49  50
ATOM     50  O   UNL     1       2.945   9.504   2.082  0.00  0.00    -0.392 OA
ATOM     51  H   UNL     1       3.086  10.434   1.829  0.00  0.00    +0.210 HD
ENDBRANCH  49  50
ENDBRANCH  39  49
ENDBRANCH  36  37
ENDBRANCH  31  36
ENDBRANCH  24  25
ENDBRANCH   6  24
BRANCH   1  52
ATOM     52  O   UNL     1       2.715   1.392  -3.383  0.00  0.00    -0.461 OA
BRANCH  52  56
ATOM     53  C   UNL     1      -1.393   0.520  -2.635  0.00  0.00    +0.041 C 
ATOM     54  C   UNL     1      -0.249  -0.280  -2.016  0.00  0.00    +0.150 C 
ATOM     55  O   UNL     1       0.980   0.450  -2.095  0.00  0.00    -0.334 OA
ATOM     56  C   UNL     1       1.542   0.558  -3.411  0.00  0.00    +0.339 C 
ATOM     57  C   UNL     1       1.910  -0.858  -3.894  0.00  0.00    +0.214 C 
ATOM     58  C   UNL     1       0.592  -1.654  -3.982  0.00  0.00    +0.180 C 
ATOM     59  C   UNL     1      -0.114  -1.692  -2.613  0.00  0.00    +0.174 C 
BRANCH  57  60
ATOM     60  O   UNL     1       2.800  -1.483  -2.940  0.00  0.00    -0.383 OA
ATOM     61  H   UNL     1       3.321  -0.761  -2.536  0.00  0.00    +0.210 HD
ENDBRANCH  57  60
BRANCH  58  62
ATOM     62  O   UNL     1       0.817  -2.967  -4.503  0.00  0.00    -0.386 OA
ATOM     63  H   UNL     1       0.320  -3.598  -3.950  0.00  0.00    +0.210 HD
ENDBRANCH  58  62
BRANCH  59  64
ATOM     64  O   UNL     1       0.622  -2.523  -1.701  0.00  0.00    -0.387 OA
ATOM     65  H   UNL     1       1.566  -2.257  -1.776  0.00  0.00    +0.210 HD
ENDBRANCH  59  64
ENDBRANCH  52  56
ENDBRANCH   1  52
TORSDOF 20
