REMARK  Name = 
REMARK  28 active torsions:
REMARK  status: ('A' for Active; 'I' for Inactive)
REMARK    1  A    between atoms: C_1  and  C_2
REMARK    2  A    between atoms: C_3  and  O_75
REMARK    3  A    between atoms: C_5  and  O_74
REMARK    4  A    between atoms: C_7  and  O_73
REMARK    5  A    between atoms: C_8  and  O_11
REMARK    6  A    between atoms: O_11  and  C_12
REMARK    7  A    between atoms: C_12  and  C_13
REMARK    8  A    between atoms: C_14  and  O_72
REMARK    9  A    between atoms: C_16  and  O_71
REMARK   10  A    between atoms: C_17  and  O_57
REMARK   11  A    between atoms: C_18  and  O_21
REMARK   12  A    between atoms: O_21  and  C_22
REMARK   13  A    between atoms: C_23  and  C_49
REMARK   14  A    between atoms: C_27  and  O_34
REMARK   15  A    between atoms: C_29  and  O_33
REMARK   16  A    between atoms: O_34  and  C_35
REMARK   17  A    between atoms: C_37  and  O_48
REMARK   18  A    between atoms: C_38  and  O_47
REMARK   19  A    between atoms: C_40  and  O_46
REMARK   20  A    between atoms: C_42  and  C_44
REMARK   21  A    between atoms: C_44  and  O_45
REMARK   22  A    between atoms: C_51  and  O_56
REMARK   23  A    between atoms: C_52  and  O_55
REMARK   24  A    between atoms: O_57  and  C_58
REMARK   25  A    between atoms: C_60  and  O_70
REMARK   26  A    between atoms: C_62  and  O_69
REMARK   27  A    between atoms: C_63  and  O_68
REMARK   28  A    between atoms: C_65  and  C_67
REMARK                            x       y       z     vdW  Elec       q    Type
REMARK                         _______ _______ _______ _____ _____    ______ ____
ROOT
ATOM      1  O   UNL     1       3.123   6.876  -1.795  0.00  0.00    -0.453 OA
ENDROOT
BRANCH   1   2
ATOM      2  C   UNL     1       3.046   6.926  -0.402  0.00  0.00    +0.214 A 
ATOM      3  C   UNL     1       1.751   6.695   0.361  0.00  0.00    +0.238 A 
ATOM      4  O   UNL     1       0.775   6.153  -0.186  0.00  0.00    -0.283 OA
ATOM      5  C   UNL     1       1.697   7.222   1.784  0.00  0.00    +0.109 A 
ATOM      6  C   UNL     1       2.897   7.570   2.377  0.00  0.00    +0.147 A 
ATOM      7  C   UNL     1       2.990   8.119   3.672  0.00  0.00    +0.093 A 
ATOM      8  C   UNL     1       1.849   8.367   4.427  0.00  0.00    +0.131 A 
ATOM      9  C   UNL     1       0.624   8.010   3.850  0.00  0.00    +0.092 A 
ATOM     10  O   UNL     1       4.079   7.411   1.726  0.00  0.00    -0.451 OA
ATOM     11  C   UNL     1       0.555   7.429   2.552  0.00  0.00    +0.135 A 
ATOM     12  C   UNL     1       4.067   7.418   0.347  0.00  0.00    +0.181 A 
BRANCH  12  13
ATOM     13  C   UNL     1       5.258   8.144  -0.140  0.00  0.00    +0.025 A 
ATOM     14  C   UNL     1       5.170   9.081  -1.174  0.00  0.00    +0.015 A 
ATOM     15  C   UNL     1       6.266   9.882  -1.517  0.00  0.00    +0.050 A 
ATOM     16  C   UNL     1       7.421   9.836  -0.733  0.00  0.00    +0.158 A 
ATOM     17  C   UNL     1       7.472   8.997   0.371  0.00  0.00    +0.159 A 
ATOM     18  C   UNL     1       6.431   8.122   0.639  0.00  0.00    +0.060 A 
BRANCH  17  19
ATOM     19  O   UNL     1       8.465   9.061   1.307  0.00  0.00    -0.503 OA
ATOM     20  H   UNL     1       9.305   8.952   0.835  0.00  0.00    +0.292 HD
ENDBRANCH  17  19
BRANCH  16  21
ATOM     21  O   UNL     1       8.472  10.661  -1.001  0.00  0.00    -0.503 OA
ATOM     22  H   UNL     1       8.109  11.467  -1.408  0.00  0.00    +0.292 HD
ENDBRANCH  16  21
ENDBRANCH  12  13
BRANCH  11  23
ATOM     23  O   UNL     1      -0.670   7.091   2.051  0.00  0.00    -0.506 OA
ATOM     24  H   UNL     1      -1.263   6.870   2.790  0.00  0.00    +0.292 HD
ENDBRANCH  11  23
BRANCH   8  25
ATOM     25  O   UNL     1       1.835   8.955   5.685  0.00  0.00    -0.461 OA
BRANCH  25  26
ATOM     26  C   UNL     1       3.111   8.992   6.374  0.00  0.00    +0.339 C 
ATOM     27  O   UNL     1       3.562   7.670   6.680  0.00  0.00    -0.331 OA
ATOM     28  C   UNL     1       2.752   7.029   7.679  0.00  0.00    +0.179 C 
ATOM     29  C   UNL     1       2.866   7.751   9.039  0.00  0.00    +0.177 C 
ATOM     30  C   UNL     1       2.479   9.235   8.889  0.00  0.00    +0.180 C 
ATOM     31  C   UNL     1       3.163   9.864   7.660  0.00  0.00    +0.214 C 
BRANCH  31  32
ATOM     32  O   UNL     1       2.760  11.221   7.451  0.00  0.00    -0.383 OA
ATOM     33  H   UNL     1       1.992  11.215   6.854  0.00  0.00    +0.210 HD
ENDBRANCH  31  32
BRANCH  30  34
ATOM     34  O   UNL     1       1.059   9.415   8.871  0.00  0.00    -0.386 OA
ATOM     35  H   UNL     1       0.629   8.684   8.401  0.00  0.00    +0.210 HD
ENDBRANCH  30  34
BRANCH  29  36
ATOM     36  O   UNL     1       4.205   7.642   9.532  0.00  0.00    -0.386 OA
ATOM     37  H   UNL     1       4.224   7.983  10.445  0.00  0.00    +0.210 HD
ENDBRANCH  29  36
BRANCH  28  38
ATOM     38  C   UNL     1       3.194   5.562   7.772  0.00  0.00    +0.190 C 
BRANCH  38  39
ATOM     39  O   UNL     1       2.977   4.863   6.543  0.00  0.00    -0.392 OA
ATOM     40  H   UNL     1       2.160   5.192   6.135  0.00  0.00    +0.210 HD
ENDBRANCH  38  39
ENDBRANCH  28  38
ENDBRANCH  25  26
ENDBRANCH   8  25
ENDBRANCH   1   2
BRANCH   1  43
ATOM     41  C   UNL     1       3.137   3.924  -4.084  0.00  0.00    +0.179 C 
ATOM     42  O   UNL     1       3.517   4.886  -3.071  0.00  0.00    -0.331 OA
ATOM     43  C   UNL     1       2.509   5.804  -2.566  0.00  0.00    +0.340 C 
ATOM     44  C   UNL     1       1.653   6.461  -3.715  0.00  0.00    +0.221 C 
ATOM     45  C   UNL     1       1.065   5.304  -4.535  0.00  0.00    +0.180 C 
ATOM     46  C   UNL     1       2.223   4.538  -5.185  0.00  0.00    +0.177 C 
BRANCH  46  47
ATOM     47  O   UNL     1       1.657   3.581  -6.089  0.00  0.00    -0.386 OA
ATOM     48  H   UNL     1       2.382   3.203  -6.622  0.00  0.00    +0.210 HD
ENDBRANCH  46  47
BRANCH  45  49
ATOM     49  O   UNL     1       0.126   5.779  -5.517  0.00  0.00    -0.386 OA
ATOM     50  H   UNL     1       0.242   5.192  -6.295  0.00  0.00    +0.210 HD
ENDBRANCH  45  49
BRANCH  44  51
ATOM     51  O   UNL     1       2.429   7.370  -4.558  0.00  0.00    -0.337 OA
BRANCH  51  52
ATOM     52  C   UNL     1       1.736   8.043  -5.633  0.00  0.00    +0.282 C 
ATOM     53  O   UNL     1       2.650   8.858  -6.389  0.00  0.00    -0.343 OA
ATOM     54  C   UNL     1       3.232   9.921  -5.634  0.00  0.00    +0.149 C 
ATOM     55  C   UNL     1       4.051  10.768  -6.609  0.00  0.00    +0.041 C 
ATOM     56  C   UNL     1       2.207  10.812  -4.911  0.00  0.00    +0.174 C 
ATOM     57  C   UNL     1       1.113   9.979  -4.222  0.00  0.00    +0.179 C 
ATOM     58  C   UNL     1       0.559   8.943  -5.199  0.00  0.00    +0.201 C 
BRANCH  58  59
ATOM     59  O   UNL     1      -0.544   8.271  -4.580  0.00  0.00    -0.384 OA
ATOM     60  H   UNL     1      -0.621   7.385  -4.999  0.00  0.00    +0.210 HD
ENDBRANCH  58  59
BRANCH  57  61
ATOM     61  O   UNL     1       0.063  10.837  -3.759  0.00  0.00    -0.386 OA
ATOM     62  H   UNL     1      -0.746  10.283  -3.746  0.00  0.00    +0.210 HD
ENDBRANCH  57  61
BRANCH  56  63
ATOM     63  O   UNL     1       2.899  11.650  -3.976  0.00  0.00    -0.387 OA
ATOM     64  H   UNL     1       2.721  11.314  -3.081  0.00  0.00    +0.210 HD
ENDBRANCH  56  63
ENDBRANCH  51  52
ENDBRANCH  44  51
BRANCH  41  65
ATOM     65  C   UNL     1       2.545   2.587  -3.538  0.00  0.00    +0.197 C 
BRANCH  65  66
ATOM     66  O   UNL     1       3.443   1.676  -2.901  0.00  0.00    -0.346 OA
BRANCH  66  70
ATOM     67  C   UNL     1       6.046   0.851   0.460  0.00  0.00    +0.041 C 
ATOM     68  C   UNL     1       4.690   0.212   0.184  0.00  0.00    +0.149 C 
ATOM     69  O   UNL     1       4.291   0.451  -1.177  0.00  0.00    -0.343 OA
ATOM     70  C   UNL     1       3.711   1.735  -1.498  0.00  0.00    +0.282 C 
ATOM     71  C   UNL     1       2.478   1.938  -0.585  0.00  0.00    +0.201 C 
ATOM     72  C   UNL     1       2.993   1.965   0.867  0.00  0.00    +0.179 C 
ATOM     73  C   UNL     1       3.640   0.624   1.231  0.00  0.00    +0.174 C 
BRANCH  73  74
ATOM     74  O   UNL     1       2.619  -0.383   1.348  0.00  0.00    -0.387 OA
ATOM     75  H   UNL     1       2.075  -0.327   0.532  0.00  0.00    +0.210 HD
ENDBRANCH  73  74
BRANCH  72  76
ATOM     76  O   UNL     1       1.948   2.281   1.793  0.00  0.00    -0.386 OA
ATOM     77  H   UNL     1       1.686   1.439   2.216  0.00  0.00    +0.210 HD
ENDBRANCH  72  76
BRANCH  71  78
ATOM     78  O   UNL     1       1.534   0.852  -0.754  0.00  0.00    -0.384 OA
ATOM     79  H   UNL     1       1.621   0.549  -1.679  0.00  0.00    +0.210 HD
ENDBRANCH  71  78
ENDBRANCH  66  70
ENDBRANCH  65  66
ENDBRANCH  41  65
ENDBRANCH   1  43
TORSDOF 26
