REMARK  Name = 
REMARK  17 active torsions:
REMARK  status: ('A' for Active; 'I' for Inactive)
REMARK    1  A    between atoms: C_1  and  C_2
REMARK    2  A    between atoms: C_3  and  O_49
REMARK    3  A    between atoms: C_5  and  O_48
REMARK    4  A    between atoms: C_6  and  O_47
REMARK    5  A    between atoms: C_8  and  O_11
REMARK    6  A    between atoms: O_11  and  C_12
REMARK    7  A    between atoms: C_13  and  C_25
REMARK    8  A    between atoms: C_17  and  O_24
REMARK    9  A    between atoms: C_19  and  O_23
REMARK   10  A    between atoms: C_27  and  O_32
REMARK   11  A    between atoms: C_28  and  O_31
REMARK   12  A    between atoms: O_32  and  C_33
REMARK   13  A    between atoms: C_35  and  O_46
REMARK   14  A    between atoms: C_36  and  O_45
REMARK   15  A    between atoms: C_38  and  O_44
REMARK   16  A    between atoms: C_40  and  C_42
REMARK   17  A    between atoms: C_42  and  O_43
REMARK                            x       y       z     vdW  Elec       q    Type
REMARK                         _______ _______ _______ _____ _____    ______ ____
ROOT
ATOM      1  C   UNL     1       2.771   2.893  -3.222  0.00  0.00    +0.214 A 
ATOM      2  C   UNL     1       1.368   3.399  -3.118  0.00  0.00    +0.238 A 
ATOM      3  O   UNL     1       0.398   2.742  -3.480  0.00  0.00    -0.283 OA
ATOM      4  C   UNL     1       1.179   4.805  -2.762  0.00  0.00    +0.109 A 
ATOM      5  C   UNL     1       2.257   5.657  -2.957  0.00  0.00    +0.147 A 
ATOM      6  C   UNL     1       2.061   7.042  -2.893  0.00  0.00    +0.092 A 
ATOM      7  C   UNL     1       0.789   7.539  -2.594  0.00  0.00    +0.124 A 
ATOM      8  C   UNL     1      -0.276   6.688  -2.323  0.00  0.00    +0.091 A 
ATOM      9  O   UNL     1       3.526   5.203  -3.256  0.00  0.00    -0.451 OA
ATOM     10  C   UNL     1      -0.078   5.315  -2.399  0.00  0.00    +0.135 A 
ATOM     11  C   UNL     1       3.738   3.830  -3.302  0.00  0.00    +0.181 A 
ENDROOT
BRANCH  11  12
ATOM     12  C   UNL     1       5.123   3.459  -3.671  0.00  0.00    +0.025 A 
ATOM     13  C   UNL     1       6.124   3.149  -2.753  0.00  0.00    +0.015 A 
ATOM     14  C   UNL     1       7.384   2.730  -3.213  0.00  0.00    +0.050 A 
ATOM     15  C   UNL     1       7.640   2.623  -4.585  0.00  0.00    +0.159 A 
ATOM     16  C   UNL     1       6.660   2.937  -5.526  0.00  0.00    +0.166 A 
ATOM     17  C   UNL     1       5.405   3.345  -5.041  0.00  0.00    +0.061 A 
BRANCH  15  18
ATOM     18  O   UNL     1       8.875   2.171  -4.963  0.00  0.00    -0.503 OA
ATOM     19  H   UNL     1       8.854   2.118  -5.935  0.00  0.00    +0.292 HD
ENDBRANCH  15  18
BRANCH  16  20
ATOM     20  O   UNL     1       6.994   2.820  -6.871  0.00  0.00    -0.457 OA
BRANCH  20  21
ATOM     21  C   UNL     1       5.868   2.975  -7.760  0.00  0.00    +0.339 C 
ATOM     22  O   UNL     1       5.023   1.822  -7.669  0.00  0.00    -0.331 OA
ATOM     23  C   UNL     1       5.558   0.698  -8.393  0.00  0.00    +0.179 C 
ATOM     24  C   UNL     1       5.474   1.028  -9.892  0.00  0.00    +0.177 C 
ATOM     25  C   UNL     1       6.437   2.186 -10.183  0.00  0.00    +0.180 C 
ATOM     26  C   UNL     1       6.208   3.363  -9.225  0.00  0.00    +0.214 C 
BRANCH  26  27
ATOM     27  O   UNL     1       7.271   4.319  -9.299  0.00  0.00    -0.383 OA
ATOM     28  H   UNL     1       7.944   3.965  -9.912  0.00  0.00    +0.210 HD
ENDBRANCH  26  27
BRANCH  25  29
ATOM     29  O   UNL     1       7.806   1.767 -10.160  0.00  0.00    -0.386 OA
ATOM     30  H   UNL     1       8.118   1.747  -9.241  0.00  0.00    +0.210 HD
ENDBRANCH  25  29
BRANCH  24  31
ATOM     31  O   UNL     1       4.143   1.446 -10.224  0.00  0.00    -0.386 OA
ATOM     32  H   UNL     1       4.072   1.509 -11.192  0.00  0.00    +0.210 HD
ENDBRANCH  24  31
BRANCH  23  33
ATOM     33  C   UNL     1       4.784  -0.561  -7.978  0.00  0.00    +0.190 C 
BRANCH  33  34
ATOM     34  O   UNL     1       3.380  -0.432  -8.159  0.00  0.00    -0.392 OA
ATOM     35  H   UNL     1       3.182   0.515  -8.023  0.00  0.00    +0.210 HD
ENDBRANCH  33  34
ENDBRANCH  23  33
ENDBRANCH  20  21
ENDBRANCH  16  20
ENDBRANCH  11  12
BRANCH  10  36
ATOM     36  O   UNL     1      -1.117   4.477  -2.103  0.00  0.00    -0.506 OA
ATOM     37  H   UNL     1      -1.939   4.982  -2.005  0.00  0.00    +0.292 HD
ENDBRANCH  10  36
BRANCH   7  38
ATOM     38  O   UNL     1       0.532   8.877  -2.553  0.00  0.00    -0.507 OA
ATOM     39  H   UNL     1       1.336   9.364  -2.797  0.00  0.00    +0.292 HD
ENDBRANCH   7  38
BRANCH   1  40
ATOM     40  O   UNL     1       3.072   1.542  -3.382  0.00  0.00    -0.453 OA
BRANCH  40  44
ATOM     41  C   UNL     1      -0.922   0.239  -2.328  0.00  0.00    +0.041 C 
ATOM     42  C   UNL     1       0.357  -0.206  -1.621  0.00  0.00    +0.150 C 
ATOM     43  O   UNL     1       1.470   0.666  -1.872  0.00  0.00    -0.334 OA
ATOM     44  C   UNL     1       1.996   0.610  -3.206  0.00  0.00    +0.339 C 
ATOM     45  C   UNL     1       2.510  -0.804  -3.530  0.00  0.00    +0.214 C 
ATOM     46  C   UNL     1       1.352  -1.793  -3.339  0.00  0.00    +0.180 C 
ATOM     47  C   UNL     1       0.734  -1.659  -1.937  0.00  0.00    +0.174 C 
BRANCH  47  48
ATOM     48  O   UNL     1       1.706  -2.121  -0.978  0.00  0.00    -0.387 OA
ATOM     49  H   UNL     1       2.453  -1.480  -1.025  0.00  0.00    +0.210 HD
ENDBRANCH  47  48
BRANCH  46  50
ATOM     50  O   UNL     1       1.847  -3.130  -3.514  0.00  0.00    -0.386 OA
ATOM     51  H   UNL     1       2.077  -3.437  -2.612  0.00  0.00    +0.210 HD
ENDBRANCH  46  50
BRANCH  45  52
ATOM     52  O   UNL     1       3.601  -1.183  -2.666  0.00  0.00    -0.383 OA
ATOM     53  H   UNL     1       3.917  -2.036  -3.020  0.00  0.00    +0.210 HD
ENDBRANCH  45  52
ENDBRANCH  40  44
ENDBRANCH   1  40
TORSDOF 16
