REMARK  Name = 
REMARK  23 active torsions:
REMARK  status: ('A' for Active; 'I' for Inactive)
REMARK    1  A    between atoms: C_3  and  O_62
REMARK    2  A    between atoms: C_4  and  O_61
REMARK    3  A    between atoms: C_6  and  C_7
REMARK    4  A    between atoms: C_8  and  C_9
REMARK    5  A    between atoms: C_9  and  O_11
REMARK    6  A    between atoms: O_11  and  C_12
REMARK    7  A    between atoms: C_12  and  C_13
REMARK    8  A    between atoms: C_14  and  O_60
REMARK    9  A    between atoms: C_16  and  O_59
REMARK   10  A    between atoms: C_18  and  O_58
REMARK   11  A    between atoms: C_19  and  O_22
REMARK   12  A    between atoms: O_22  and  C_23
REMARK   13  A    between atoms: C_23  and  C_24
REMARK   14  A    between atoms: C_25  and  O_57
REMARK   15  A    between atoms: C_27  and  O_56
REMARK   16  A    between atoms: C_29  and  O_55
REMARK   17  A    between atoms: C_30  and  O_33
REMARK   18  A    between atoms: O_33  and  C_34
REMARK   19  A    between atoms: C_35  and  C_47
REMARK   20  A    between atoms: C_39  and  O_46
REMARK   21  A    between atoms: C_41  and  O_45
REMARK   22  A    between atoms: C_49  and  O_54
REMARK   23  A    between atoms: C_50  and  O_53
REMARK                            x       y       z     vdW  Elec       q    Type
REMARK                         _______ _______ _______ _____ _____    ______ ____
ROOT
ATOM      1  C   UNL     1      -7.127  -3.554  -6.240  0.00  0.00    +0.179 C 
ATOM      2  O   UNL     1      -6.018  -3.555  -7.159  0.00  0.00    -0.331 OA
ATOM      3  C   UNL     1      -5.003  -2.551  -6.900  0.00  0.00    +0.340 C 
ATOM      4  C   UNL     1      -5.660  -1.148  -6.938  0.00  0.00    +0.214 C 
ATOM      5  C   UNL     1      -6.813  -1.067  -5.932  0.00  0.00    +0.180 C 
ATOM      6  C   UNL     1      -7.820  -2.185  -6.213  0.00  0.00    +0.177 C 
ENDROOT
BRANCH   6   7
ATOM      7  O   UNL     1      -8.889  -2.132  -5.263  0.00  0.00    -0.386 OA
ATOM      8  H   UNL     1      -9.586  -2.734  -5.577  0.00  0.00    +0.210 HD
ENDBRANCH   6   7
BRANCH   5   9
ATOM      9  O   UNL     1      -7.486   0.201  -6.012  0.00  0.00    -0.386 OA
ATOM     10  H   UNL     1      -8.310   0.079  -5.503  0.00  0.00    +0.210 HD
ENDBRANCH   5   9
BRANCH   4  11
ATOM     11  O   UNL     1      -6.160  -0.899  -8.275  0.00  0.00    -0.383 OA
ATOM     12  H   UNL     1      -6.226  -1.766  -8.719  0.00  0.00    +0.210 HD
ENDBRANCH   4  11
BRANCH   3  13
ATOM     13  O   UNL     1      -4.033  -2.675  -7.961  0.00  0.00    -0.453 OA
BRANCH  13  14
ATOM     14  C   UNL     1      -2.915  -1.852  -7.975  0.00  0.00    +0.214 A 
ATOM     15  C   UNL     1      -2.368  -1.243  -6.717  0.00  0.00    +0.238 A 
ATOM     16  O   UNL     1      -2.722  -1.633  -5.610  0.00  0.00    -0.283 OA
ATOM     17  C   UNL     1      -1.384  -0.151  -6.870  0.00  0.00    +0.109 A 
ATOM     18  C   UNL     1      -0.767  -0.021  -8.110  0.00  0.00    +0.147 A 
ATOM     19  C   UNL     1       0.254   0.913  -8.305  0.00  0.00    +0.092 A 
ATOM     20  C   UNL     1       0.622   1.747  -7.254  0.00  0.00    +0.124 A 
ATOM     21  C   UNL     1      -0.029   1.676  -6.028  0.00  0.00    +0.091 A 
ATOM     22  O   UNL     1      -1.123  -0.773  -9.196  0.00  0.00    -0.451 OA
ATOM     23  C   UNL     1      -1.037   0.728  -5.837  0.00  0.00    +0.135 A 
ATOM     24  C   UNL     1      -2.280  -1.546  -9.130  0.00  0.00    +0.181 A 
BRANCH  24  25
ATOM     25  C   UNL     1      -2.789  -1.909 -10.486  0.00  0.00    +0.025 A 
ATOM     26  C   UNL     1      -2.687  -0.947 -11.515  0.00  0.00    +0.015 A 
ATOM     27  C   UNL     1      -3.268  -1.151 -12.770  0.00  0.00    +0.050 A 
ATOM     28  C   UNL     1      -3.947  -2.330 -13.010  0.00  0.00    +0.158 A 
ATOM     29  C   UNL     1      -3.983  -3.332 -12.045  0.00  0.00    +0.159 A 
ATOM     30  C   UNL     1      -3.409  -3.135 -10.788  0.00  0.00    +0.060 A 
BRANCH  29  31
ATOM     31  O   UNL     1      -4.608  -4.502 -12.380  0.00  0.00    -0.503 OA
ATOM     32  H   UNL     1      -4.289  -5.191 -11.771  0.00  0.00    +0.292 HD
ENDBRANCH  29  31
BRANCH  28  33
ATOM     33  O   UNL     1      -4.593  -2.497 -14.200  0.00  0.00    -0.503 OA
ATOM     34  H   UNL     1      -5.095  -3.329 -14.092  0.00  0.00    +0.292 HD
ENDBRANCH  28  33
ENDBRANCH  24  25
BRANCH  23  35
ATOM     35  O   UNL     1      -1.691   0.698  -4.638  0.00  0.00    -0.506 OA
ATOM     36  H   UNL     1      -1.372   1.414  -4.066  0.00  0.00    +0.292 HD
ENDBRANCH  23  35
BRANCH  20  37
ATOM     37  O   UNL     1       1.618   2.668  -7.388  0.00  0.00    -0.507 OA
ATOM     38  H   UNL     1       2.017   2.582  -8.269  0.00  0.00    +0.292 HD
ENDBRANCH  20  37
ENDBRANCH  13  14
ENDBRANCH   3  13
BRANCH   1  39
ATOM     39  C   UNL     1      -6.773  -4.124  -4.850  0.00  0.00    +0.197 C 
BRANCH  39  40
ATOM     40  O   UNL     1      -5.876  -3.269  -4.152  0.00  0.00    -0.346 OA
BRANCH  40  43
ATOM     41  C   UNL     1      -4.116  -2.978  -1.002  0.00  0.00    +0.190 C 
ATOM     42  O   UNL     1      -4.681  -2.695  -2.290  0.00  0.00    -0.339 OA
ATOM     43  C   UNL     1      -5.484  -3.739  -2.861  0.00  0.00    +0.282 C 
ATOM     44  C   UNL     1      -4.649  -5.031  -2.984  0.00  0.00    +0.201 C 
ATOM     45  C   UNL     1      -4.117  -5.423  -1.608  0.00  0.00    +0.179 C 
ATOM     46  C   UNL     1      -3.284  -4.275  -1.030  0.00  0.00    +0.178 C 
BRANCH  46  47
ATOM     47  O   UNL     1      -2.815  -4.650   0.269  0.00  0.00    -0.386 OA
ATOM     48  H   UNL     1      -2.036  -4.095   0.461  0.00  0.00    +0.210 HD
ENDBRANCH  46  47
BRANCH  45  49
ATOM     49  O   UNL     1      -3.341  -6.619  -1.687  0.00  0.00    -0.386 OA
ATOM     50  H   UNL     1      -2.824  -6.669  -0.866  0.00  0.00    +0.210 HD
ENDBRANCH  45  49
BRANCH  44  51
ATOM     51  O   UNL     1      -3.556  -4.820  -3.904  0.00  0.00    -0.384 OA
ATOM     52  H   UNL     1      -3.548  -3.868  -4.136  0.00  0.00    +0.210 HD
ENDBRANCH  44  51
BRANCH  41  53
ATOM     53  C   UNL     1      -5.182  -2.945   0.112  0.00  0.00    +0.266 C 
BRANCH  53  54
ATOM     54  O   UNL     1      -5.825  -1.653   0.127  0.00  0.00    -0.459 OA
BRANCH  54  55
ATOM     55  C   UNL     1      -7.138  -1.624  -0.216  0.00  0.00    +0.332 C 
ATOM     56  O   UNL     1      -7.832  -2.580  -0.518  0.00  0.00    -0.246 OA
BRANCH  55  58
ATOM     57  C   UNL     1      -8.899   0.078  -0.323  0.00  0.00    +0.015 C 
ATOM     58  C   UNL     1      -7.604  -0.222  -0.126  0.00  0.00    +0.092 C 
BRANCH  57  60
ATOM     59  C   UNL     1      -8.753   2.598  -0.505  0.00  0.00    +0.012 A 
ATOM     60  C   UNL     1      -9.473   1.428  -0.195  0.00  0.00    -0.021 A 
ATOM     61  C   UNL     1     -10.805   1.553   0.227  0.00  0.00    +0.057 A 
ATOM     62  C   UNL     1     -11.373   2.812   0.371  0.00  0.00    +0.159 A 
ATOM     63  C   UNL     1     -10.644   3.963   0.086  0.00  0.00    +0.158 A 
ATOM     64  C   UNL     1      -9.336   3.863  -0.361  0.00  0.00    +0.050 A 
BRANCH  63  65
ATOM     65  O   UNL     1     -11.262   5.169   0.264  0.00  0.00    -0.503 OA
ATOM     66  H   UNL     1     -10.620   5.872   0.059  0.00  0.00    +0.292 HD
ENDBRANCH  63  65
BRANCH  62  67
ATOM     67  O   UNL     1     -12.665   2.917   0.803  0.00  0.00    -0.503 OA
ATOM     68  H   UNL     1     -12.838   3.880   0.830  0.00  0.00    +0.292 HD
ENDBRANCH  62  67
ENDBRANCH  57  60
ENDBRANCH  55  58
ENDBRANCH  54  55
ENDBRANCH  53  54
ENDBRANCH  41  53
ENDBRANCH  40  43
ENDBRANCH  39  40
ENDBRANCH   1  39
TORSDOF 23
