REMARK  Name = 
REMARK  19 active torsions:
REMARK  status: ('A' for Active; 'I' for Inactive)
REMARK    1  A    between atoms: C_1  and  C_2
REMARK    2  A    between atoms: C_3  and  O_35
REMARK    3  A    between atoms: C_5  and  O_34
REMARK    4  A    between atoms: C_6  and  O_33
REMARK    5  A    between atoms: C_8  and  O_11
REMARK    6  A    between atoms: O_11  and  C_12
REMARK    7  A    between atoms: C_13  and  C_25
REMARK    8  A    between atoms: C_17  and  O_24
REMARK    9  A    between atoms: C_19  and  O_23
REMARK   10  A    between atoms: C_27  and  O_32
REMARK   11  A    between atoms: C_28  and  O_31
REMARK   12  A    between atoms: O_35  and  C_36
REMARK   13  A    between atoms: C_38  and  O_52
REMARK   14  A    between atoms: C_40  and  O_51
REMARK   15  A    between atoms: C_41  and  O_50
REMARK   16  A    between atoms: C_43  and  C_45
REMARK   17  A    between atoms: C_45  and  O_46
REMARK   18  A    between atoms: O_46  and  C_47
REMARK   19  A    between atoms: C_47  and  C_49
REMARK                            x       y       z     vdW  Elec       q    Type
REMARK                         _______ _______ _______ _____ _____    ______ ____
ROOT
ATOM      1  C   UNL     1       0.805  -0.178   0.098  0.00  0.00    +0.041 C 
ATOM      2  C   UNL     1       2.316  -0.193  -0.123  0.00  0.00    +0.151 C 
ATOM      3  O   UNL     1       2.777   0.719  -1.110  0.00  0.00    -0.334 OA
ATOM      4  C   UNL     1       2.554   0.371  -2.475  0.00  0.00    +0.339 C 
ATOM      5  C   UNL     1       2.902  -1.071  -2.870  0.00  0.00    +0.214 C 
ATOM      6  C   UNL     1       2.499  -2.067  -1.790  0.00  0.00    +0.180 C 
ATOM      7  C   UNL     1       2.895  -1.589  -0.383  0.00  0.00    +0.181 C 
ENDROOT
BRANCH   6   8
ATOM      8  O   UNL     1       3.128  -3.331  -2.057  0.00  0.00    -0.386 OA
ATOM      9  H   UNL     1       4.072  -3.184  -1.845  0.00  0.00    +0.210 HD
ENDBRANCH   6   8
BRANCH   5  10
ATOM     10  O   UNL     1       4.321  -1.157  -3.115  0.00  0.00    -0.383 OA
ATOM     11  H   UNL     1       4.475  -2.015  -3.546  0.00  0.00    +0.210 HD
ENDBRANCH   5  10
BRANCH   7  12
ATOM     12  O   UNL     1       4.344  -1.613  -0.302  0.00  0.00    -0.340 OA
BRANCH  12  13
ATOM     13  C   UNL     1       4.904  -1.208   0.950  0.00  0.00    +0.282 C 
ATOM     14  O   UNL     1       6.338  -1.184   0.897  0.00  0.00    -0.339 OA
ATOM     15  C   UNL     1       6.951  -2.457   0.632  0.00  0.00    +0.190 C 
ATOM     16  C   UNL     1       6.506  -3.518   1.656  0.00  0.00    +0.178 C 
ATOM     17  C   UNL     1       4.982  -3.540   1.806  0.00  0.00    +0.179 C 
ATOM     18  C   UNL     1       4.448  -2.129   2.093  0.00  0.00    +0.201 C 
BRANCH  18  19
ATOM     19  O   UNL     1       4.906  -1.670   3.374  0.00  0.00    -0.384 OA
ATOM     20  H   UNL     1       5.887  -1.626   3.312  0.00  0.00    +0.210 HD
ENDBRANCH  18  19
BRANCH  17  21
ATOM     21  O   UNL     1       4.631  -4.423   2.884  0.00  0.00    -0.386 OA
ATOM     22  H   UNL     1       4.362  -3.853   3.632  0.00  0.00    +0.210 HD
ENDBRANCH  17  21
BRANCH  16  23
ATOM     23  O   UNL     1       7.069  -3.227   2.951  0.00  0.00    -0.386 OA
ATOM     24  H   UNL     1       6.696  -3.909   3.547  0.00  0.00    +0.210 HD
ENDBRANCH  16  23
BRANCH  15  25
ATOM     25  C   UNL     1       8.479  -2.276   0.706  0.00  0.00    +0.266 C 
BRANCH  25  26
ATOM     26  O   UNL     1       8.973  -1.335  -0.264  0.00  0.00    -0.462 OA
BRANCH  26  27
ATOM     27  C   UNL     1       9.138  -1.818  -1.521  0.00  0.00    +0.304 C 
ATOM     28  C   UNL     1       9.757  -0.778  -2.406  0.00  0.00    +0.136 C 
ATOM     29  O   UNL     1       8.854  -2.949  -1.886  0.00  0.00    -0.251 OA
ENDBRANCH  26  27
ENDBRANCH  25  26
ENDBRANCH  15  25
ENDBRANCH  12  13
ENDBRANCH   7  12
BRANCH   4  30
ATOM     30  O   UNL     1       1.233   0.697  -2.844  0.00  0.00    -0.453 OA
BRANCH  30  31
ATOM     31  C   UNL     1       0.917   2.001  -3.162  0.00  0.00    +0.214 A 
ATOM     32  C   UNL     1      -0.533   2.128  -3.543  0.00  0.00    +0.238 A 
ATOM     33  O   UNL     1      -1.321   1.220  -3.302  0.00  0.00    -0.283 OA
ATOM     34  C   UNL     1      -0.953   3.377  -4.206  0.00  0.00    +0.109 A 
ATOM     35  C   UNL     1      -0.046   4.434  -4.203  0.00  0.00    +0.147 A 
ATOM     36  C   UNL     1      -0.369   5.650  -4.808  0.00  0.00    +0.092 A 
ATOM     37  C   UNL     1      -1.613   5.793  -5.419  0.00  0.00    +0.124 A 
ATOM     38  C   UNL     1      -2.531   4.747  -5.438  0.00  0.00    +0.091 A 
ATOM     39  O   UNL     1       1.184   4.364  -3.603  0.00  0.00    -0.451 OA
ATOM     40  C   UNL     1      -2.201   3.538  -4.827  0.00  0.00    +0.135 A 
ATOM     41  C   UNL     1       1.671   3.131  -3.167  0.00  0.00    +0.181 A 
BRANCH  41  42
ATOM     42  C   UNL     1       3.094   3.300  -2.734  0.00  0.00    +0.025 A 
ATOM     43  C   UNL     1       4.151   3.200  -3.665  0.00  0.00    +0.015 A 
ATOM     44  C   UNL     1       5.488   3.376  -3.272  0.00  0.00    +0.050 A 
ATOM     45  C   UNL     1       5.776   3.671  -1.950  0.00  0.00    +0.158 A 
ATOM     46  C   UNL     1       4.754   3.753  -1.011  0.00  0.00    +0.159 A 
ATOM     47  C   UNL     1       3.418   3.578  -1.391  0.00  0.00    +0.060 A 
BRANCH  46  48
ATOM     48  O   UNL     1       5.118   3.998   0.288  0.00  0.00    -0.503 OA
ATOM     49  H   UNL     1       4.360   3.782   0.858  0.00  0.00    +0.292 HD
ENDBRANCH  46  48
BRANCH  45  50
ATOM     50  O   UNL     1       7.076   3.877  -1.576  0.00  0.00    -0.503 OA
ATOM     51  H   UNL     1       7.030   4.084  -0.621  0.00  0.00    +0.292 HD
ENDBRANCH  45  50
ENDBRANCH  41  42
BRANCH  40  52
ATOM     52  O   UNL     1      -3.111   2.522  -4.869  0.00  0.00    -0.506 OA
ATOM     53  H   UNL     1      -3.942   2.827  -5.266  0.00  0.00    +0.292 HD
ENDBRANCH  40  52
BRANCH  37  54
ATOM     54  O   UNL     1      -1.968   6.949  -6.043  0.00  0.00    -0.507 OA
ATOM     55  H   UNL     1      -1.237   7.589  -5.972  0.00  0.00    +0.292 HD
ENDBRANCH  37  54
ENDBRANCH  30  31
ENDBRANCH   4  30
TORSDOF 17
