REMARK  Name = 
REMARK  18 active torsions:
REMARK  status: ('A' for Active; 'I' for Inactive)
REMARK    1  A    between atoms: C_1  and  C_2
REMARK    2  A    between atoms: C_3  and  O_49
REMARK    3  A    between atoms: C_5  and  O_48
REMARK    4  A    between atoms: C_7  and  O_47
REMARK    5  A    between atoms: C_8  and  O_11
REMARK    6  A    between atoms: O_11  and  C_12
REMARK    7  A    between atoms: C_14  and  O_46
REMARK    8  A    between atoms: C_19  and  C_37
REMARK    9  A    between atoms: C_20  and  O_23
REMARK   10  A    between atoms: O_23  and  C_24
REMARK   11  A    between atoms: C_26  and  O_36
REMARK   12  A    between atoms: C_27  and  O_35
REMARK   13  A    between atoms: C_28  and  O_34
REMARK   14  A    between atoms: C_30  and  C_32
REMARK   15  A    between atoms: C_32  and  O_33
REMARK   16  A    between atoms: C_39  and  O_44
REMARK   17  A    between atoms: C_40  and  O_43
REMARK   18  A    between atoms: O_44  and  C_45
REMARK                            x       y       z     vdW  Elec       q    Type
REMARK                         _______ _______ _______ _____ _____    ______ ____
ROOT
ATOM      1  C   UNL     1       2.683   2.893  -3.155  0.00  0.00    +0.131 A 
ATOM      2  C   UNL     1       1.445   3.413  -2.757  0.00  0.00    +0.093 A 
ATOM      3  C   UNL     1       1.269   4.803  -2.639  0.00  0.00    +0.147 A 
ATOM      4  O   UNL     1       0.052   5.284  -2.216  0.00  0.00    -0.451 OA
ATOM      5  C   UNL     1      -0.204   6.667  -2.280  0.00  0.00    +0.181 A 
ATOM      6  C   UNL     1       0.767   7.603  -2.478  0.00  0.00    +0.214 A 
ATOM      7  C   UNL     1       2.164   7.053  -2.508  0.00  0.00    +0.238 A 
ATOM      8  O   UNL     1       3.138   7.677  -2.111  0.00  0.00    -0.283 OA
ATOM      9  C   UNL     1       2.330   5.654  -2.901  0.00  0.00    +0.109 A 
ATOM     10  C   UNL     1       3.541   5.143  -3.377  0.00  0.00    +0.135 A 
ATOM     11  C   UNL     1       3.717   3.770  -3.501  0.00  0.00    +0.092 A 
ENDROOT
BRANCH   5  12
ATOM     12  C   UNL     1      -1.649   6.983  -2.047  0.00  0.00    +0.025 A 
ATOM     13  C   UNL     1      -2.649   6.066  -2.431  0.00  0.00    +0.015 A 
ATOM     14  C   UNL     1      -3.996   6.302  -2.146  0.00  0.00    +0.050 A 
ATOM     15  C   UNL     1      -4.362   7.470  -1.484  0.00  0.00    +0.158 A 
ATOM     16  C   UNL     1      -3.411   8.401  -1.092  0.00  0.00    +0.162 A 
ATOM     17  C   UNL     1      -2.061   8.143  -1.353  0.00  0.00    +0.061 A 
BRANCH  15  18
ATOM     18  O   UNL     1      -5.681   7.672  -1.209  0.00  0.00    -0.503 OA
ATOM     19  H   UNL     1      -5.709   8.516  -0.710  0.00  0.00    +0.292 HD
ENDBRANCH  15  18
BRANCH  16  20
ATOM     20  O   UNL     1      -3.926   9.494  -0.425  0.00  0.00    -0.491 OA
ATOM     21  C   UNL     1      -3.024  10.522  -0.055  0.00  0.00    +0.277 C 
ENDBRANCH  16  20
ENDBRANCH   5  12
BRANCH  10  22
ATOM     22  O   UNL     1       4.555   5.979  -3.750  0.00  0.00    -0.506 OA
ATOM     23  H   UNL     1       5.382   5.478  -3.841  0.00  0.00    +0.292 HD
ENDBRANCH  10  22
BRANCH   6  24
ATOM     24  O   UNL     1       0.483   8.969  -2.626  0.00  0.00    -0.453 OA
BRANCH  24  25
ATOM     25  C   UNL     1       1.546   9.915  -2.400  0.00  0.00    +0.340 C 
ATOM     26  O   UNL     1       1.674  10.248  -1.012  0.00  0.00    -0.331 OA
ATOM     27  C   UNL     1       0.658  11.116  -0.506  0.00  0.00    +0.179 C 
ATOM     28  C   UNL     1       0.664  12.452  -1.253  0.00  0.00    +0.177 C 
ATOM     29  C   UNL     1       0.401  12.185  -2.736  0.00  0.00    +0.180 C 
ATOM     30  C   UNL     1       1.409  11.179  -3.287  0.00  0.00    +0.214 C 
BRANCH  28  31
ATOM     31  O   UNL     1      -0.335  13.335  -0.725  0.00  0.00    -0.386 OA
ATOM     32  H   UNL     1      -0.815  13.718  -1.487  0.00  0.00    +0.210 HD
ENDBRANCH  28  31
BRANCH  29  33
ATOM     33  O   UNL     1       0.457  13.440  -3.434  0.00  0.00    -0.386 OA
ATOM     34  H   UNL     1       1.393  13.660  -3.598  0.00  0.00    +0.210 HD
ENDBRANCH  29  33
BRANCH  30  35
ATOM     35  O   UNL     1       1.117  10.860  -4.652  0.00  0.00    -0.383 OA
ATOM     36  H   UNL     1       0.239  10.437  -4.677  0.00  0.00    +0.210 HD
ENDBRANCH  30  35
BRANCH  27  37
ATOM     37  C   UNL     1       0.851  11.303   1.008  0.00  0.00    +0.190 C 
BRANCH  37  38
ATOM     38  O   UNL     1      -0.153  12.126   1.594  0.00  0.00    -0.392 OA
ATOM     39  H   UNL     1      -0.215  12.937   1.041  0.00  0.00    +0.210 HD
ENDBRANCH  37  38
ENDBRANCH  27  37
ENDBRANCH  24  25
ENDBRANCH   6  24
BRANCH   1  40
ATOM     40  O   UNL     1       3.048   1.579  -3.239  0.00  0.00    -0.461 OA
BRANCH  40  44
ATOM     41  C   UNL     1      -0.587  -0.134  -1.692  0.00  0.00    +0.041 C 
ATOM     42  C   UNL     1       0.793  -0.355  -1.076  0.00  0.00    +0.150 C 
ATOM     43  O   UNL     1       1.704   0.662  -1.522  0.00  0.00    -0.334 OA
ATOM     44  C   UNL     1       2.101   0.561  -2.894  0.00  0.00    +0.339 C 
ATOM     45  C   UNL     1       2.816  -0.794  -3.109  0.00  0.00    +0.214 C 
ATOM     46  C   UNL     1       1.826  -1.921  -2.779  0.00  0.00    +0.180 C 
ATOM     47  C   UNL     1       1.325  -1.779  -1.330  0.00  0.00    +0.174 C 
BRANCH  47  48
ATOM     48  O   UNL     1       2.381  -2.075  -0.405  0.00  0.00    -0.387 OA
ATOM     49  H   UNL     1       3.175  -1.582  -0.712  0.00  0.00    +0.210 HD
ENDBRANCH  47  48
BRANCH  46  50
ATOM     50  O   UNL     1       2.407  -3.206  -3.025  0.00  0.00    -0.386 OA
ATOM     51  H   UNL     1       2.234  -3.768  -2.247  0.00  0.00    +0.210 HD
ENDBRANCH  46  50
BRANCH  45  52
ATOM     52  O   UNL     1       3.962  -0.880  -2.224  0.00  0.00    -0.383 OA
ATOM     53  H   UNL     1       4.309   0.030  -2.140  0.00  0.00    +0.210 HD
ENDBRANCH  45  52
ENDBRANCH  40  44
ENDBRANCH   1  40
TORSDOF 16
