REMARK  Name = 
REMARK  16 active torsions:
REMARK  status: ('A' for Active; 'I' for Inactive)
REMARK    1  A    between atoms: C_2  and  O_47
REMARK    2  A    between atoms: C_4  and  O_46
REMARK    3  A    between atoms: C_6  and  O_45
REMARK    4  A    between atoms: C_7  and  O_10
REMARK    5  A    between atoms: O_10  and  C_11
REMARK    6  A    between atoms: C_11  and  C_12
REMARK    7  A    between atoms: C_13  and  O_44
REMARK    8  A    between atoms: C_15  and  O_43
REMARK    9  A    between atoms: C_16  and  O_42
REMARK   10  A    between atoms: C_17  and  O_20
REMARK   11  A    between atoms: O_20  and  C_21
REMARK   12  A    between atoms: C_22  and  C_34
REMARK   13  A    between atoms: C_26  and  O_33
REMARK   14  A    between atoms: C_28  and  O_32
REMARK   15  A    between atoms: C_36  and  O_41
REMARK   16  A    between atoms: C_37  and  O_40
REMARK                            x       y       z     vdW  Elec       q    Type
REMARK                         _______ _______ _______ _____ _____    ______ ____
ROOT
ATOM      1  C   UNL     1       3.534  -3.565   0.161  0.00  0.00    +0.179 C 
ATOM      2  O   UNL     1       4.813  -3.382  -0.521  0.00  0.00    -0.331 OA
ATOM      3  C   UNL     1       4.645  -3.401  -1.961  0.00  0.00    +0.340 C 
ATOM      4  C   UNL     1       4.250  -4.818  -2.417  0.00  0.00    +0.214 C 
ATOM      5  C   UNL     1       2.943  -5.211  -1.692  0.00  0.00    +0.180 C 
ATOM      6  C   UNL     1       3.043  -4.985  -0.169  0.00  0.00    +0.177 C 
ENDROOT
BRANCH   6   7
ATOM      7  O   UNL     1       4.005  -5.944   0.341  0.00  0.00    -0.386 OA
ATOM      8  H   UNL     1       4.664  -5.463   0.876  0.00  0.00    +0.210 HD
ENDBRANCH   6   7
BRANCH   5   9
ATOM      9  O   UNL     1       2.622  -6.579  -1.960  0.00  0.00    -0.386 OA
ATOM     10  H   UNL     1       3.402  -7.085  -1.654  0.00  0.00    +0.210 HD
ENDBRANCH   5   9
BRANCH   4  11
ATOM     11  O   UNL     1       5.301  -5.766  -2.126  0.00  0.00    -0.383 OA
ATOM     12  H   UNL     1       5.471  -5.706  -1.172  0.00  0.00    +0.210 HD
ENDBRANCH   4  11
BRANCH   3  13
ATOM     13  O   UNL     1       5.809  -2.924  -2.635  0.00  0.00    -0.453 OA
BRANCH  13  14
ATOM     14  C   UNL     1       5.588  -1.877  -3.540  0.00  0.00    +0.214 A 
ATOM     15  C   UNL     1       4.298  -1.776  -4.305  0.00  0.00    +0.238 A 
ATOM     16  O   UNL     1       3.465  -2.676  -4.270  0.00  0.00    -0.283 OA
ATOM     17  C   UNL     1       4.067  -0.569  -5.104  0.00  0.00    +0.109 A 
ATOM     18  C   UNL     1       5.135   0.305  -5.271  0.00  0.00    +0.147 A 
ATOM     19  C   UNL     1       4.994   1.418  -6.113  0.00  0.00    +0.092 A 
ATOM     20  C   UNL     1       3.788   1.635  -6.764  0.00  0.00    +0.124 A 
ATOM     21  C   UNL     1       2.700   0.791  -6.582  0.00  0.00    +0.091 A 
ATOM     22  O   UNL     1       6.349   0.135  -4.653  0.00  0.00    -0.451 OA
ATOM     23  C   UNL     1       2.838  -0.309  -5.738  0.00  0.00    +0.135 A 
ATOM     24  C   UNL     1       6.530  -0.939  -3.782  0.00  0.00    +0.181 A 
BRANCH  24  25
ATOM     25  C   UNL     1       7.869  -0.941  -3.118  0.00  0.00    +0.025 A 
ATOM     26  C   UNL     1       8.515   0.272  -2.806  0.00  0.00    +0.015 A 
ATOM     27  C   UNL     1       9.755   0.289  -2.149  0.00  0.00    +0.050 A 
ATOM     28  C   UNL     1      10.353  -0.908  -1.792  0.00  0.00    +0.158 A 
ATOM     29  C   UNL     1       9.751  -2.117  -2.113  0.00  0.00    +0.159 A 
ATOM     30  C   UNL     1       8.537  -2.137  -2.793  0.00  0.00    +0.060 A 
BRANCH  29  31
ATOM     31  O   UNL     1      10.387  -3.268  -1.736  0.00  0.00    -0.503 OA
ATOM     32  H   UNL     1       9.825  -4.021  -1.990  0.00  0.00    +0.292 HD
ENDBRANCH  29  31
BRANCH  28  33
ATOM     33  O   UNL     1      11.541  -0.895  -1.119  0.00  0.00    -0.503 OA
ATOM     34  H   UNL     1      11.741  -1.840  -0.959  0.00  0.00    +0.292 HD
ENDBRANCH  28  33
ENDBRANCH  24  25
BRANCH  23  35
ATOM     35  O   UNL     1       1.746  -1.103  -5.521  0.00  0.00    -0.506 OA
ATOM     36  H   UNL     1       1.071  -0.928  -6.197  0.00  0.00    +0.292 HD
ENDBRANCH  23  35
BRANCH  20  37
ATOM     37  O   UNL     1       3.608   2.687  -7.618  0.00  0.00    -0.507 OA
ATOM     38  H   UNL     1       4.450   3.161  -7.723  0.00  0.00    +0.292 HD
ENDBRANCH  20  37
ENDBRANCH  13  14
ENDBRANCH   3  13
BRANCH   1  39
ATOM     39  C   UNL     1       2.584  -2.404  -0.190  0.00  0.00    +0.197 C 
BRANCH  39  40
ATOM     40  O   UNL     1       1.365  -2.296   0.544  0.00  0.00    -0.346 OA
BRANCH  40  43
ATOM     41  C   UNL     1       0.886   1.239  -0.195  0.00  0.00    +0.197 C 
ATOM     42  O   UNL     1       1.441   0.033   0.332  0.00  0.00    -0.346 OA
ATOM     43  C   UNL     1       0.664  -1.134   0.032  0.00  0.00    +0.281 C 
ATOM     44  C   UNL     1      -0.723  -1.013   0.685  0.00  0.00    +0.201 C 
ATOM     45  C   UNL     1      -1.396   0.246   0.099  0.00  0.00    +0.178 C 
ATOM     46  C   UNL     1      -0.526   1.490   0.336  0.00  0.00    +0.171 C 
BRANCH  46  47
ATOM     47  O   UNL     1      -0.474   1.808   1.734  0.00  0.00    -0.387 OA
ATOM     48  H   UNL     1      -0.269   0.968   2.205  0.00  0.00    +0.210 HD
ENDBRANCH  46  47
BRANCH  45  49
ATOM     49  O   UNL     1      -2.719   0.423   0.608  0.00  0.00    -0.386 OA
ATOM     50  H   UNL     1      -2.751   1.294   1.049  0.00  0.00    +0.210 HD
ENDBRANCH  45  49
BRANCH  44  51
ATOM     51  O   UNL     1      -0.553  -0.884   2.111  0.00  0.00    -0.384 OA
ATOM     52  H   UNL     1       0.164  -1.511   2.339  0.00  0.00    +0.210 HD
ENDBRANCH  44  51
ENDBRANCH  40  43
ENDBRANCH  39  40
ENDBRANCH   1  39
TORSDOF 16
