REMARK  Name = 
REMARK  15 active torsions:
REMARK  status: ('A' for Active; 'I' for Inactive)
REMARK    1  A    between atoms: C_1  and  C_2
REMARK    2  A    between atoms: C_3  and  O_47
REMARK    3  A    between atoms: C_5  and  O_46
REMARK    4  A    between atoms: C_6  and  O_33
REMARK    5  A    between atoms: C_8  and  O_11
REMARK    6  A    between atoms: O_11  and  C_12
REMARK    7  A    between atoms: C_13  and  C_25
REMARK    8  A    between atoms: C_17  and  O_24
REMARK    9  A    between atoms: C_19  and  O_23
REMARK   10  A    between atoms: C_27  and  O_32
REMARK   11  A    between atoms: C_28  and  O_31
REMARK   12  A    between atoms: O_33  and  C_34
REMARK   13  A    between atoms: C_36  and  O_45
REMARK   14  A    between atoms: C_38  and  O_44
REMARK   15  A    between atoms: C_39  and  O_43
REMARK                            x       y       z     vdW  Elec       q    Type
REMARK                         _______ _______ _______ _____ _____    ______ ____
ROOT
ATOM      1  O   UNL     1       3.790   1.983  -1.884  0.00  0.00    -0.453 OA
ENDROOT
BRANCH   1   2
ATOM      2  C   UNL     1       3.401   3.108  -2.615  0.00  0.00    +0.214 A 
ATOM      3  C   UNL     1       2.425   2.912  -3.751  0.00  0.00    +0.238 A 
ATOM      4  O   UNL     1       2.049   1.788  -4.061  0.00  0.00    -0.283 OA
ATOM      5  C   UNL     1       1.950   4.100  -4.490  0.00  0.00    +0.109 A 
ATOM      6  C   UNL     1       2.556   5.309  -4.197  0.00  0.00    +0.147 A 
ATOM      7  C   UNL     1       2.186   6.492  -4.850  0.00  0.00    +0.092 A 
ATOM      8  C   UNL     1       1.178   6.455  -5.799  0.00  0.00    +0.124 A 
ATOM      9  C   UNL     1       0.553   5.255  -6.115  0.00  0.00    +0.091 A 
ATOM     10  O   UNL     1       3.539   5.433  -3.269  0.00  0.00    -0.451 OA
ATOM     11  C   UNL     1       0.938   4.078  -5.462  0.00  0.00    +0.135 A 
ATOM     12  C   UNL     1       3.939   4.358  -2.471  0.00  0.00    +0.181 A 
BRANCH  12  13
ATOM     13  C   UNL     1       5.034   4.871  -1.558  0.00  0.00    +0.025 A 
ATOM     14  C   UNL     1       5.798   5.999  -1.982  0.00  0.00    +0.015 A 
ATOM     15  C   UNL     1       6.764   6.629  -1.183  0.00  0.00    +0.050 A 
ATOM     16  C   UNL     1       6.989   6.160   0.092  0.00  0.00    +0.158 A 
ATOM     17  C   UNL     1       6.262   5.054   0.543  0.00  0.00    +0.159 A 
ATOM     18  C   UNL     1       5.290   4.418  -0.261  0.00  0.00    +0.060 A 
BRANCH  16  19
ATOM     19  O   UNL     1       7.899   6.811   0.870  0.00  0.00    -0.503 OA
ATOM     20  H   UNL     1       7.647   6.659   1.799  0.00  0.00    +0.292 HD
ENDBRANCH  16  19
BRANCH  17  21
ATOM     21  O   UNL     1       6.481   4.601   1.820  0.00  0.00    -0.503 OA
ATOM     22  H   UNL     1       7.427   4.369   1.856  0.00  0.00    +0.292 HD
ENDBRANCH  17  21
ENDBRANCH  12  13
BRANCH   8  23
ATOM     23  O   UNL     1       0.759   7.581  -6.442  0.00  0.00    -0.507 OA
ATOM     24  H   UNL     1       1.217   8.355  -6.071  0.00  0.00    +0.292 HD
ENDBRANCH   8  23
BRANCH  11  25
ATOM     25  O   UNL     1       0.295   2.917  -5.790  0.00  0.00    -0.506 OA
ATOM     26  H   UNL     1      -0.270   3.060  -6.567  0.00  0.00    +0.292 HD
ENDBRANCH  11  25
ENDBRANCH   1   2
BRANCH   1  30
ATOM     27  C   UNL     1       0.702  -0.178   0.580  0.00  0.00    +0.041 C 
ATOM     28  C   UNL     1       2.231  -0.266   0.545  0.00  0.00    +0.150 C 
ATOM     29  O   UNL     1       2.866   0.842  -0.101  0.00  0.00    -0.334 OA
ATOM     30  C   UNL     1       2.793   0.958  -1.537  0.00  0.00    +0.340 C 
ATOM     31  C   UNL     1       3.034  -0.422  -2.286  0.00  0.00    +0.221 C 
ATOM     32  C   UNL     1       2.389  -1.621  -1.536  0.00  0.00    +0.180 C 
ATOM     33  C   UNL     1       2.724  -1.585  -0.043  0.00  0.00    +0.174 C 
BRANCH  32  34
ATOM     34  O   UNL     1       2.859  -2.874  -2.072  0.00  0.00    -0.386 OA
ATOM     35  H   UNL     1       3.786  -2.940  -1.764  0.00  0.00    +0.210 HD
ENDBRANCH  32  34
BRANCH  33  36
ATOM     36  O   UNL     1       4.145  -1.713   0.142  0.00  0.00    -0.387 OA
ATOM     37  H   UNL     1       4.568  -0.989  -0.364  0.00  0.00    +0.210 HD
ENDBRANCH  33  36
BRANCH  31  38
ATOM     38  O   UNL     1       4.423  -0.804  -2.434  0.00  0.00    -0.337 OA
BRANCH  38  39
ATOM     39  C   UNL     1       5.061  -0.335  -3.626  0.00  0.00    +0.282 C 
ATOM     40  O   UNL     1       4.286  -0.451  -4.822  0.00  0.00    -0.346 OA
ATOM     41  C   UNL     1       3.992  -1.783  -5.246  0.00  0.00    +0.197 C 
ATOM     42  C   UNL     1       5.245  -2.625  -5.454  0.00  0.00    +0.171 C 
ATOM     43  C   UNL     1       6.148  -2.547  -4.221  0.00  0.00    +0.178 C 
ATOM     44  C   UNL     1       6.404  -1.086  -3.802  0.00  0.00    +0.201 C 
BRANCH  42  45
ATOM     45  O   UNL     1       5.963  -2.128  -6.601  0.00  0.00    -0.387 OA
ATOM     46  H   UNL     1       6.440  -2.896  -6.970  0.00  0.00    +0.210 HD
ENDBRANCH  42  45
BRANCH  43  47
ATOM     47  O   UNL     1       7.391  -3.198  -4.534  0.00  0.00    -0.386 OA
ATOM     48  H   UNL     1       7.873  -2.559  -5.097  0.00  0.00    +0.210 HD
ENDBRANCH  43  47
BRANCH  44  49
ATOM     49  O   UNL     1       7.222  -0.455  -4.808  0.00  0.00    -0.384 OA
ATOM     50  H   UNL     1       6.720  -0.531  -5.649  0.00  0.00    +0.210 HD
ENDBRANCH  44  49
ENDBRANCH  38  39
ENDBRANCH  31  38
ENDBRANCH   1  30
TORSDOF 14
