REMARK  Name = 
REMARK  17 active torsions:
REMARK  status: ('A' for Active; 'I' for Inactive)
REMARK    1  A    between atoms: C_1  and  O_2
REMARK    2  A    between atoms: O_2  and  C_3
REMARK    3  A    between atoms: C_4  and  O_49
REMARK    4  A    between atoms: C_7  and  C_9
REMARK    5  A    between atoms: C_10  and  O_22
REMARK    6  A    between atoms: C_14  and  O_21
REMARK    7  A    between atoms: C_16  and  O_20
REMARK    8  A    between atoms: O_22  and  C_23
REMARK    9  A    between atoms: C_25  and  O_36
REMARK   10  A    between atoms: C_26  and  O_35
REMARK   11  A    between atoms: C_28  and  O_34
REMARK   12  A    between atoms: C_30  and  C_32
REMARK   13  A    between atoms: C_32  and  O_33
REMARK   14  A    between atoms: O_36  and  C_37
REMARK   15  A    between atoms: C_39  and  O_48
REMARK   16  A    between atoms: C_40  and  O_47
REMARK   17  A    between atoms: C_42  and  O_46
REMARK                            x       y       z     vdW  Elec       q    Type
REMARK                         _______ _______ _______ _____ _____    ______ ____
ROOT
ATOM      1  O   UNL     1       0.877  -4.029   0.607  0.00  0.00    -0.453 OA
ENDROOT
BRANCH   1  12
ATOM      2  C   UNL     1       2.118  -6.084   1.366  0.00  0.00    +0.181 A 
ATOM      3  O   UNL     1       3.325  -6.694   1.760  0.00  0.00    -0.451 OA
ATOM      4  C   UNL     1       4.484  -5.974   1.873  0.00  0.00    +0.147 A 
ATOM      5  C   UNL     1       4.559  -4.662   1.474  0.00  0.00    +0.109 A 
ATOM      6  C   UNL     1       5.751  -3.920   1.569  0.00  0.00    +0.135 A 
ATOM      7  C   UNL     1       6.900  -4.525   2.037  0.00  0.00    +0.091 A 
ATOM      8  C   UNL     1       6.845  -5.870   2.391  0.00  0.00    +0.124 A 
ATOM      9  C   UNL     1       3.424  -4.139   0.770  0.00  0.00    +0.238 A 
ATOM     10  O   UNL     1       3.676  -3.226  -0.018  0.00  0.00    -0.283 OA
ATOM     11  C   UNL     1       5.647  -6.594   2.334  0.00  0.00    +0.092 A 
ATOM     12  C   UNL     1       2.056  -4.768   0.955  0.00  0.00    +0.214 A 
BRANCH   2  15
ATOM     13  C   UNL     1       0.385  -9.463   1.064  0.00  0.00    +0.162 A 
ATOM     14  C   UNL     1       1.336  -8.469   1.315  0.00  0.00    +0.061 A 
ATOM     15  C   UNL     1       0.998  -7.087   1.334  0.00  0.00    +0.025 A 
ATOM     16  C   UNL     1      -0.364  -6.764   1.240  0.00  0.00    +0.015 A 
ATOM     17  C   UNL     1      -1.336  -7.760   1.029  0.00  0.00    +0.050 A 
ATOM     18  C   UNL     1      -0.949  -9.086   0.914  0.00  0.00    +0.158 A 
BRANCH  18  19
ATOM     19  O   UNL     1      -1.899 -10.024   0.607  0.00  0.00    -0.503 OA
ATOM     20  H   UNL     1      -1.410 -10.863   0.496  0.00  0.00    +0.292 HD
ENDBRANCH  18  19
BRANCH  13  22
ATOM     21  C   UNL     1       1.971 -11.165   0.599  0.00  0.00    +0.277 C 
ATOM     22  O   UNL     1       0.636 -10.808   0.949  0.00  0.00    -0.491 OA
ENDBRANCH  13  22
ENDBRANCH   2  15
BRANCH   8  23
ATOM     23  O   UNL     1       7.976  -6.526   2.782  0.00  0.00    -0.507 OA
ATOM     24  H   UNL     1       8.730  -5.912   2.710  0.00  0.00    +0.292 HD
ENDBRANCH   8  23
BRANCH   6  25
ATOM     25  O   UNL     1       5.845  -2.610   1.191  0.00  0.00    -0.506 OA
ATOM     26  H   UNL     1       5.029  -2.385   0.689  0.00  0.00    +0.292 HD
ENDBRANCH   6  25
ENDBRANCH   1  12
BRANCH   1  27
ATOM     27  C   UNL     1       1.145  -2.603   0.477  0.00  0.00    +0.340 C 
ATOM     28  O   UNL     1       1.756  -2.097   1.676  0.00  0.00    -0.331 OA
ATOM     29  C   UNL     1       0.814  -1.717   2.687  0.00  0.00    +0.179 C 
ATOM     30  C   UNL     1       0.090  -0.460   2.189  0.00  0.00    +0.177 C 
ATOM     31  C   UNL     1      -0.726  -0.845   0.946  0.00  0.00    +0.180 C 
ATOM     32  C   UNL     1       0.139  -1.562  -0.109  0.00  0.00    +0.221 C 
BRANCH  31  33
ATOM     33  O   UNL     1      -1.847  -1.621   1.395  0.00  0.00    -0.386 OA
ATOM     34  H   UNL     1      -1.939  -2.397   0.812  0.00  0.00    +0.210 HD
ENDBRANCH  31  33
BRANCH  30  35
ATOM     35  O   UNL     1      -0.769   0.103   3.185  0.00  0.00    -0.386 OA
ATOM     36  H   UNL     1      -1.662  -0.262   3.002  0.00  0.00    +0.210 HD
ENDBRANCH  30  35
BRANCH  32  37
ATOM     37  O   UNL     1      -0.679  -1.952  -1.215  0.00  0.00    -0.337 OA
BRANCH  37  38
ATOM     38  C   UNL     1       0.004  -2.294  -2.440  0.00  0.00    +0.282 C 
ATOM     39  O   UNL     1       0.847  -1.274  -2.966  0.00  0.00    -0.346 OA
ATOM     40  C   UNL     1       0.222  -0.146  -3.597  0.00  0.00    +0.197 C 
ATOM     41  C   UNL     1      -1.052  -0.395  -4.438  0.00  0.00    +0.171 C 
ATOM     42  C   UNL     1      -1.936  -1.466  -3.811  0.00  0.00    +0.178 C 
ATOM     43  C   UNL     1      -1.053  -2.691  -3.490  0.00  0.00    +0.201 C 
BRANCH  43  44
ATOM     44  O   UNL     1      -1.852  -3.792  -3.051  0.00  0.00    -0.384 OA
ATOM     45  H   UNL     1      -1.254  -4.550  -2.931  0.00  0.00    +0.210 HD
ENDBRANCH  43  44
BRANCH  42  46
ATOM     46  O   UNL     1      -2.608  -0.900  -2.680  0.00  0.00    -0.386 OA
ATOM     47  H   UNL     1      -2.059  -1.071  -1.890  0.00  0.00    +0.210 HD
ENDBRANCH  42  46
BRANCH  41  48
ATOM     48  O   UNL     1      -0.706  -0.794  -5.770  0.00  0.00    -0.387 OA
ATOM     49  H   UNL     1      -1.533  -0.782  -6.289  0.00  0.00    +0.210 HD
ENDBRANCH  41  48
ENDBRANCH  37  38
ENDBRANCH  32  37
BRANCH  29  50
ATOM     50  C   UNL     1       1.583  -1.487   3.996  0.00  0.00    +0.190 C 
BRANCH  50  51
ATOM     51  O   UNL     1       0.749  -1.076   5.071  0.00  0.00    -0.392 OA
ATOM     52  H   UNL     1       0.197  -0.337   4.737  0.00  0.00    +0.210 HD
ENDBRANCH  50  51
ENDBRANCH  29  50
ENDBRANCH   1  27
TORSDOF 16
