REMARK  Name = 
REMARK  22 active torsions:
REMARK  status: ('A' for Active; 'I' for Inactive)
REMARK    1  A    between atoms: C_1  and  C_2
REMARK    2  A    between atoms: C_4  and  O_61
REMARK    3  A    between atoms: C_6  and  O_60
REMARK    4  A    between atoms: C_7  and  O_59
REMARK    5  A    between atoms: C_8  and  O_11
REMARK    6  A    between atoms: O_11  and  C_12
REMARK    7  A    between atoms: C_13  and  O_58
REMARK    8  A    between atoms: C_15  and  O_57
REMARK    9  A    between atoms: C_17  and  C_55
REMARK   10  A    between atoms: C_19  and  O_21
REMARK   11  A    between atoms: O_21  and  C_22
REMARK   12  A    between atoms: C_23  and  C_47
REMARK   13  A    between atoms: C_27  and  O_34
REMARK   14  A    between atoms: C_29  and  O_33
REMARK   15  A    between atoms: O_34  and  C_35
REMARK   16  A    between atoms: C_37  and  O_46
REMARK   17  A    between atoms: C_38  and  O_45
REMARK   18  A    between atoms: C_39  and  O_44
REMARK   19  A    between atoms: C_41  and  C_43
REMARK   20  A    between atoms: C_49  and  O_54
REMARK   21  A    between atoms: C_50  and  O_53
REMARK   22  A    between atoms: C_55  and  O_56
REMARK                            x       y       z     vdW  Elec       q    Type
REMARK                         _______ _______ _______ _____ _____    ______ ____
ROOT
ATOM      1  C   UNL     1       0.097   0.777  -2.651  0.00  0.00    +0.214 A 
ATOM      2  C   UNL     1      -0.167  -0.681  -2.346  0.00  0.00    +0.238 A 
ATOM      3  O   UNL     1       0.082  -1.545  -3.180  0.00  0.00    -0.283 OA
ATOM      4  C   UNL     1      -0.694  -1.015  -1.010  0.00  0.00    +0.109 A 
ATOM      5  C   UNL     1      -1.106   0.045  -0.225  0.00  0.00    +0.147 A 
ATOM      6  C   UNL     1      -1.536  -0.156   1.085  0.00  0.00    +0.093 A 
ATOM      7  C   UNL     1      -1.594  -1.442   1.633  0.00  0.00    +0.131 A 
ATOM      8  C   UNL     1      -1.236  -2.528   0.830  0.00  0.00    +0.092 A 
ATOM      9  O   UNL     1      -1.145   1.337  -0.662  0.00  0.00    -0.451 OA
ATOM     10  C   UNL     1      -0.773  -2.314  -0.480  0.00  0.00    +0.135 A 
ATOM     11  C   UNL     1      -0.482   1.693  -1.828  0.00  0.00    +0.181 A 
ENDROOT
BRANCH  11  12
ATOM     12  C   UNL     1      -0.538   3.176  -1.987  0.00  0.00    +0.025 A 
ATOM     13  C   UNL     1      -0.841   3.779  -3.219  0.00  0.00    +0.015 A 
ATOM     14  C   UNL     1      -0.741   5.166  -3.390  0.00  0.00    +0.050 A 
ATOM     15  C   UNL     1      -0.433   5.966  -2.304  0.00  0.00    +0.158 A 
ATOM     16  C   UNL     1      -0.324   5.407  -1.042  0.00  0.00    +0.159 A 
ATOM     17  C   UNL     1      -0.358   4.024  -0.872  0.00  0.00    +0.060 A 
BRANCH  16  18
ATOM     18  O   UNL     1      -0.184   6.248   0.025  0.00  0.00    -0.503 OA
ATOM     19  H   UNL     1      -0.975   6.108   0.581  0.00  0.00    +0.292 HD
ENDBRANCH  16  18
BRANCH  15  20
ATOM     20  O   UNL     1      -0.231   7.302  -2.490  0.00  0.00    -0.503 OA
ATOM     21  H   UNL     1       0.105   7.634  -1.634  0.00  0.00    +0.292 HD
ENDBRANCH  15  20
ENDBRANCH  11  12
BRANCH  10  22
ATOM     22  O   UNL     1      -0.388  -3.388  -1.230  0.00  0.00    -0.506 OA
ATOM     23  H   UNL     1      -0.468  -4.214  -0.729  0.00  0.00    +0.292 HD
ENDBRANCH  10  22
BRANCH   7  24
ATOM     24  O   UNL     1      -1.980  -1.722   2.920  0.00  0.00    -0.461 OA
BRANCH  24  25
ATOM     25  C   UNL     1      -2.050  -0.587   3.817  0.00  0.00    +0.339 C 
ATOM     26  O   UNL     1      -0.755  -0.031   4.078  0.00  0.00    -0.334 OA
ATOM     27  C   UNL     1       0.110  -0.945   4.762  0.00  0.00    +0.150 C 
ATOM     28  C   UNL     1       1.476  -0.279   4.899  0.00  0.00    +0.041 C 
ATOM     29  C   UNL     1      -0.467  -1.313   6.137  0.00  0.00    +0.174 C 
ATOM     30  C   UNL     1      -1.909  -1.838   6.025  0.00  0.00    +0.180 C 
ATOM     31  C   UNL     1      -2.761  -0.924   5.140  0.00  0.00    +0.214 C 
BRANCH  31  32
ATOM     32  O   UNL     1      -4.066  -1.462   4.897  0.00  0.00    -0.383 OA
ATOM     33  H   UNL     1      -3.957  -2.344   4.503  0.00  0.00    +0.210 HD
ENDBRANCH  31  32
BRANCH  30  34
ATOM     34  O   UNL     1      -2.503  -1.897   7.335  0.00  0.00    -0.386 OA
ATOM     35  H   UNL     1      -1.780  -1.899   7.990  0.00  0.00    +0.210 HD
ENDBRANCH  30  34
BRANCH  29  36
ATOM     36  O   UNL     1       0.335  -2.279   6.824  0.00  0.00    -0.387 OA
ATOM     37  H   UNL     1       0.625  -2.957   6.188  0.00  0.00    +0.210 HD
ENDBRANCH  29  36
ENDBRANCH  24  25
ENDBRANCH   7  24
BRANCH   1  38
ATOM     38  O   UNL     1       0.891   0.943  -3.763  0.00  0.00    -0.453 OA
BRANCH  38  40
ATOM     39  C   UNL     1       2.873   2.212  -2.903  0.00  0.00    +0.221 C 
ATOM     40  C   UNL     1       1.763   2.046  -3.970  0.00  0.00    +0.340 C 
ATOM     41  O   UNL     1       2.327   1.969  -5.285  0.00  0.00    -0.331 OA
ATOM     42  C   UNL     1       2.924   3.197  -5.722  0.00  0.00    +0.179 C 
ATOM     43  C   UNL     1       4.065   3.590  -4.774  0.00  0.00    +0.177 C 
ATOM     44  C   UNL     1       3.744   3.432  -3.276  0.00  0.00    +0.180 C 
BRANCH  44  45
ATOM     45  O   UNL     1       3.201   4.622  -2.688  0.00  0.00    -0.386 OA
ATOM     46  H   UNL     1       2.567   5.037  -3.294  0.00  0.00    +0.210 HD
ENDBRANCH  44  45
BRANCH  43  47
ATOM     47  O   UNL     1       4.519   4.921  -5.033  0.00  0.00    -0.386 OA
ATOM     48  H   UNL     1       4.927   5.262  -4.213  0.00  0.00    +0.210 HD
ENDBRANCH  43  47
BRANCH  42  49
ATOM     49  C   UNL     1       1.916   4.341  -5.964  0.00  0.00    +0.190 C 
BRANCH  49  50
ATOM     50  O   UNL     1       0.833   3.940  -6.796  0.00  0.00    -0.392 OA
ATOM     51  H   UNL     1       1.170   3.887  -7.708  0.00  0.00    +0.210 HD
ENDBRANCH  49  50
ENDBRANCH  42  49
BRANCH  39  52
ATOM     52  O   UNL     1       3.654   1.012  -2.695  0.00  0.00    -0.337 OA
BRANCH  52  56
ATOM     53  C   UNL     1       7.542  -0.952  -0.786  0.00  0.00    +0.041 C 
ATOM     54  C   UNL     1       6.542   0.184  -0.649  0.00  0.00    +0.149 C 
ATOM     55  O   UNL     1       5.438  -0.047  -1.554  0.00  0.00    -0.343 OA
ATOM     56  C   UNL     1       4.593   1.114  -1.612  0.00  0.00    +0.282 C 
ATOM     57  C   UNL     1       3.905   1.309  -0.243  0.00  0.00    +0.201 C 
ATOM     58  C   UNL     1       4.990   1.494   0.823  0.00  0.00    +0.179 C 
ATOM     59  C   UNL     1       6.014   0.346   0.792  0.00  0.00    +0.174 C 
BRANCH  59  60
ATOM     60  O   UNL     1       5.406  -0.872   1.241  0.00  0.00    -0.387 OA
ATOM     61  H   UNL     1       4.712  -1.095   0.587  0.00  0.00    +0.210 HD
ENDBRANCH  59  60
BRANCH  58  62
ATOM     62  O   UNL     1       4.382   1.615   2.109  0.00  0.00    -0.386 OA
ATOM     63  H   UNL     1       3.836   0.808   2.205  0.00  0.00    +0.210 HD
ENDBRANCH  58  62
BRANCH  57  64
ATOM     64  O   UNL     1       3.076   0.173   0.078  0.00  0.00    -0.384 OA
ATOM     65  H   UNL     1       2.785  -0.206  -0.777  0.00  0.00    +0.210 HD
ENDBRANCH  57  64
ENDBRANCH  52  56
ENDBRANCH  39  52
ENDBRANCH  38  40
ENDBRANCH   1  38
TORSDOF 20
