REMARK  Name = 
REMARK  22 active torsions:
REMARK  status: ('A' for Active; 'I' for Inactive)
REMARK    1  A    between atoms: C_1  and  C_2
REMARK    2  A    between atoms: C_4  and  O_64
REMARK    3  A    between atoms: C_6  and  O_63
REMARK    4  A    between atoms: C_8  and  O_62
REMARK    5  A    between atoms: C_10  and  O_13
REMARK    6  A    between atoms: O_13  and  C_14
REMARK    7  A    between atoms: C_14  and  C_15
REMARK    8  A    between atoms: C_17  and  O_61
REMARK    9  A    between atoms: C_19  and  O_60
REMARK   10  A    between atoms: C_21  and  O_48
REMARK   11  A    between atoms: C_23  and  O_26
REMARK   12  A    between atoms: O_26  and  C_27
REMARK   13  A    between atoms: C_28  and  C_40
REMARK   14  A    between atoms: C_32  and  O_39
REMARK   15  A    between atoms: C_34  and  O_38
REMARK   16  A    between atoms: C_42  and  O_47
REMARK   17  A    between atoms: C_43  and  O_46
REMARK   18  A    between atoms: O_48  and  C_49
REMARK   19  A    between atoms: C_51  and  O_59
REMARK   20  A    between atoms: C_53  and  C_56
REMARK   21  A    between atoms: C_53  and  O_58
REMARK   22  A    between atoms: C_56  and  O_57
REMARK                            x       y       z     vdW  Elec       q    Type
REMARK                         _______ _______ _______ _____ _____    ______ ____
ROOT
ATOM      1  C   UNL     1       3.240   4.134  -4.573  0.00  0.00    +0.179 C 
ATOM      2  O   UNL     1       3.859   5.322  -4.089  0.00  0.00    -0.331 OA
ATOM      3  C   UNL     1       3.034   6.047  -3.193  0.00  0.00    +0.340 C 
ATOM      4  C   UNL     1       1.797   6.620  -3.955  0.00  0.00    +0.221 C 
ATOM      5  C   UNL     1       1.144   5.435  -4.743  0.00  0.00    +0.180 C 
ATOM      6  C   UNL     1       2.167   4.609  -5.550  0.00  0.00    +0.177 C 
ENDROOT
BRANCH   5   7
ATOM      7  O   UNL     1       0.089   5.907  -5.599  0.00  0.00    -0.386 OA
ATOM      8  H   UNL     1      -0.022   5.253  -6.311  0.00  0.00    +0.210 HD
ENDBRANCH   5   7
BRANCH   6   9
ATOM      9  O   UNL     1       2.703   5.441  -6.584  0.00  0.00    -0.386 OA
ATOM     10  H   UNL     1       3.649   5.587  -6.364  0.00  0.00    +0.210 HD
ENDBRANCH   6   9
BRANCH   4  11
ATOM     11  O   UNL     1       0.763   7.082  -3.050  0.00  0.00    -0.337 OA
BRANCH  11  12
ATOM     12  C   UNL     1       1.043   8.318  -2.418  0.00  0.00    +0.282 C 
ATOM     13  O   UNL     1       2.099   8.188  -1.468  0.00  0.00    -0.346 OA
ATOM     14  C   UNL     1       1.735   8.800  -0.230  0.00  0.00    +0.202 C 
ATOM     15  C   UNL     1       0.489   9.621  -0.518  0.00  0.00    +0.142 C 
ATOM     16  C   UNL     1      -0.176   8.797  -1.616  0.00  0.00    +0.206 C 
BRANCH  16  17
ATOM     17  O   UNL     1      -1.095   9.576  -2.383  0.00  0.00    -0.384 OA
ATOM     18  H   UNL     1      -0.670  10.442  -2.537  0.00  0.00    +0.210 HD
ENDBRANCH  16  17
BRANCH  15  19
ATOM     19  O   UNL     1       0.840  10.912  -1.067  0.00  0.00    -0.381 OA
ATOM     20  H   UNL     1       1.626  10.804  -1.635  0.00  0.00    +0.210 HD
ENDBRANCH  15  19
BRANCH  15  21
ATOM     21  C   UNL     1      -0.359   9.830   0.735  0.00  0.00    +0.195 C 
BRANCH  21  22
ATOM     22  O   UNL     1      -0.753   8.602   1.341  0.00  0.00    -0.392 OA
ATOM     23  H   UNL     1      -1.526   8.266   0.850  0.00  0.00    +0.210 HD
ENDBRANCH  21  22
ENDBRANCH  15  21
ENDBRANCH  11  12
ENDBRANCH   4  11
BRANCH   3  24
ATOM     24  O   UNL     1       3.932   6.974  -2.562  0.00  0.00    -0.453 OA
BRANCH  24  25
ATOM     25  C   UNL     1       4.776   6.416  -1.581  0.00  0.00    +0.214 A 
ATOM     26  C   UNL     1       4.652   4.956  -1.173  0.00  0.00    +0.238 A 
ATOM     27  O   UNL     1       4.103   4.099  -1.840  0.00  0.00    -0.283 OA
ATOM     28  C   UNL     1       5.274   4.517   0.058  0.00  0.00    +0.109 A 
ATOM     29  C   UNL     1       6.222   5.355   0.619  0.00  0.00    +0.147 A 
ATOM     30  C   UNL     1       6.926   4.950   1.757  0.00  0.00    +0.092 A 
ATOM     31  C   UNL     1       6.670   3.695   2.305  0.00  0.00    +0.124 A 
ATOM     32  C   UNL     1       5.725   2.840   1.753  0.00  0.00    +0.091 A 
ATOM     33  O   UNL     1       6.528   6.573   0.082  0.00  0.00    -0.451 OA
ATOM     34  C   UNL     1       5.022   3.256   0.633  0.00  0.00    +0.135 A 
ATOM     35  C   UNL     1       5.739   7.133  -0.935  0.00  0.00    +0.181 A 
BRANCH  35  36
ATOM     36  C   UNL     1       6.114   8.583  -1.149  0.00  0.00    +0.025 A 
ATOM     37  C   UNL     1       5.402   9.490  -1.957  0.00  0.00    +0.015 A 
ATOM     38  C   UNL     1       5.709  10.864  -1.979  0.00  0.00    +0.050 A 
ATOM     39  C   UNL     1       6.747  11.348  -1.204  0.00  0.00    +0.158 A 
ATOM     40  C   UNL     1       7.540  10.470  -0.486  0.00  0.00    +0.159 A 
ATOM     41  C   UNL     1       7.234   9.109  -0.454  0.00  0.00    +0.060 A 
BRANCH  39  42
ATOM     42  O   UNL     1       6.983  12.690  -1.145  0.00  0.00    -0.503 OA
ATOM     43  H   UNL     1       7.666  12.793  -0.452  0.00  0.00    +0.292 HD
ENDBRANCH  39  42
BRANCH  40  44
ATOM     44  O   UNL     1       8.614  10.985   0.186  0.00  0.00    -0.503 OA
ATOM     45  H   UNL     1       9.294  10.290   0.225  0.00  0.00    +0.292 HD
ENDBRANCH  40  44
ENDBRANCH  35  36
BRANCH  34  46
ATOM     46  O   UNL     1       4.065   2.422   0.121  0.00  0.00    -0.506 OA
ATOM     47  H   UNL     1       4.124   1.546   0.533  0.00  0.00    +0.292 HD
ENDBRANCH  34  46
BRANCH  31  48
ATOM     48  O   UNL     1       7.329   3.243   3.410  0.00  0.00    -0.507 OA
ATOM     49  H   UNL     1       7.952   3.920   3.704  0.00  0.00    +0.292 HD
ENDBRANCH  31  48
ENDBRANCH  24  25
ENDBRANCH   3  24
BRANCH   1  50
ATOM     50  C   UNL     1       4.365   3.293  -5.164  0.00  0.00    +0.197 C 
BRANCH  50  51
ATOM     51  O   UNL     1       5.048   4.079  -6.136  0.00  0.00    -0.346 OA
BRANCH  51  55
ATOM     52  C   UNL     1       8.237   1.162  -6.622  0.00  0.00    +0.041 C 
ATOM     53  C   UNL     1       8.380   2.598  -6.131  0.00  0.00    +0.149 C 
ATOM     54  O   UNL     1       7.135   3.140  -5.676  0.00  0.00    -0.343 OA
ATOM     55  C   UNL     1       6.179   3.422  -6.698  0.00  0.00    +0.282 C 
ATOM     56  C   UNL     1       6.728   4.386  -7.772  0.00  0.00    +0.201 C 
ATOM     57  C   UNL     1       8.103   3.945  -8.280  0.00  0.00    +0.179 C 
ATOM     58  C   UNL     1       9.033   3.577  -7.118  0.00  0.00    +0.174 C 
BRANCH  56  59
ATOM     59  O   UNL     1       5.803   4.490  -8.868  0.00  0.00    -0.384 OA
ATOM     60  H   UNL     1       6.227   4.121  -9.663  0.00  0.00    +0.210 HD
ENDBRANCH  56  59
BRANCH  57  61
ATOM     61  O   UNL     1       7.979   2.875  -9.230  0.00  0.00    -0.386 OA
ATOM     62  H   UNL     1       7.220   2.314  -9.001  0.00  0.00    +0.210 HD
ENDBRANCH  57  61
BRANCH  58  63
ATOM     63  O   UNL     1       9.358   4.778  -6.394  0.00  0.00    -0.387 OA
ATOM     64  H   UNL     1       8.660   4.917  -5.723  0.00  0.00    +0.210 HD
ENDBRANCH  58  63
ENDBRANCH  51  55
ENDBRANCH  50  51
ENDBRANCH   1  50
TORSDOF 21
