REMARK  Name = 
REMARK  22 active torsions:
REMARK  status: ('A' for Active; 'I' for Inactive)
REMARK    1  A    between atoms: C_1  and  C_2
REMARK    2  A    between atoms: C_3  and  O_61
REMARK    3  A    between atoms: C_5  and  O_60
REMARK    4  A    between atoms: C_7  and  O_59
REMARK    5  A    between atoms: C_8  and  O_11
REMARK    6  A    between atoms: O_11  and  C_12
REMARK    7  A    between atoms: C_14  and  O_58
REMARK    8  A    between atoms: C_19  and  C_50
REMARK    9  A    between atoms: C_20  and  O_23
REMARK   10  A    between atoms: O_23  and  C_24
REMARK   11  A    between atoms: C_26  and  O_36
REMARK   12  A    between atoms: C_27  and  O_35
REMARK   13  A    between atoms: C_28  and  O_34
REMARK   14  A    between atoms: C_30  and  C_32
REMARK   15  A    between atoms: C_32  and  O_33
REMARK   16  A    between atoms: O_36  and  C_37
REMARK   17  A    between atoms: C_39  and  O_49
REMARK   18  A    between atoms: C_41  and  O_48
REMARK   19  A    between atoms: C_42  and  O_47
REMARK   20  A    between atoms: C_44  and  C_46
REMARK   21  A    between atoms: C_52  and  O_57
REMARK   22  A    between atoms: C_53  and  O_56
REMARK                            x       y       z     vdW  Elec       q    Type
REMARK                         _______ _______ _______ _____ _____    ______ ____
ROOT
ATOM      1  C   UNL     1       2.369   2.672  -2.972  0.00  0.00    +0.131 A 
ATOM      2  C   UNL     1       1.111   3.168  -2.601  0.00  0.00    +0.093 A 
ATOM      3  C   UNL     1       0.931   4.501  -2.213  0.00  0.00    +0.147 A 
ATOM      4  O   UNL     1      -0.324   4.903  -1.821  0.00  0.00    -0.451 OA
ATOM      5  C   UNL     1      -0.642   6.261  -1.905  0.00  0.00    +0.181 A 
ATOM      6  C   UNL     1       0.298   7.246  -2.009  0.00  0.00    +0.214 A 
ATOM      7  C   UNL     1       1.703   6.786  -1.766  0.00  0.00    +0.238 A 
ATOM      8  O   UNL     1       2.504   7.475  -1.157  0.00  0.00    -0.283 OA
ATOM      9  C   UNL     1       2.002   5.394  -2.210  0.00  0.00    +0.109 A 
ATOM     10  C   UNL     1       3.254   4.919  -2.619  0.00  0.00    +0.135 A 
ATOM     11  C   UNL     1       3.441   3.579  -2.987  0.00  0.00    +0.092 A 
ENDROOT
BRANCH   5  12
ATOM     12  C   UNL     1      -2.119   6.507  -1.894  0.00  0.00    +0.025 A 
ATOM     13  C   UNL     1      -3.027   5.506  -2.295  0.00  0.00    +0.015 A 
ATOM     14  C   UNL     1      -4.404   5.763  -2.368  0.00  0.00    +0.050 A 
ATOM     15  C   UNL     1      -4.880   7.018  -2.043  0.00  0.00    +0.158 A 
ATOM     16  C   UNL     1      -4.022   7.982  -1.548  0.00  0.00    +0.159 A 
ATOM     17  C   UNL     1      -2.658   7.721  -1.441  0.00  0.00    +0.060 A 
BRANCH  16  18
ATOM     18  O   UNL     1      -4.576   9.183  -1.197  0.00  0.00    -0.503 OA
ATOM     19  H   UNL     1      -3.973   9.906  -1.481  0.00  0.00    +0.292 HD
ENDBRANCH  16  18
BRANCH  15  20
ATOM     20  O   UNL     1      -6.194   7.327  -2.230  0.00  0.00    -0.503 OA
ATOM     21  H   UNL     1      -6.255   8.278  -1.998  0.00  0.00    +0.292 HD
ENDBRANCH  15  20
ENDBRANCH   5  12
BRANCH  10  22
ATOM     22  O   UNL     1       4.312   5.783  -2.705  0.00  0.00    -0.506 OA
ATOM     23  H   UNL     1       5.110   5.302  -2.983  0.00  0.00    +0.292 HD
ENDBRANCH  10  22
BRANCH   6  24
ATOM     24  O   UNL     1      -0.069   8.549  -2.349  0.00  0.00    -0.453 OA
BRANCH  24  25
ATOM     25  C   UNL     1       0.686   9.749  -2.103  0.00  0.00    +0.340 C 
ATOM     26  O   UNL     1       0.444  10.148  -0.745  0.00  0.00    -0.331 OA
ATOM     27  C   UNL     1       0.718  11.496  -0.311  0.00  0.00    +0.179 C 
ATOM     28  C   UNL     1       0.591  12.602  -1.362  0.00  0.00    +0.177 C 
ATOM     29  C   UNL     1      -0.333  12.155  -2.471  0.00  0.00    +0.180 C 
ATOM     30  C   UNL     1       0.219  10.867  -3.139  0.00  0.00    +0.221 C 
BRANCH  28  31
ATOM     31  O   UNL     1       1.851  12.956  -1.946  0.00  0.00    -0.386 OA
ATOM     32  H   UNL     1       1.720  13.841  -2.340  0.00  0.00    +0.210 HD
ENDBRANCH  28  31
BRANCH  29  33
ATOM     33  O   UNL     1      -0.456  13.233  -3.418  0.00  0.00    -0.386 OA
ATOM     34  H   UNL     1       0.255  13.123  -4.079  0.00  0.00    +0.210 HD
ENDBRANCH  29  33
BRANCH  30  35
ATOM     35  O   UNL     1      -0.450  10.552  -4.377  0.00  0.00    -0.337 OA
BRANCH  35  36
ATOM     36  C   UNL     1      -1.682   9.843  -4.500  0.00  0.00    +0.282 C 
ATOM     37  O   UNL     1      -1.964   9.643  -5.897  0.00  0.00    -0.343 OA
ATOM     38  C   UNL     1      -2.166  10.863  -6.625  0.00  0.00    +0.149 C 
ATOM     39  C   UNL     1      -2.472  10.479  -8.075  0.00  0.00    +0.041 C 
ATOM     40  C   UNL     1      -3.300  11.729  -6.042  0.00  0.00    +0.174 C 
ATOM     41  C   UNL     1      -3.258  11.817  -4.514  0.00  0.00    +0.179 C 
ATOM     42  C   UNL     1      -2.949  10.466  -3.877  0.00  0.00    +0.201 C 
BRANCH  42  43
ATOM     43  O   UNL     1      -2.855  10.595  -2.452  0.00  0.00    -0.384 OA
ATOM     44  H   UNL     1      -2.058  10.105  -2.185  0.00  0.00    +0.210 HD
ENDBRANCH  42  43
BRANCH  41  45
ATOM     45  O   UNL     1      -4.515  12.318  -4.026  0.00  0.00    -0.386 OA
ATOM     46  H   UNL     1      -4.633  13.204  -4.417  0.00  0.00    +0.210 HD
ENDBRANCH  41  45
BRANCH  40  47
ATOM     47  O   UNL     1      -3.267  13.059  -6.587  0.00  0.00    -0.387 OA
ATOM     48  H   UNL     1      -2.596  13.573  -6.098  0.00  0.00    +0.210 HD
ENDBRANCH  40  47
ENDBRANCH  35  36
ENDBRANCH  30  35
BRANCH  27  49
ATOM     49  C   UNL     1       2.033  11.626   0.465  0.00  0.00    +0.190 C 
BRANCH  49  50
ATOM     50  O   UNL     1       2.041  10.741   1.580  0.00  0.00    -0.392 OA
ATOM     51  H   UNL     1       1.686   9.891   1.259  0.00  0.00    +0.210 HD
ENDBRANCH  49  50
ENDBRANCH  27  49
ENDBRANCH  24  25
ENDBRANCH   6  24
BRANCH   1  52
ATOM     52  O   UNL     1       2.683   1.376  -3.304  0.00  0.00    -0.461 OA
BRANCH  52  56
ATOM     53  C   UNL     1      -1.347   0.103  -2.801  0.00  0.00    +0.041 C 
ATOM     54  C   UNL     1      -0.185  -0.546  -2.052  0.00  0.00    +0.150 C 
ATOM     55  O   UNL     1       0.968   0.305  -2.080  0.00  0.00    -0.334 OA
ATOM     56  C   UNL     1       1.608   0.422  -3.358  0.00  0.00    +0.339 C 
ATOM     57  C   UNL     1       2.146  -0.981  -3.739  0.00  0.00    +0.214 C 
ATOM     58  C   UNL     1       0.928  -1.921  -3.875  0.00  0.00    +0.180 C 
ATOM     59  C   UNL     1       0.128  -1.966  -2.558  0.00  0.00    +0.174 C 
BRANCH  59  60
ATOM     60  O   UNL     1       0.862  -2.680  -1.554  0.00  0.00    -0.387 OA
ATOM     61  H   UNL     1       1.785  -2.342  -1.582  0.00  0.00    +0.210 HD
ENDBRANCH  59  60
BRANCH  58  62
ATOM     62  O   UNL     1       1.323  -3.229  -4.299  0.00  0.00    -0.386 OA
ATOM     63  H   UNL     1       0.795  -3.880  -3.801  0.00  0.00    +0.210 HD
ENDBRANCH  58  62
BRANCH  57  64
ATOM     64  O   UNL     1       3.019  -1.479  -2.697  0.00  0.00    -0.383 OA
ATOM     65  H   UNL     1       3.411  -0.696  -2.264  0.00  0.00    +0.210 HD
ENDBRANCH  57  64
ENDBRANCH  52  56
ENDBRANCH   1  52
TORSDOF 20
