REMARK  Name = 
REMARK  18 active torsions:
REMARK  status: ('A' for Active; 'I' for Inactive)
REMARK    1  A    between atoms: C_3  and  O_49
REMARK    2  A    between atoms: C_4  and  O_48
REMARK    3  A    between atoms: C_6  and  C_7
REMARK    4  A    between atoms: C_8  and  O_20
REMARK    5  A    between atoms: C_12  and  O_19
REMARK    6  A    between atoms: C_14  and  O_18
REMARK    7  A    between atoms: O_20  and  C_21
REMARK    8  A    between atoms: C_23  and  O_33
REMARK    9  A    between atoms: C_24  and  O_32
REMARK   10  A    between atoms: C_25  and  O_31
REMARK   11  A    between atoms: C_27  and  C_29
REMARK   12  A    between atoms: C_29  and  O_30
REMARK   13  A    between atoms: O_33  and  C_34
REMARK   14  A    between atoms: C_36  and  O_47
REMARK   15  A    between atoms: C_38  and  O_46
REMARK   16  A    between atoms: C_39  and  O_45
REMARK   17  A    between atoms: C_41  and  C_43
REMARK   18  A    between atoms: C_43  and  O_44
REMARK                            x       y       z     vdW  Elec       q    Type
REMARK                         _______ _______ _______ _____ _____    ______ ____
ROOT
ATOM      1  C   UNL     1      -3.867  -1.353  -1.229  0.00  0.00    +0.340 C 
ATOM      2  O   UNL     1      -4.323  -0.835  -2.515  0.00  0.00    -0.331 OA
ATOM      3  C   UNL     1      -3.406  -0.573  -3.620  0.00  0.00    +0.179 C 
ATOM      4  C   UNL     1      -2.094  -1.379  -3.601  0.00  0.00    +0.177 C 
ATOM      5  C   UNL     1      -1.926  -2.160  -2.309  0.00  0.00    +0.180 C 
ATOM      6  C   UNL     1      -2.368  -1.206  -1.161  0.00  0.00    +0.221 C 
ENDROOT
BRANCH   5   7
ATOM      7  O   UNL     1      -0.624  -2.690  -2.250  0.00  0.00    -0.386 OA
ATOM      8  H   UNL     1      -0.468  -3.130  -3.110  0.00  0.00    +0.210 HD
ENDBRANCH   5   7
BRANCH   4   9
ATOM      9  O   UNL     1      -2.015  -2.264  -4.722  0.00  0.00    -0.386 OA
ATOM     10  H   UNL     1      -2.796  -2.846  -4.710  0.00  0.00    +0.210 HD
ENDBRANCH   4   9
BRANCH   6  11
ATOM     11  O   UNL     1      -1.826  -1.243   0.133  0.00  0.00    -0.337 OA
BRANCH  11  12
ATOM     12  C   UNL     1      -2.057  -2.186   1.164  0.00  0.00    +0.282 C 
ATOM     13  O   UNL     1      -1.503  -1.604   2.381  0.00  0.00    -0.341 OA
ATOM     14  C   UNL     1      -0.210  -1.025   2.109  0.00  0.00    +0.178 C 
ATOM     15  C   UNL     1       0.785  -2.093   1.607  0.00  0.00    +0.177 C 
ATOM     16  C   UNL     1       0.170  -3.085   0.608  0.00  0.00    +0.179 C 
ATOM     17  C   UNL     1      -1.280  -3.478   0.921  0.00  0.00    +0.201 C 
BRANCH  17  18
ATOM     18  O   UNL     1      -1.301  -4.374   2.046  0.00  0.00    -0.384 OA
ATOM     19  H   UNL     1      -0.842  -3.912   2.780  0.00  0.00    +0.210 HD
ENDBRANCH  17  18
BRANCH  16  20
ATOM     20  O   UNL     1       1.004  -4.250   0.509  0.00  0.00    -0.386 OA
ATOM     21  H   UNL     1       0.457  -4.998   0.825  0.00  0.00    +0.210 HD
ENDBRANCH  16  20
BRANCH  15  22
ATOM     22  O   UNL     1       1.345  -2.860   2.678  0.00  0.00    -0.386 OA
ATOM     23  H   UNL     1       1.879  -3.540   2.210  0.00  0.00    +0.210 HD
ENDBRANCH  15  22
BRANCH  14  24
ATOM     24  C   UNL     1       0.300  -0.220   3.306  0.00  0.00    +0.190 C 
BRANCH  24  25
ATOM     25  O   UNL     1       1.267   0.743   2.874  0.00  0.00    -0.392 OA
ATOM     26  H   UNL     1       2.055   0.253   2.585  0.00  0.00    +0.210 HD
ENDBRANCH  24  25
ENDBRANCH  14  24
ENDBRANCH  11  12
ENDBRANCH   6  11
BRANCH   3  27
ATOM     27  C   UNL     1      -2.978   0.901  -3.935  0.00  0.00    +0.190 C 
BRANCH  27  28
ATOM     28  O   UNL     1      -4.035   1.841  -3.957  0.00  0.00    -0.392 OA
ATOM     29  H   UNL     1      -4.528   1.722  -4.787  0.00  0.00    +0.210 HD
ENDBRANCH  27  28
ENDBRANCH   3  27
BRANCH   1  30
ATOM     30  O   UNL     1      -3.992  -2.820  -0.938  0.00  0.00    -0.453 OA
BRANCH  30  41
ATOM     31  C   UNL     1      -5.012  -4.902  -1.765  0.00  0.00    +0.181 A 
ATOM     32  O   UNL     1      -6.242  -5.466  -2.193  0.00  0.00    -0.451 OA
ATOM     33  C   UNL     1      -7.177  -4.682  -2.791  0.00  0.00    +0.147 A 
ATOM     34  C   UNL     1      -7.201  -3.319  -2.608  0.00  0.00    +0.109 A 
ATOM     35  C   UNL     1      -8.086  -2.508  -3.301  0.00  0.00    +0.135 A 
ATOM     36  C   UNL     1      -9.028  -3.101  -4.132  0.00  0.00    +0.091 A 
ATOM     37  C   UNL     1      -9.065  -4.493  -4.235  0.00  0.00    +0.124 A 
ATOM     38  C   UNL     1      -6.287  -2.805  -1.622  0.00  0.00    +0.238 A 
ATOM     39  O   UNL     1      -6.563  -1.764  -1.034  0.00  0.00    -0.283 OA
ATOM     40  C   UNL     1      -8.136  -5.293  -3.581  0.00  0.00    +0.092 A 
ATOM     41  C   UNL     1      -5.014  -3.561  -1.447  0.00  0.00    +0.214 A 
BRANCH  31  43
ATOM     42  C   UNL     1      -4.580  -7.392  -1.791  0.00  0.00    +0.015 A 
ATOM     43  C   UNL     1      -3.999  -6.080  -1.763  0.00  0.00    +0.025 A 
ATOM     44  C   UNL     1      -2.617  -6.078  -1.987  0.00  0.00    +0.060 A 
ATOM     45  C   UNL     1      -1.901  -7.281  -2.242  0.00  0.00    +0.159 A 
ATOM     46  C   UNL     1      -2.528  -8.534  -2.282  0.00  0.00    +0.158 A 
ATOM     47  C   UNL     1      -3.876  -8.590  -2.037  0.00  0.00    +0.050 A 
BRANCH  46  48
ATOM     48  O   UNL     1      -1.802  -9.651  -2.599  0.00  0.00    -0.503 OA
ATOM     49  H   UNL     1      -2.394 -10.426  -2.599  0.00  0.00    +0.292 HD
ENDBRANCH  46  48
BRANCH  45  50
ATOM     50  O   UNL     1      -0.556  -7.256  -2.496  0.00  0.00    -0.503 OA
ATOM     51  H   UNL     1      -0.305  -8.190  -2.673  0.00  0.00    +0.292 HD
ENDBRANCH  45  50
ENDBRANCH  31  43
BRANCH  37  52
ATOM     52  O   UNL     1     -10.013  -5.121  -4.980  0.00  0.00    -0.507 OA
ATOM     53  H   UNL     1     -10.670  -4.459  -5.255  0.00  0.00    +0.292 HD
ENDBRANCH  37  52
BRANCH  35  54
ATOM     54  O   UNL     1      -8.055  -1.144  -3.221  0.00  0.00    -0.506 OA
ATOM     55  H   UNL     1      -7.430  -0.888  -2.505  0.00  0.00    +0.292 HD
ENDBRANCH  35  54
ENDBRANCH  30  41
ENDBRANCH   1  30
TORSDOF 18
