REMARK  Name = 
REMARK  25 active torsions:
REMARK  status: ('A' for Active; 'I' for Inactive)
REMARK    1  A    between atoms: C_1  and  C_2
REMARK    2  A    between atoms: C_3  and  O_61
REMARK    3  A    between atoms: C_5  and  O_60
REMARK    4  A    between atoms: C_6  and  O_33
REMARK    5  A    between atoms: C_8  and  O_11
REMARK    6  A    between atoms: O_11  and  C_12
REMARK    7  A    between atoms: C_13  and  C_25
REMARK    8  A    between atoms: C_17  and  O_24
REMARK    9  A    between atoms: C_19  and  O_23
REMARK   10  A    between atoms: C_27  and  O_32
REMARK   11  A    between atoms: C_28  and  O_31
REMARK   12  A    between atoms: O_33  and  C_34
REMARK   13  A    between atoms: C_36  and  O_59
REMARK   14  A    between atoms: C_37  and  O_58
REMARK   15  A    between atoms: C_39  and  O_57
REMARK   16  A    between atoms: C_41  and  C_43
REMARK   17  A    between atoms: C_43  and  O_44
REMARK   18  A    between atoms: O_44  and  C_45
REMARK   19  A    between atoms: C_47  and  O_56
REMARK   20  A    between atoms: C_48  and  O_55
REMARK   21  A    between atoms: C_50  and  O_54
REMARK   22  A    between atoms: O_61  and  C_62
REMARK   23  A    between atoms: C_64  and  O_73
REMARK   24  A    between atoms: C_65  and  O_72
REMARK   25  A    between atoms: C_67  and  O_71
REMARK                            x       y       z     vdW  Elec       q    Type
REMARK                         _______ _______ _______ _____ _____    ______ ____
ROOT
ATOM      1  C   UNL     1       0.446   0.514   0.694  0.00  0.00    +0.041 C 
ATOM      2  C   UNL     1       1.984   0.568   0.548  0.00  0.00    +0.151 C 
ATOM      3  O   UNL     1       2.530   1.507  -0.397  0.00  0.00    -0.334 OA
ATOM      4  C   UNL     1       2.640   1.195  -1.816  0.00  0.00    +0.340 C 
ATOM      5  C   UNL     1       2.751  -0.330  -2.237  0.00  0.00    +0.221 C 
ATOM      6  C   UNL     1       2.003  -1.144  -1.210  0.00  0.00    +0.181 C 
ATOM      7  C   UNL     1       2.519  -0.826   0.279  0.00  0.00    +0.181 C 
ENDROOT
BRANCH   6   8
ATOM      8  O   UNL     1       1.883  -2.516  -1.624  0.00  0.00    -0.386 OA
ATOM      9  H   UNL     1       2.378  -2.628  -2.471  0.00  0.00    +0.210 HD
ENDBRANCH   6   8
BRANCH   5  10
ATOM     10  O   UNL     1       3.947  -0.984  -2.732  0.00  0.00    -0.337 OA
BRANCH  10  11
ATOM     11  C   UNL     1       4.923  -1.521  -1.838  0.00  0.00    +0.282 C 
ATOM     12  O   UNL     1       6.171  -1.767  -2.558  0.00  0.00    -0.341 OA
ATOM     13  C   UNL     1       6.171  -2.989  -3.311  0.00  0.00    +0.178 C 
ATOM     14  C   UNL     1       5.954  -4.242  -2.446  0.00  0.00    +0.177 C 
ATOM     15  C   UNL     1       4.620  -4.170  -1.801  0.00  0.00    +0.179 C 
ATOM     16  C   UNL     1       4.586  -2.862  -1.028  0.00  0.00    +0.201 C 
BRANCH  16  17
ATOM     17  O   UNL     1       3.509  -3.101  -0.114  0.00  0.00    -0.384 OA
ATOM     18  H   UNL     1       2.725  -3.293  -0.670  0.00  0.00    +0.210 HD
ENDBRANCH  16  17
BRANCH  15  19
ATOM     19  O   UNL     1       3.536  -4.345  -2.684  0.00  0.00    -0.386 OA
ATOM     20  H   UNL     1       3.326  -5.299  -2.634  0.00  0.00    +0.210 HD
ENDBRANCH  15  19
BRANCH  14  21
ATOM     21  O   UNL     1       6.756  -4.321  -1.284  0.00  0.00    -0.386 OA
ATOM     22  H   UNL     1       6.910  -5.258  -1.060  0.00  0.00    +0.210 HD
ENDBRANCH  14  21
BRANCH  13  23
ATOM     23  C   UNL     1       7.414  -3.084  -4.217  0.00  0.00    +0.197 C 
BRANCH  23  24
ATOM     24  O   UNL     1       8.696  -3.207  -3.606  0.00  0.00    -0.346 OA
BRANCH  24  25
ATOM     25  C   UNL     1       9.153  -4.527  -3.254  0.00  0.00    +0.281 C 
ATOM     26  O   UNL     1       8.884  -4.867  -1.902  0.00  0.00    -0.346 OA
ATOM     27  C   UNL     1       9.259  -3.803  -1.001  0.00  0.00    +0.197 C 
ATOM     28  C   UNL     1      10.750  -3.533  -1.027  0.00  0.00    +0.171 C 
ATOM     29  C   UNL     1      11.280  -3.455  -2.469  0.00  0.00    +0.178 C 
ATOM     30  C   UNL     1      10.688  -4.579  -3.348  0.00  0.00    +0.201 C 
BRANCH  30  31
ATOM     31  O   UNL     1      11.120  -4.472  -4.702  0.00  0.00    -0.384 OA
ATOM     32  H   UNL     1      10.861  -3.575  -4.992  0.00  0.00    +0.210 HD
ENDBRANCH  30  31
BRANCH  29  33
ATOM     33  O   UNL     1      10.996  -2.163  -3.038  0.00  0.00    -0.386 OA
ATOM     34  H   UNL     1      10.031  -2.132  -3.222  0.00  0.00    +0.210 HD
ENDBRANCH  29  33
BRANCH  28  35
ATOM     35  O   UNL     1      11.386  -4.606  -0.326  0.00  0.00    -0.387 OA
ATOM     36  H   UNL     1      12.266  -4.286  -0.056  0.00  0.00    +0.210 HD
ENDBRANCH  28  35
ENDBRANCH  24  25
ENDBRANCH  23  24
ENDBRANCH  13  23
ENDBRANCH  10  11
ENDBRANCH   5  10
BRANCH   7  37
ATOM     37  O   UNL     1       3.967  -0.822   0.435  0.00  0.00    -0.340 OA
BRANCH  37  38
ATOM     38  C   UNL     1       4.681  -0.932   1.687  0.00  0.00    +0.282 C 
ATOM     39  O   UNL     1       6.116  -0.839   1.488  0.00  0.00    -0.346 OA
ATOM     40  C   UNL     1       6.927  -2.019   1.364  0.00  0.00    +0.197 C 
ATOM     41  C   UNL     1       6.590  -3.224   2.256  0.00  0.00    +0.171 C 
ATOM     42  C   UNL     1       5.107  -3.400   2.568  0.00  0.00    +0.178 C 
ATOM     43  C   UNL     1       4.357  -2.061   2.700  0.00  0.00    +0.201 C 
BRANCH  43  44
ATOM     44  O   UNL     1       2.961  -2.277   2.900  0.00  0.00    -0.384 OA
ATOM     45  H   UNL     1       2.726  -3.043   2.342  0.00  0.00    +0.210 HD
ENDBRANCH  43  44
BRANCH  42  46
ATOM     46  O   UNL     1       4.489  -4.373   1.726  0.00  0.00    -0.386 OA
ATOM     47  H   UNL     1       4.027  -3.892   1.012  0.00  0.00    +0.210 HD
ENDBRANCH  42  46
BRANCH  41  48
ATOM     48  O   UNL     1       7.285  -3.041   3.504  0.00  0.00    -0.387 OA
ATOM     49  H   UNL     1       7.062  -3.797   4.077  0.00  0.00    +0.210 HD
ENDBRANCH  41  48
ENDBRANCH  37  38
ENDBRANCH   7  37
BRANCH   4  50
ATOM     50  O   UNL     1       3.704   1.997  -2.393  0.00  0.00    -0.453 OA
BRANCH  50  51
ATOM     51  C   UNL     1       3.442   2.855  -3.465  0.00  0.00    +0.214 A 
ATOM     52  C   UNL     1       2.327   2.543  -4.452  0.00  0.00    +0.238 A 
ATOM     53  O   UNL     1       1.645   1.507  -4.402  0.00  0.00    -0.283 OA
ATOM     54  C   UNL     1       2.033   3.492  -5.528  0.00  0.00    +0.109 A 
ATOM     55  C   UNL     1       2.877   4.591  -5.678  0.00  0.00    +0.147 A 
ATOM     56  C   UNL     1       2.659   5.504  -6.683  0.00  0.00    +0.092 A 
ATOM     57  C   UNL     1       1.577   5.356  -7.548  0.00  0.00    +0.124 A 
ATOM     58  C   UNL     1       0.710   4.286  -7.418  0.00  0.00    +0.091 A 
ATOM     59  O   UNL     1       3.939   4.771  -4.845  0.00  0.00    -0.451 OA
ATOM     60  C   UNL     1       0.944   3.333  -6.415  0.00  0.00    +0.135 A 
ATOM     61  C   UNL     1       4.212   3.944  -3.750  0.00  0.00    +0.181 A 
BRANCH  61  62
ATOM     62  C   UNL     1       5.469   4.477  -3.054  0.00  0.00    +0.025 A 
ATOM     63  C   UNL     1       6.142   5.576  -3.672  0.00  0.00    +0.015 A 
ATOM     64  C   UNL     1       7.314   6.157  -3.170  0.00  0.00    +0.050 A 
ATOM     65  C   UNL     1       7.856   5.650  -2.012  0.00  0.00    +0.158 A 
ATOM     66  C   UNL     1       7.245   4.577  -1.370  0.00  0.00    +0.159 A 
ATOM     67  C   UNL     1       6.056   3.990  -1.871  0.00  0.00    +0.060 A 
BRANCH  66  68
ATOM     68  O   UNL     1       7.867   4.127  -0.232  0.00  0.00    -0.503 OA
ATOM     69  H   UNL     1       7.498   3.258   0.000  0.00  0.00    +0.292 HD
ENDBRANCH  66  68
BRANCH  65  70
ATOM     70  O   UNL     1       8.994   6.215  -1.512  0.00  0.00    -0.503 OA
ATOM     71  H   UNL     1       9.190   5.703  -0.704  0.00  0.00    +0.292 HD
ENDBRANCH  65  70
ENDBRANCH  61  62
BRANCH  60  72
ATOM     72  O   UNL     1       0.078   2.279  -6.381  0.00  0.00    -0.506 OA
ATOM     73  H   UNL     1       0.429   1.635  -5.710  0.00  0.00    +0.292 HD
ENDBRANCH  60  72
BRANCH  57  74
ATOM     74  O   UNL     1       1.338   6.246  -8.557  0.00  0.00    -0.507 OA
ATOM     75  H   UNL     1       2.019   6.939  -8.553  0.00  0.00    +0.292 HD
ENDBRANCH  57  74
ENDBRANCH  50  51
ENDBRANCH   4  50
TORSDOF 24
