REMARK  Name = 
REMARK  18 active torsions:
REMARK  status: ('A' for Active; 'I' for Inactive)
REMARK    1  A    between atoms: C_3  and  O_50
REMARK    2  A    between atoms: C_4  and  O_49
REMARK    3  A    between atoms: C_6  and  C_7
REMARK    4  A    between atoms: C_8  and  O_35
REMARK    5  A    between atoms: C_12  and  O_34
REMARK    6  A    between atoms: C_14  and  O_18
REMARK    7  A    between atoms: O_18  and  C_19
REMARK    8  A    between atoms: C_21  and  O_33
REMARK    9  A    between atoms: C_22  and  O_32
REMARK   10  A    between atoms: C_24  and  O_31
REMARK   11  A    between atoms: C_26  and  C_28
REMARK   12  A    between atoms: C_28  and  O_30
REMARK   13  A    between atoms: O_35  and  C_36
REMARK   14  A    between atoms: C_38  and  O_48
REMARK   15  A    between atoms: C_39  and  O_47
REMARK   16  A    between atoms: C_40  and  O_46
REMARK   17  A    between atoms: C_42  and  C_44
REMARK   18  A    between atoms: C_44  and  O_45
REMARK                            x       y       z     vdW  Elec       q    Type
REMARK                         _______ _______ _______ _____ _____    ______ ____
ROOT
ATOM      1  C   UNL     1      -1.280  -2.693   0.287  0.00  0.00    +0.181 A 
ATOM      2  O   UNL     1      -0.646  -3.913   0.490  0.00  0.00    -0.451 OA
ATOM      3  C   UNL     1      -1.283  -5.071   0.151  0.00  0.00    +0.147 A 
ATOM      4  C   UNL     1      -2.599  -5.123  -0.267  0.00  0.00    +0.109 A 
ATOM      5  C   UNL     1      -3.150  -6.380  -0.557  0.00  0.00    +0.135 A 
ATOM      6  C   UNL     1      -2.356  -7.543  -0.536  0.00  0.00    +0.092 A 
ATOM      7  C   UNL     1      -1.001  -7.462  -0.210  0.00  0.00    +0.131 A 
ATOM      8  C   UNL     1      -3.314  -3.834  -0.427  0.00  0.00    +0.238 A 
ATOM      9  O   UNL     1      -4.482  -3.809  -0.810  0.00  0.00    -0.283 OA
ATOM     10  C   UNL     1      -0.498  -6.225   0.209  0.00  0.00    +0.093 A 
ATOM     11  C   UNL     1      -2.548  -2.569  -0.166  0.00  0.00    +0.214 A 
ENDROOT
BRANCH   1  13
ATOM     12  C   UNL     1      -0.804  -0.214   0.672  0.00  0.00    +0.015 A 
ATOM     13  C   UNL     1      -0.360  -1.537   0.507  0.00  0.00    +0.025 A 
ATOM     14  C   UNL     1       1.028  -1.739   0.401  0.00  0.00    +0.060 A 
ATOM     15  C   UNL     1       1.877  -0.652   0.232  0.00  0.00    +0.159 A 
ATOM     16  C   UNL     1       1.373   0.639   0.157  0.00  0.00    +0.158 A 
ATOM     17  C   UNL     1       0.038   0.874   0.426  0.00  0.00    +0.050 A 
BRANCH  16  18
ATOM     18  O   UNL     1       2.217   1.646  -0.212  0.00  0.00    -0.503 OA
ATOM     19  H   UNL     1       1.667   2.359  -0.587  0.00  0.00    +0.292 HD
ENDBRANCH  16  18
BRANCH  15  20
ATOM     20  O   UNL     1       3.214  -0.871   0.073  0.00  0.00    -0.503 OA
ATOM     21  H   UNL     1       3.592   0.024  -0.043  0.00  0.00    +0.292 HD
ENDBRANCH  15  20
ENDBRANCH   1  13
BRANCH   5  22
ATOM     22  O   UNL     1      -4.464  -6.553  -0.901  0.00  0.00    -0.506 OA
ATOM     23  H   UNL     1      -4.916  -5.684  -0.871  0.00  0.00    +0.292 HD
ENDBRANCH   5  22
BRANCH  11  24
ATOM     24  O   UNL     1      -3.209  -1.351  -0.169  0.00  0.00    -0.453 OA
BRANCH  24  25
ATOM     25  C   UNL     1      -3.582  -0.679  -1.390  0.00  0.00    +0.340 C 
ATOM     26  O   UNL     1      -2.967   0.624  -1.501  0.00  0.00    -0.331 OA
ATOM     27  C   UNL     1      -3.475   1.730  -0.697  0.00  0.00    +0.179 C 
ATOM     28  C   UNL     1      -4.876   1.614  -0.055  0.00  0.00    +0.177 C 
ATOM     29  C   UNL     1      -5.438   0.199  -0.049  0.00  0.00    +0.180 C 
ATOM     30  C   UNL     1      -5.102  -0.466  -1.394  0.00  0.00    +0.214 C 
BRANCH  30  31
ATOM     31  O   UNL     1      -5.889  -1.641  -1.566  0.00  0.00    -0.383 OA
ATOM     32  H   UNL     1      -5.316  -2.432  -1.472  0.00  0.00    +0.210 HD
ENDBRANCH  30  31
BRANCH  29  33
ATOM     33  O   UNL     1      -6.855   0.277   0.168  0.00  0.00    -0.386 OA
ATOM     34  H   UNL     1      -7.242  -0.396  -0.430  0.00  0.00    +0.210 HD
ENDBRANCH  29  33
BRANCH  28  35
ATOM     35  O   UNL     1      -5.839   2.450  -0.719  0.00  0.00    -0.386 OA
ATOM     36  H   UNL     1      -6.699   2.191  -0.318  0.00  0.00    +0.210 HD
ENDBRANCH  28  35
BRANCH  27  37
ATOM     37  C   UNL     1      -3.373   2.995  -1.578  0.00  0.00    +0.190 C 
BRANCH  37  38
ATOM     38  O   UNL     1      -2.020   3.176  -2.003  0.00  0.00    -0.392 OA
ATOM     39  H   UNL     1      -1.747   2.304  -2.347  0.00  0.00    +0.210 HD
ENDBRANCH  37  38
ENDBRANCH  27  37
ENDBRANCH  24  25
ENDBRANCH  11  24
BRANCH   7  40
ATOM     40  O   UNL     1      -0.233  -8.604  -0.375  0.00  0.00    -0.461 OA
BRANCH  40  41
ATOM     41  C   UNL     1       1.184  -8.349  -0.510  0.00  0.00    +0.340 C 
ATOM     42  O   UNL     1       1.417  -7.455  -1.613  0.00  0.00    -0.322 OA
ATOM     43  C   UNL     1       1.319  -8.133  -2.881  0.00  0.00    +0.261 C 
ATOM     44  C   UNL     1       2.502  -9.087  -3.014  0.00  0.00    +0.185 C 
ATOM     45  C   UNL     1       2.317 -10.197  -1.979  0.00  0.00    +0.180 C 
ATOM     46  C   UNL     1       2.086  -9.620  -0.568  0.00  0.00    +0.214 C 
BRANCH  46  47
ATOM     47  O   UNL     1       1.648 -10.636   0.339  0.00  0.00    -0.383 OA
ATOM     48  H   UNL     1       1.549 -11.466  -0.167  0.00  0.00    +0.210 HD
ENDBRANCH  46  47
BRANCH  45  49
ATOM     49  O   UNL     1       1.278 -11.093  -2.339  0.00  0.00    -0.386 OA
ATOM     50  H   UNL     1       0.425 -10.769  -2.007  0.00  0.00    +0.210 HD
ENDBRANCH  45  49
BRANCH  44  51
ATOM     51  O   UNL     1       3.709  -8.368  -2.712  0.00  0.00    -0.386 OA
ATOM     52  H   UNL     1       4.463  -8.874  -3.066  0.00  0.00    +0.210 HD
ENDBRANCH  44  51
BRANCH  43  53
ATOM     53  C   UNL     1       1.306  -7.121  -4.016  0.00  0.00    +0.337 C 
ATOM     54  O   UNL     1       1.358  -7.390  -5.202  0.00  0.00    -0.248 OA
BRANCH  53  55
ATOM     55  O   UNL     1       1.158  -5.849  -3.549  0.00  0.00    -0.479 OA
ATOM     56  H   UNL     1       1.180  -5.886  -2.565  0.00  0.00    +0.295 HD
ENDBRANCH  53  55
ENDBRANCH  43  53
ENDBRANCH  40  41
ENDBRANCH   7  40
TORSDOF 18
