REMARK  Name = 
REMARK  23 active torsions:
REMARK  status: ('A' for Active; 'I' for Inactive)
REMARK    1  A    between atoms: C_1  and  C_2
REMARK    2  A    between atoms: C_3  and  O_35
REMARK    3  A    between atoms: C_5  and  O_34
REMARK    4  A    between atoms: C_6  and  O_33
REMARK    5  A    between atoms: C_8  and  O_11
REMARK    6  A    between atoms: O_11  and  C_12
REMARK    7  A    between atoms: C_13  and  C_25
REMARK    8  A    between atoms: C_17  and  O_24
REMARK    9  A    between atoms: C_19  and  O_23
REMARK   10  A    between atoms: C_27  and  O_32
REMARK   11  A    between atoms: C_28  and  O_31
REMARK   12  A    between atoms: O_35  and  C_36
REMARK   13  A    between atoms: C_38  and  O_62
REMARK   14  A    between atoms: C_39  and  O_61
REMARK   15  A    between atoms: C_40  and  O_60
REMARK   16  A    between atoms: C_42  and  C_44
REMARK   17  A    between atoms: C_44  and  O_45
REMARK   18  A    between atoms: O_45  and  C_46
REMARK   19  A    between atoms: C_48  and  O_59
REMARK   20  A    between atoms: C_49  and  O_58
REMARK   21  A    between atoms: C_51  and  O_57
REMARK   22  A    between atoms: C_53  and  C_55
REMARK   23  A    between atoms: C_55  and  O_56
REMARK                            x       y       z     vdW  Elec       q    Type
REMARK                         _______ _______ _______ _____ _____    ______ ____
ROOT
ATOM      1  C   UNL     1       0.830   0.401   0.006  0.00  0.00    +0.041 C 
ATOM      2  C   UNL     1       2.349   0.254  -0.185  0.00  0.00    +0.151 C 
ATOM      3  O   UNL     1       2.869   1.157  -1.184  0.00  0.00    -0.334 OA
ATOM      4  C   UNL     1       2.451   0.793  -2.511  0.00  0.00    +0.339 C 
ATOM      5  C   UNL     1       3.050  -0.583  -2.901  0.00  0.00    +0.214 C 
ATOM      6  C   UNL     1       2.496  -1.614  -1.923  0.00  0.00    +0.180 C 
ATOM      7  C   UNL     1       2.756  -1.216  -0.458  0.00  0.00    +0.181 C 
ENDROOT
BRANCH   6   8
ATOM      8  O   UNL     1       3.078  -2.903  -2.184  0.00  0.00    -0.386 OA
ATOM      9  H   UNL     1       3.956  -2.851  -1.759  0.00  0.00    +0.210 HD
ENDBRANCH   6   8
BRANCH   5  10
ATOM     10  O   UNL     1       4.489  -0.568  -2.897  0.00  0.00    -0.383 OA
ATOM     11  H   UNL     1       4.763  -1.446  -3.215  0.00  0.00    +0.210 HD
ENDBRANCH   5  10
BRANCH   7  12
ATOM     12  O   UNL     1       4.148  -1.507  -0.187  0.00  0.00    -0.340 OA
BRANCH  12  13
ATOM     13  C   UNL     1       4.603  -1.286   1.156  0.00  0.00    +0.282 C 
ATOM     14  O   UNL     1       5.997  -1.623   1.268  0.00  0.00    -0.341 OA
ATOM     15  C   UNL     1       6.302  -2.993   0.934  0.00  0.00    +0.178 C 
ATOM     16  C   UNL     1       5.446  -3.994   1.747  0.00  0.00    +0.177 C 
ATOM     17  C   UNL     1       3.968  -3.589   1.811  0.00  0.00    +0.179 C 
ATOM     18  C   UNL     1       3.835  -2.112   2.206  0.00  0.00    +0.201 C 
BRANCH  18  19
ATOM     19  O   UNL     1       2.458  -1.736   2.347  0.00  0.00    -0.384 OA
ATOM     20  H   UNL     1       1.925  -2.554   2.317  0.00  0.00    +0.210 HD
ENDBRANCH  18  19
BRANCH  17  21
ATOM     21  O   UNL     1       3.259  -4.409   2.758  0.00  0.00    -0.386 OA
ATOM     22  H   UNL     1       3.355  -3.992   3.636  0.00  0.00    +0.210 HD
ENDBRANCH  17  21
BRANCH  16  23
ATOM     23  O   UNL     1       5.928  -4.075   3.099  0.00  0.00    -0.386 OA
ATOM     24  H   UNL     1       5.446  -4.815   3.511  0.00  0.00    +0.210 HD
ENDBRANCH  16  23
BRANCH  15  25
ATOM     25  C   UNL     1       7.819  -3.248   1.176  0.00  0.00    +0.197 C 
BRANCH  25  26
ATOM     26  O   UNL     1       8.578  -2.242   0.517  0.00  0.00    -0.346 OA
BRANCH  26  27
ATOM     27  C   UNL     1      10.000  -2.414   0.486  0.00  0.00    +0.282 C 
ATOM     28  O   UNL     1      10.669  -2.236   1.730  0.00  0.00    -0.341 OA
ATOM     29  C   UNL     1      10.899  -0.896   2.223  0.00  0.00    +0.178 C 
ATOM     30  C   UNL     1      10.973   0.278   1.193  0.00  0.00    +0.177 C 
ATOM     31  C   UNL     1      10.165   0.010  -0.070  0.00  0.00    +0.179 C 
ATOM     32  C   UNL     1      10.531  -1.411  -0.547  0.00  0.00    +0.201 C 
BRANCH  32  33
ATOM     33  O   UNL     1      10.026  -1.658  -1.862  0.00  0.00    -0.384 OA
ATOM     34  H   UNL     1      10.234  -2.583  -2.078  0.00  0.00    +0.210 HD
ENDBRANCH  32  33
BRANCH  31  35
ATOM     35  O   UNL     1       8.784   0.260   0.210  0.00  0.00    -0.386 OA
ATOM     36  H   UNL     1       8.353  -0.591   0.448  0.00  0.00    +0.210 HD
ENDBRANCH  31  35
BRANCH  30  37
ATOM     37  O   UNL     1      12.326   0.552   0.791  0.00  0.00    -0.386 OA
ATOM     38  H   UNL     1      12.298   1.329   0.202  0.00  0.00    +0.210 HD
ENDBRANCH  30  37
BRANCH  29  39
ATOM     39  C   UNL     1      12.216  -0.928   3.045  0.00  0.00    +0.190 C 
BRANCH  39  40
ATOM     40  O   UNL     1      12.253  -1.954   4.038  0.00  0.00    -0.392 OA
ATOM     41  H   UNL     1      11.343  -2.114   4.332  0.00  0.00    +0.210 HD
ENDBRANCH  39  40
ENDBRANCH  29  39
ENDBRANCH  26  27
ENDBRANCH  25  26
ENDBRANCH  15  25
ENDBRANCH  12  13
ENDBRANCH   7  12
BRANCH   4  42
ATOM     42  O   UNL     1       2.781   1.785  -3.490  0.00  0.00    -0.453 OA
BRANCH  42  43
ATOM     43  C   UNL     1       2.061   1.729  -4.691  0.00  0.00    +0.214 A 
ATOM     44  C   UNL     1       0.894   0.805  -4.873  0.00  0.00    +0.238 A 
ATOM     45  O   UNL     1       0.646  -0.119  -4.109  0.00  0.00    -0.283 OA
ATOM     46  C   UNL     1       0.062   0.951  -6.058  0.00  0.00    +0.109 A 
ATOM     47  C   UNL     1       0.541   1.760  -7.078  0.00  0.00    +0.147 A 
ATOM     48  C   UNL     1      -0.171   1.818  -8.281  0.00  0.00    +0.092 A 
ATOM     49  C   UNL     1      -1.342   1.070  -8.436  0.00  0.00    +0.124 A 
ATOM     50  C   UNL     1      -1.828   0.275  -7.406  0.00  0.00    +0.091 A 
ATOM     51  O   UNL     1       1.701   2.494  -6.964  0.00  0.00    -0.451 OA
ATOM     52  C   UNL     1      -1.136   0.232  -6.200  0.00  0.00    +0.135 A 
ATOM     53  C   UNL     1       2.408   2.488  -5.757  0.00  0.00    +0.181 A 
BRANCH  53  54
ATOM     54  C   UNL     1       3.596   3.399  -5.752  0.00  0.00    +0.025 A 
ATOM     55  C   UNL     1       3.544   4.640  -6.415  0.00  0.00    +0.015 A 
ATOM     56  C   UNL     1       4.632   5.530  -6.397  0.00  0.00    +0.050 A 
ATOM     57  C   UNL     1       5.779   5.183  -5.702  0.00  0.00    +0.158 A 
ATOM     58  C   UNL     1       5.867   3.958  -5.058  0.00  0.00    +0.159 A 
ATOM     59  C   UNL     1       4.798   3.065  -5.099  0.00  0.00    +0.060 A 
BRANCH  58  60
ATOM     60  O   UNL     1       7.023   3.670  -4.384  0.00  0.00    -0.503 OA
ATOM     61  H   UNL     1       6.882   2.846  -3.881  0.00  0.00    +0.292 HD
ENDBRANCH  58  60
BRANCH  57  62
ATOM     62  O   UNL     1       6.826   6.057  -5.647  0.00  0.00    -0.503 OA
ATOM     63  H   UNL     1       7.488   5.606  -5.084  0.00  0.00    +0.292 HD
ENDBRANCH  57  62
ENDBRANCH  53  54
BRANCH  52  64
ATOM     64  O   UNL     1      -1.648  -0.517  -5.180  0.00  0.00    -0.506 OA
ATOM     65  H   UNL     1      -2.356  -1.100  -5.495  0.00  0.00    +0.292 HD
ENDBRANCH  52  64
BRANCH  49  66
ATOM     66  O   UNL     1      -2.062   1.071  -9.592  0.00  0.00    -0.507 OA
ATOM     67  H   UNL     1      -1.604   1.619 -10.247  0.00  0.00    +0.292 HD
ENDBRANCH  49  66
ENDBRANCH  42  43
ENDBRANCH   4  42
TORSDOF 22
