REMARK  Name = 
REMARK  12 active torsions:
REMARK  status: ('A' for Active; 'I' for Inactive)
REMARK    1  A    between atoms: C_3  and  O_37
REMARK    2  A    between atoms: C_4  and  O_36
REMARK    3  A    between atoms: C_6  and  C_7
REMARK    4  A    between atoms: C_8  and  O_20
REMARK    5  A    between atoms: C_12  and  O_19
REMARK    6  A    between atoms: C_14  and  O_18
REMARK    7  A    between atoms: O_20  and  C_21
REMARK    8  A    between atoms: C_23  and  O_35
REMARK    9  A    between atoms: C_24  and  O_34
REMARK   10  A    between atoms: C_25  and  O_33
REMARK   11  A    between atoms: C_27  and  C_30
REMARK   12  A    between atoms: C_30  and  O_32
REMARK                            x       y       z     vdW  Elec       q    Type
REMARK                         _______ _______ _______ _____ _____    ______ ____
ROOT
ATOM      1  C   UNL     1      -1.249  -2.686   0.382  0.00  0.00    +0.181 A 
ATOM      2  O   UNL     1      -0.567  -3.903   0.489  0.00  0.00    -0.451 OA
ATOM      3  C   UNL     1      -1.180  -5.073   0.173  0.00  0.00    +0.147 A 
ATOM      4  C   UNL     1      -2.493  -5.132  -0.239  0.00  0.00    +0.109 A 
ATOM      5  C   UNL     1      -3.033  -6.397  -0.544  0.00  0.00    +0.135 A 
ATOM      6  C   UNL     1      -2.248  -7.553  -0.457  0.00  0.00    +0.091 A 
ATOM      7  C   UNL     1      -0.932  -7.455  -0.055  0.00  0.00    +0.124 A 
ATOM      8  C   UNL     1      -3.236  -3.851  -0.372  0.00  0.00    +0.238 A 
ATOM      9  O   UNL     1      -4.396  -3.866  -0.787  0.00  0.00    -0.283 OA
ATOM     10  C   UNL     1      -0.386  -6.221   0.270  0.00  0.00    +0.092 A 
ATOM     11  C   UNL     1      -2.524  -2.562  -0.053  0.00  0.00    +0.214 A 
ENDROOT
BRANCH   1  13
ATOM     12  C   UNL     1       0.830  -1.504  -0.073  0.00  0.00    +0.015 A 
ATOM     13  C   UNL     1      -0.313  -1.619   0.749  0.00  0.00    +0.025 A 
ATOM     14  C   UNL     1      -0.321  -1.000   2.002  0.00  0.00    +0.060 A 
ATOM     15  C   UNL     1       0.842  -0.373   2.450  0.00  0.00    +0.159 A 
ATOM     16  C   UNL     1       2.000  -0.365   1.674  0.00  0.00    +0.158 A 
ATOM     17  C   UNL     1       1.994  -0.896   0.394  0.00  0.00    +0.050 A 
BRANCH  15  18
ATOM     18  O   UNL     1       0.875   0.172   3.702  0.00  0.00    -0.503 OA
ATOM     19  H   UNL     1       1.778   0.535   3.792  0.00  0.00    +0.292 HD
ENDBRANCH  15  18
BRANCH  16  20
ATOM     20  O   UNL     1       3.145   0.132   2.230  0.00  0.00    -0.503 OA
ATOM     21  H   UNL     1       3.898  -0.219   1.721  0.00  0.00    +0.292 HD
ENDBRANCH  16  20
ENDBRANCH   1  13
BRANCH   5  22
ATOM     22  O   UNL     1      -4.328  -6.576  -0.948  0.00  0.00    -0.506 OA
ATOM     23  H   UNL     1      -4.783  -5.704  -0.960  0.00  0.00    +0.292 HD
ENDBRANCH   5  22
BRANCH   7  24
ATOM     24  O   UNL     1      -0.116  -8.545   0.034  0.00  0.00    -0.507 OA
ATOM     25  H   UNL     1      -0.614  -9.340  -0.214  0.00  0.00    +0.292 HD
ENDBRANCH   7  24
BRANCH  11  26
ATOM     26  O   UNL     1      -3.205  -1.343  -0.060  0.00  0.00    -0.453 OA
BRANCH  26  27
ATOM     27  C   UNL     1      -3.354  -0.666  -1.327  0.00  0.00    +0.340 C 
ATOM     28  O   UNL     1      -3.194   0.768  -1.173  0.00  0.00    -0.322 OA
ATOM     29  C   UNL     1      -4.254   1.453  -0.474  0.00  0.00    +0.261 C 
ATOM     30  C   UNL     1      -5.707   0.950  -0.676  0.00  0.00    +0.185 C 
ATOM     31  C   UNL     1      -5.799  -0.568  -0.929  0.00  0.00    +0.180 C 
ATOM     32  C   UNL     1      -4.731  -0.876  -1.995  0.00  0.00    +0.214 C 
BRANCH  29  33
ATOM     33  C   UNL     1      -3.822   1.640   0.965  0.00  0.00    +0.337 C 
ATOM     34  O   UNL     1      -4.494   1.340   1.945  0.00  0.00    -0.248 OA
BRANCH  33  35
ATOM     35  O   UNL     1      -2.615   2.250   1.067  0.00  0.00    -0.479 OA
ATOM     36  H   UNL     1      -2.192   2.345   0.187  0.00  0.00    +0.295 HD
ENDBRANCH  33  35
ENDBRANCH  29  33
BRANCH  30  37
ATOM     37  O   UNL     1      -6.630   1.388   0.321  0.00  0.00    -0.386 OA
ATOM     38  H   UNL     1      -6.304   1.094   1.201  0.00  0.00    +0.210 HD
ENDBRANCH  30  37
BRANCH  31  39
ATOM     39  O   UNL     1      -7.107  -0.958  -1.360  0.00  0.00    -0.386 OA
ATOM     40  H   UNL     1      -7.565  -0.194  -1.748  0.00  0.00    +0.210 HD
ENDBRANCH  31  39
BRANCH  32  41
ATOM     41  O   UNL     1      -4.848  -2.114  -2.679  0.00  0.00    -0.383 OA
ATOM     42  H   UNL     1      -4.621  -2.838  -2.066  0.00  0.00    +0.210 HD
ENDBRANCH  32  41
ENDBRANCH  26  27
ENDBRANCH  11  26
TORSDOF 12
