REMARK  Name = 
REMARK  18 active torsions:
REMARK  status: ('A' for Active; 'I' for Inactive)
REMARK    1  A    between atoms: C_3  and  O_49
REMARK    2  A    between atoms: C_4  and  O_48
REMARK    3  A    between atoms: C_6  and  C_7
REMARK    4  A    between atoms: C_8  and  O_20
REMARK    5  A    between atoms: C_12  and  O_19
REMARK    6  A    between atoms: C_14  and  O_18
REMARK    7  A    between atoms: O_20  and  C_21
REMARK    8  A    between atoms: C_23  and  O_47
REMARK    9  A    between atoms: C_24  and  O_46
REMARK   10  A    between atoms: C_25  and  O_31
REMARK   11  A    between atoms: C_27  and  C_29
REMARK   12  A    between atoms: C_29  and  O_30
REMARK   13  A    between atoms: O_31  and  C_32
REMARK   14  A    between atoms: C_34  and  O_45
REMARK   15  A    between atoms: C_36  and  O_44
REMARK   16  A    between atoms: C_37  and  O_43
REMARK   17  A    between atoms: C_39  and  C_41
REMARK   18  A    between atoms: C_41  and  O_42
REMARK                            x       y       z     vdW  Elec       q    Type
REMARK                         _______ _______ _______ _____ _____    ______ ____
ROOT
ATOM      1  C   UNL     1      -4.012  -0.794  -0.887  0.00  0.00    +0.340 C 
ATOM      2  O   UNL     1      -4.116  -0.164  -2.191  0.00  0.00    -0.331 OA
ATOM      3  C   UNL     1      -3.700  -1.053  -3.259  0.00  0.00    +0.179 C 
ATOM      4  C   UNL     1      -2.207  -1.455  -3.104  0.00  0.00    +0.184 C 
ATOM      5  C   UNL     1      -2.110  -2.149  -1.726  0.00  0.00    +0.180 C 
ATOM      6  C   UNL     1      -2.514  -1.117  -0.653  0.00  0.00    +0.214 C 
ENDROOT
BRANCH   5   7
ATOM      7  O   UNL     1      -0.861  -2.822  -1.582  0.00  0.00    -0.386 OA
ATOM      8  H   UNL     1      -0.229  -2.281  -1.085  0.00  0.00    +0.210 HD
ENDBRANCH   5   7
BRANCH   6   9
ATOM      9  O   UNL     1      -2.177  -1.533   0.665  0.00  0.00    -0.383 OA
ATOM     10  H   UNL     1      -2.943  -1.403   1.246  0.00  0.00    +0.210 HD
ENDBRANCH   6   9
BRANCH   1  11
ATOM     11  O   UNL     1      -4.918  -1.913  -0.941  0.00  0.00    -0.453 OA
BRANCH  11  22
ATOM     12  C   UNL     1      -6.813  -2.143   0.546  0.00  0.00    +0.181 A 
ATOM     13  O   UNL     1      -7.561  -2.969   1.397  0.00  0.00    -0.451 OA
ATOM     14  C   UNL     1      -7.145  -4.231   1.697  0.00  0.00    +0.147 A 
ATOM     15  C   UNL     1      -5.874  -4.678   1.409  0.00  0.00    +0.109 A 
ATOM     16  C   UNL     1      -5.487  -5.959   1.828  0.00  0.00    +0.135 A 
ATOM     17  C   UNL     1      -6.376  -6.787   2.523  0.00  0.00    +0.091 A 
ATOM     18  C   UNL     1      -7.664  -6.329   2.779  0.00  0.00    +0.124 A 
ATOM     19  C   UNL     1      -4.998  -3.782   0.640  0.00  0.00    +0.238 A 
ATOM     20  O   UNL     1      -3.858  -4.143   0.367  0.00  0.00    -0.283 OA
ATOM     21  C   UNL     1      -8.057  -5.059   2.366  0.00  0.00    +0.092 A 
ATOM     22  C   UNL     1      -5.571  -2.456   0.132  0.00  0.00    +0.214 A 
BRANCH  12  24
ATOM     23  C   UNL     1      -8.948  -0.813   0.773  0.00  0.00    +0.015 A 
ATOM     24  C   UNL     1      -7.667  -0.948   0.166  0.00  0.00    +0.025 A 
ATOM     25  C   UNL     1      -7.311   0.074  -0.727  0.00  0.00    +0.060 A 
ATOM     26  C   UNL     1      -8.191   1.128  -1.001  0.00  0.00    +0.159 A 
ATOM     27  C   UNL     1      -9.454   1.191  -0.436  0.00  0.00    +0.158 A 
ATOM     28  C   UNL     1      -9.841   0.225   0.473  0.00  0.00    +0.050 A 
BRANCH  26  29
ATOM     29  O   UNL     1      -7.793   2.121  -1.856  0.00  0.00    -0.503 OA
ATOM     30  H   UNL     1      -8.545   2.749  -1.873  0.00  0.00    +0.292 HD
ENDBRANCH  26  29
BRANCH  27  31
ATOM     31  O   UNL     1     -10.285   2.204  -0.815  0.00  0.00    -0.503 OA
ATOM     32  H   UNL     1     -11.186   1.975  -0.529  0.00  0.00    +0.292 HD
ENDBRANCH  27  31
ENDBRANCH  12  24
BRANCH  18  33
ATOM     33  O   UNL     1      -8.580  -7.097   3.443  0.00  0.00    -0.507 OA
ATOM     34  H   UNL     1      -8.154  -7.932   3.700  0.00  0.00    +0.292 HD
ENDBRANCH  18  33
BRANCH  16  35
ATOM     35  O   UNL     1      -4.245  -6.480   1.595  0.00  0.00    -0.506 OA
ATOM     36  H   UNL     1      -3.720  -5.824   1.085  0.00  0.00    +0.292 HD
ENDBRANCH  16  35
ENDBRANCH  11  22
ENDBRANCH   1  11
BRANCH   3  37
ATOM     37  C   UNL     1      -4.055  -0.411  -4.599  0.00  0.00    +0.190 C 
BRANCH  37  38
ATOM     38  O   UNL     1      -3.838  -1.335  -5.663  0.00  0.00    -0.392 OA
ATOM     39  H   UNL     1      -4.627  -1.303  -6.234  0.00  0.00    +0.210 HD
ENDBRANCH  37  38
ENDBRANCH   3  37
BRANCH   4  40
ATOM     40  O   UNL     1      -1.386  -0.265  -3.215  0.00  0.00    -0.340 OA
BRANCH  40  41
ATOM     41  C   UNL     1       0.027  -0.406  -3.031  0.00  0.00    +0.282 C 
ATOM     42  O   UNL     1       0.661   0.886  -3.078  0.00  0.00    -0.341 OA
ATOM     43  C   UNL     1       0.530   1.538  -4.353  0.00  0.00    +0.178 C 
ATOM     44  C   UNL     1       1.103   0.685  -5.494  0.00  0.00    +0.177 C 
ATOM     45  C   UNL     1       0.561  -0.751  -5.446  0.00  0.00    +0.179 C 
ATOM     46  C   UNL     1       0.702  -1.353  -4.040  0.00  0.00    +0.201 C 
BRANCH  44  47
ATOM     47  O   UNL     1       2.538   0.615  -5.407  0.00  0.00    -0.386 OA
ATOM     48  H   UNL     1       2.797   0.015  -6.140  0.00  0.00    +0.210 HD
ENDBRANCH  44  47
BRANCH  45  49
ATOM     49  O   UNL     1       1.280  -1.534  -6.415  0.00  0.00    -0.386 OA
ATOM     50  H   UNL     1       1.609  -2.330  -5.954  0.00  0.00    +0.210 HD
ENDBRANCH  45  49
BRANCH  46  51
ATOM     51  O   UNL     1       2.090  -1.568  -3.726  0.00  0.00    -0.384 OA
ATOM     52  H   UNL     1       2.544  -0.705  -3.835  0.00  0.00    +0.210 HD
ENDBRANCH  46  51
BRANCH  43  53
ATOM     53  C   UNL     1       1.247   2.891  -4.237  0.00  0.00    +0.190 C 
BRANCH  53  54
ATOM     54  O   UNL     1       0.663   3.656  -3.179  0.00  0.00    -0.392 OA
ATOM     55  H   UNL     1       0.587   3.036  -2.428  0.00  0.00    +0.210 HD
ENDBRANCH  53  54
ENDBRANCH  43  53
ENDBRANCH  40  41
ENDBRANCH   4  40
TORSDOF 18
