REMARK  Name = 
REMARK  21 active torsions:
REMARK  status: ('A' for Active; 'I' for Inactive)
REMARK    1  A    between atoms: C_1  and  C_2
REMARK    2  A    between atoms: C_3  and  O_60
REMARK    3  A    between atoms: C_5  and  O_59
REMARK    4  A    between atoms: C_7  and  O_58
REMARK    5  A    between atoms: C_8  and  O_11
REMARK    6  A    between atoms: O_11  and  C_12
REMARK    7  A    between atoms: C_14  and  O_57
REMARK    8  A    between atoms: C_19  and  C_49
REMARK    9  A    between atoms: C_20  and  O_23
REMARK   10  A    between atoms: O_23  and  C_24
REMARK   11  A    between atoms: C_26  and  O_36
REMARK   12  A    between atoms: C_27  and  O_35
REMARK   13  A    between atoms: C_28  and  O_34
REMARK   14  A    between atoms: C_30  and  C_32
REMARK   15  A    between atoms: C_32  and  O_33
REMARK   16  A    between atoms: O_36  and  C_37
REMARK   17  A    between atoms: C_39  and  O_48
REMARK   18  A    between atoms: C_41  and  O_47
REMARK   19  A    between atoms: C_42  and  O_46
REMARK   20  A    between atoms: C_51  and  O_56
REMARK   21  A    between atoms: C_52  and  O_55
REMARK                            x       y       z     vdW  Elec       q    Type
REMARK                         _______ _______ _______ _____ _____    ______ ____
ROOT
ATOM      1  C   UNL     1       2.507   2.955  -2.915  0.00  0.00    +0.131 A 
ATOM      2  C   UNL     1       1.269   3.512  -2.585  0.00  0.00    +0.093 A 
ATOM      3  C   UNL     1       1.150   4.854  -2.202  0.00  0.00    +0.147 A 
ATOM      4  O   UNL     1      -0.106   5.283  -1.876  0.00  0.00    -0.451 OA
ATOM      5  C   UNL     1      -0.354   6.649  -1.832  0.00  0.00    +0.181 A 
ATOM      6  C   UNL     1       0.612   7.598  -1.797  0.00  0.00    +0.214 A 
ATOM      7  C   UNL     1       2.037   7.087  -1.741  0.00  0.00    +0.238 A 
ATOM      8  O   UNL     1       2.965   7.774  -1.345  0.00  0.00    -0.283 OA
ATOM      9  C   UNL     1       2.258   5.677  -2.155  0.00  0.00    +0.109 A 
ATOM     10  C   UNL     1       3.509   5.133  -2.497  0.00  0.00    +0.135 A 
ATOM     11  C   UNL     1       3.632   3.782  -2.873  0.00  0.00    +0.092 A 
ENDROOT
BRANCH   5  12
ATOM     12  C   UNL     1      -1.811   6.940  -1.809  0.00  0.00    +0.025 A 
ATOM     13  C   UNL     1      -2.333   7.966  -0.999  0.00  0.00    +0.015 A 
ATOM     14  C   UNL     1      -3.703   8.224  -0.949  0.00  0.00    +0.050 A 
ATOM     15  C   UNL     1      -4.571   7.428  -1.680  0.00  0.00    +0.158 A 
ATOM     16  C   UNL     1      -4.083   6.391  -2.465  0.00  0.00    +0.159 A 
ATOM     17  C   UNL     1      -2.713   6.139  -2.536  0.00  0.00    +0.060 A 
BRANCH  16  18
ATOM     18  O   UNL     1      -4.998   5.637  -3.146  0.00  0.00    -0.503 OA
ATOM     19  H   UNL     1      -4.518   5.001  -3.704  0.00  0.00    +0.292 HD
ENDBRANCH  16  18
BRANCH  15  20
ATOM     20  O   UNL     1      -5.910   7.675  -1.612  0.00  0.00    -0.503 OA
ATOM     21  H   UNL     1      -6.309   6.991  -2.188  0.00  0.00    +0.292 HD
ENDBRANCH  15  20
ENDBRANCH   5  12
BRANCH  10  22
ATOM     22  O   UNL     1       4.627   5.918  -2.494  0.00  0.00    -0.506 OA
ATOM     23  H   UNL     1       5.397   5.414  -2.799  0.00  0.00    +0.292 HD
ENDBRANCH  10  22
BRANCH   6  24
ATOM     24  O   UNL     1       0.273   8.959  -1.921  0.00  0.00    -0.453 OA
BRANCH  24  25
ATOM     25  C   UNL     1       1.054   9.953  -1.241  0.00  0.00    +0.340 C 
ATOM     26  O   UNL     1       0.349  10.416  -0.076  0.00  0.00    -0.331 OA
ATOM     27  C   UNL     1      -0.412  11.630  -0.161  0.00  0.00    +0.179 C 
ATOM     28  C   UNL     1       0.387  12.788  -0.742  0.00  0.00    +0.177 C 
ATOM     29  C   UNL     1       0.814  12.411  -2.144  0.00  0.00    +0.180 C 
ATOM     30  C   UNL     1       1.583  11.069  -2.201  0.00  0.00    +0.221 C 
BRANCH  28  31
ATOM     31  O   UNL     1       1.545  13.096   0.039  0.00  0.00    -0.386 OA
ATOM     32  H   UNL     1       1.877  13.953  -0.291  0.00  0.00    +0.210 HD
ENDBRANCH  28  31
BRANCH  29  33
ATOM     33  O   UNL     1       1.605  13.503  -2.656  0.00  0.00    -0.386 OA
ATOM     34  H   UNL     1       2.537  13.319  -2.441  0.00  0.00    +0.210 HD
ENDBRANCH  29  33
BRANCH  30  35
ATOM     35  O   UNL     1       2.016  10.706  -3.534  0.00  0.00    -0.337 OA
BRANCH  35  36
ATOM     36  C   UNL     1       1.128  10.161  -4.520  0.00  0.00    +0.282 C 
ATOM     37  O   UNL     1       1.893   9.826  -5.703  0.00  0.00    -0.346 OA
ATOM     38  C   UNL     1       2.486  10.947  -6.371  0.00  0.00    +0.197 C 
ATOM     39  C   UNL     1       1.518  12.097  -6.685  0.00  0.00    +0.171 C 
ATOM     40  C   UNL     1       0.619  12.378  -5.491  0.00  0.00    +0.178 C 
ATOM     41  C   UNL     1      -0.025  11.083  -4.964  0.00  0.00    +0.201 C 
BRANCH  41  42
ATOM     42  O   UNL     1      -0.871  10.449  -5.939  0.00  0.00    -0.384 OA
ATOM     43  H   UNL     1      -0.577  10.753  -6.822  0.00  0.00    +0.210 HD
ENDBRANCH  41  42
BRANCH  40  44
ATOM     44  O   UNL     1      -0.369  13.352  -5.849  0.00  0.00    -0.386 OA
ATOM     45  H   UNL     1      -0.100  14.189  -5.425  0.00  0.00    +0.210 HD
ENDBRANCH  40  44
BRANCH  39  46
ATOM     46  O   UNL     1       0.675  11.802  -7.807  0.00  0.00    -0.387 OA
ATOM     47  H   UNL     1       0.048  12.562  -7.852  0.00  0.00    +0.210 HD
ENDBRANCH  39  46
ENDBRANCH  35  36
ENDBRANCH  30  35
BRANCH  27  48
ATOM     48  C   UNL     1      -0.845  11.977   1.268  0.00  0.00    +0.190 C 
BRANCH  48  49
ATOM     49  O   UNL     1      -1.743  10.975   1.741  0.00  0.00    -0.392 OA
ATOM     50  H   UNL     1      -1.295  10.127   1.561  0.00  0.00    +0.210 HD
ENDBRANCH  48  49
ENDBRANCH  27  48
ENDBRANCH  24  25
ENDBRANCH   6  24
BRANCH   1  51
ATOM     51  O   UNL     1       2.732   1.644  -3.279  0.00  0.00    -0.461 OA
BRANCH  51  55
ATOM     52  C   UNL     1      -1.399   0.740  -2.741  0.00  0.00    +0.041 C 
ATOM     53  C   UNL     1      -0.284  -0.078  -2.091  0.00  0.00    +0.150 C 
ATOM     54  O   UNL     1       0.948   0.655  -2.097  0.00  0.00    -0.334 OA
ATOM     55  C   UNL     1       1.567   0.801  -3.381  0.00  0.00    +0.339 C 
ATOM     56  C   UNL     1       1.953  -0.613  -3.883  0.00  0.00    +0.214 C 
ATOM     57  C   UNL     1       0.638  -1.406  -4.053  0.00  0.00    +0.180 C 
ATOM     58  C   UNL     1      -0.134  -1.474  -2.720  0.00  0.00    +0.174 C 
BRANCH  58  59
ATOM     59  O   UNL     1       0.547  -2.346  -1.806  0.00  0.00    -0.387 OA
ATOM     60  H   UNL     1       1.497  -2.094  -1.827  0.00  0.00    +0.210 HD
ENDBRANCH  58  59
BRANCH  57  61
ATOM     61  O   UNL     1       0.873  -2.713  -4.585  0.00  0.00    -0.386 OA
ATOM     62  H   UNL     1       0.421  -3.356  -4.008  0.00  0.00    +0.210 HD
ENDBRANCH  57  61
BRANCH  56  63
ATOM     63  O   UNL     1       2.790  -1.275  -2.907  0.00  0.00    -0.383 OA
ATOM     64  H   UNL     1       3.281  -0.571  -2.440  0.00  0.00    +0.210 HD
ENDBRANCH  56  63
ENDBRANCH  51  55
ENDBRANCH   1  51
TORSDOF 20
