REMARK  Name = 
REMARK  23 active torsions:
REMARK  status: ('A' for Active; 'I' for Inactive)
REMARK    1  A    between atoms: C_1  and  C_2
REMARK    2  A    between atoms: C_3  and  O_62
REMARK    3  A    between atoms: C_5  and  O_61
REMARK    4  A    between atoms: C_7  and  O_60
REMARK    5  A    between atoms: C_8  and  O_11
REMARK    6  A    between atoms: O_11  and  C_12
REMARK    7  A    between atoms: C_12  and  C_13
REMARK    8  A    between atoms: C_14  and  O_59
REMARK    9  A    between atoms: C_16  and  O_58
REMARK   10  A    between atoms: C_17  and  O_57
REMARK   11  A    between atoms: C_18  and  O_21
REMARK   12  A    between atoms: O_21  and  C_22
REMARK   13  A    between atoms: C_23  and  C_48
REMARK   14  A    between atoms: C_27  and  O_34
REMARK   15  A    between atoms: C_29  and  O_33
REMARK   16  A    between atoms: O_34  and  C_35
REMARK   17  A    between atoms: C_37  and  O_47
REMARK   18  A    between atoms: C_38  and  O_46
REMARK   19  A    between atoms: C_40  and  O_45
REMARK   20  A    between atoms: C_42  and  C_44
REMARK   21  A    between atoms: C_50  and  O_56
REMARK   22  A    between atoms: C_51  and  O_54
REMARK   23  A    between atoms: O_54  and  C_55
REMARK                            x       y       z     vdW  Elec       q    Type
REMARK                         _______ _______ _______ _____ _____    ______ ____
ROOT
ATOM      1  C   UNL     1       4.023   6.577  -1.052  0.00  0.00    +0.214 A 
ATOM      2  C   UNL     1       4.432   7.925  -0.410  0.00  0.00    +0.238 A 
ATOM      3  O   UNL     1       4.098   8.974  -0.938  0.00  0.00    -0.283 OA
ATOM      4  C   UNL     1       5.305   7.863   0.819  0.00  0.00    +0.109 A 
ATOM      5  C   UNL     1       5.281   6.679   1.550  0.00  0.00    +0.147 A 
ATOM      6  C   UNL     1       6.015   6.507   2.751  0.00  0.00    +0.093 A 
ATOM      7  C   UNL     1       6.876   7.498   3.224  0.00  0.00    +0.131 A 
ATOM      8  C   UNL     1       6.947   8.685   2.479  0.00  0.00    +0.092 A 
ATOM      9  O   UNL     1       4.559   5.596   1.105  0.00  0.00    -0.451 OA
ATOM     10  C   UNL     1       6.152   8.878   1.312  0.00  0.00    +0.135 A 
ATOM     11  C   UNL     1       4.288   5.511  -0.255  0.00  0.00    +0.181 A 
ENDROOT
BRANCH  11  12
ATOM     12  C   UNL     1       4.760   4.214  -0.780  0.00  0.00    +0.025 A 
ATOM     13  C   UNL     1       6.093   4.212  -1.207  0.00  0.00    +0.015 A 
ATOM     14  C   UNL     1       6.803   3.022  -1.311  0.00  0.00    +0.050 A 
ATOM     15  C   UNL     1       6.191   1.795  -1.067  0.00  0.00    +0.161 A 
ATOM     16  C   UNL     1       4.814   1.793  -0.825  0.00  0.00    +0.159 A 
ATOM     17  C   UNL     1       4.103   2.991  -0.624  0.00  0.00    +0.060 A 
BRANCH  16  18
ATOM     18  O   UNL     1       4.082   0.639  -0.818  0.00  0.00    -0.503 OA
ATOM     19  H   UNL     1       3.858   0.486  -1.756  0.00  0.00    +0.292 HD
ENDBRANCH  16  18
BRANCH  15  20
ATOM     20  O   UNL     1       7.078   0.764  -1.118  0.00  0.00    -0.491 OA
ATOM     21  C   UNL     1       6.735  -0.523  -0.641  0.00  0.00    +0.277 C 
ENDBRANCH  15  20
ENDBRANCH  11  12
BRANCH  10  22
ATOM     22  O   UNL     1       6.267  10.069   0.648  0.00  0.00    -0.506 OA
ATOM     23  H   UNL     1       6.776  10.703   1.180  0.00  0.00    +0.292 HD
ENDBRANCH  10  22
BRANCH   7  24
ATOM     24  O   UNL     1       7.712   7.400   4.334  0.00  0.00    -0.461 OA
BRANCH  24  25
ATOM     25  C   UNL     1       7.368   6.406   5.329  0.00  0.00    +0.339 C 
ATOM     26  O   UNL     1       6.179   6.773   6.035  0.00  0.00    -0.334 OA
ATOM     27  C   UNL     1       6.364   7.910   6.892  0.00  0.00    +0.150 C 
ATOM     28  C   UNL     1       4.993   8.295   7.431  0.00  0.00    +0.041 C 
ATOM     29  C   UNL     1       7.347   7.591   8.033  0.00  0.00    +0.174 C 
ATOM     30  C   UNL     1       8.697   7.126   7.462  0.00  0.00    +0.180 C 
ATOM     31  C   UNL     1       8.488   6.068   6.366  0.00  0.00    +0.214 C 
BRANCH  31  32
ATOM     32  O   UNL     1       9.716   5.659   5.765  0.00  0.00    -0.383 OA
ATOM     33  H   UNL     1       9.997   6.359   5.148  0.00  0.00    +0.210 HD
ENDBRANCH  31  32
BRANCH  30  34
ATOM     34  O   UNL     1       9.466   8.255   7.020  0.00  0.00    -0.386 OA
ATOM     35  H   UNL     1       8.956   8.757   6.363  0.00  0.00    +0.210 HD
ENDBRANCH  30  34
BRANCH  29  36
ATOM     36  O   UNL     1       7.528   8.727   8.882  0.00  0.00    -0.387 OA
ATOM     37  H   UNL     1       8.430   9.071   8.727  0.00  0.00    +0.210 HD
ENDBRANCH  29  36
ENDBRANCH  24  25
ENDBRANCH   7  24
BRANCH   1  38
ATOM     38  O   UNL     1       3.643   6.571  -2.394  0.00  0.00    -0.453 OA
BRANCH  38  41
ATOM     39  C   UNL     1       2.899   4.133  -5.096  0.00  0.00    +0.179 C 
ATOM     40  O   UNL     1       3.570   4.830  -4.016  0.00  0.00    -0.331 OA
ATOM     41  C   UNL     1       2.821   5.510  -2.984  0.00  0.00    +0.340 C 
ATOM     42  C   UNL     1       1.515   6.178  -3.509  0.00  0.00    +0.214 C 
ATOM     43  C   UNL     1       0.750   5.212  -4.422  0.00  0.00    +0.180 C 
ATOM     44  C   UNL     1       1.654   4.882  -5.620  0.00  0.00    +0.177 C 
BRANCH  44  45
ATOM     45  O   UNL     1       0.944   4.143  -6.613  0.00  0.00    -0.386 OA
ATOM     46  H   UNL     1       1.573   3.955  -7.335  0.00  0.00    +0.210 HD
ENDBRANCH  44  45
BRANCH  43  47
ATOM     47  O   UNL     1      -0.490   5.797  -4.839  0.00  0.00    -0.386 OA
ATOM     48  H   UNL     1      -0.261   6.569  -5.389  0.00  0.00    +0.210 HD
ENDBRANCH  43  47
BRANCH  42  49
ATOM     49  O   UNL     1       1.774   7.370  -4.283  0.00  0.00    -0.383 OA
ATOM     50  H   UNL     1       2.625   7.739  -3.972  0.00  0.00    +0.210 HD
ENDBRANCH  42  49
BRANCH  39  51
ATOM     51  C   UNL     1       2.630   2.597  -4.868  0.00  0.00    +0.197 C 
BRANCH  51  52
ATOM     52  O   UNL     1       2.473   1.932  -6.145  0.00  0.00    -0.346 OA
BRANCH  52  56
ATOM     53  C   UNL     1       1.326  -2.109  -4.738  0.00  0.00    +0.041 C 
ATOM     54  C   UNL     1       2.326  -1.746  -5.836  0.00  0.00    +0.149 C 
ATOM     55  O   UNL     1       2.756  -0.372  -5.699  0.00  0.00    -0.343 OA
ATOM     56  C   UNL     1       1.831   0.632  -6.131  0.00  0.00    +0.282 C 
ATOM     57  C   UNL     1       1.385   0.338  -7.596  0.00  0.00    +0.201 C 
ATOM     58  C   UNL     1       0.755  -1.061  -7.694  0.00  0.00    +0.179 C 
ATOM     59  C   UNL     1       1.765  -2.117  -7.227  0.00  0.00    +0.174 C 
BRANCH  59  60
ATOM     60  O   UNL     1       2.828  -2.266  -8.178  0.00  0.00    -0.387 OA
ATOM     61  H   UNL     1       2.883  -1.421  -8.680  0.00  0.00    +0.210 HD
ENDBRANCH  59  60
BRANCH  58  62
ATOM     62  O   UNL     1       0.314  -1.331  -9.032  0.00  0.00    -0.386 OA
ATOM     63  H   UNL     1       0.374  -2.290  -9.190  0.00  0.00    +0.210 HD
ENDBRANCH  58  62
BRANCH  57  64
ATOM     64  O   UNL     1       2.539   0.384  -8.474  0.00  0.00    -0.384 OA
ATOM     65  H   UNL     1       3.206   0.922  -8.001  0.00  0.00    +0.210 HD
ENDBRANCH  57  64
ENDBRANCH  52  56
ENDBRANCH  51  52
ENDBRANCH  39  51
ENDBRANCH  38  41
ENDBRANCH   1  38
TORSDOF 20
