REMARK  Name = 
REMARK  24 active torsions:
REMARK  status: ('A' for Active; 'I' for Inactive)
REMARK    1  A    between atoms: C_1  and  C_2
REMARK    2  A    between atoms: C_3  and  O_62
REMARK    3  A    between atoms: C_5  and  O_48
REMARK    4  A    between atoms: C_7  and  O_47
REMARK    5  A    between atoms: C_8  and  O_11
REMARK    6  A    between atoms: O_11  and  C_12
REMARK    7  A    between atoms: C_12  and  C_13
REMARK    8  A    between atoms: C_14  and  O_46
REMARK    9  A    between atoms: C_16  and  O_45
REMARK   10  A    between atoms: C_17  and  O_44
REMARK   11  A    between atoms: C_18  and  O_21
REMARK   12  A    between atoms: O_21  and  C_22
REMARK   13  A    between atoms: C_23  and  C_35
REMARK   14  A    between atoms: C_27  and  O_34
REMARK   15  A    between atoms: C_29  and  O_33
REMARK   16  A    between atoms: C_37  and  O_42
REMARK   17  A    between atoms: C_38  and  O_41
REMARK   18  A    between atoms: O_42  and  C_43
REMARK   19  A    between atoms: O_48  and  C_49
REMARK   20  A    between atoms: C_49  and  C_51
REMARK   21  A    between atoms: C_52  and  C_53
REMARK   22  A    between atoms: C_55  and  O_60
REMARK   23  A    between atoms: C_56  and  O_59
REMARK   24  A    between atoms: O_60  and  C_61
REMARK                            x       y       z     vdW  Elec       q    Type
REMARK                         _______ _______ _______ _____ _____    ______ ____
ROOT
ATOM      1  C   UNL     1       3.160   4.078  -4.446  0.00  0.00    +0.179 C 
ATOM      2  O   UNL     1       3.709   5.114  -3.593  0.00  0.00    -0.331 OA
ATOM      3  C   UNL     1       2.774   6.005  -2.953  0.00  0.00    +0.340 C 
ATOM      4  C   UNL     1       1.844   6.647  -4.006  0.00  0.00    +0.214 C 
ATOM      5  C   UNL     1       1.109   5.526  -4.755  0.00  0.00    +0.180 C 
ATOM      6  C   UNL     1       2.109   4.590  -5.445  0.00  0.00    +0.177 C 
ENDROOT
BRANCH   4   7
ATOM      7  O   UNL     1       2.612   7.420  -4.965  0.00  0.00    -0.383 OA
ATOM      8  H   UNL     1       3.296   7.895  -4.456  0.00  0.00    +0.210 HD
ENDBRANCH   4   7
BRANCH   6   9
ATOM      9  O   UNL     1       2.790   5.289  -6.511  0.00  0.00    -0.386 OA
ATOM     10  H   UNL     1       3.217   6.076  -6.109  0.00  0.00    +0.210 HD
ENDBRANCH   6   9
BRANCH   5  11
ATOM     11  O   UNL     1       0.207   6.078  -5.722  0.00  0.00    -0.386 OA
ATOM     12  H   UNL     1       0.771   6.537  -6.375  0.00  0.00    +0.210 HD
ENDBRANCH   5  11
BRANCH   3  13
ATOM     13  O   UNL     1       3.495   7.031  -2.227  0.00  0.00    -0.453 OA
BRANCH  13  14
ATOM     14  C   UNL     1       2.974   7.589  -1.049  0.00  0.00    +0.214 A 
ATOM     15  C   UNL     1       1.647   7.191  -0.460  0.00  0.00    +0.238 A 
ATOM     16  O   UNL     1       0.866   6.479  -1.076  0.00  0.00    -0.283 OA
ATOM     17  C   UNL     1       1.348   7.645   0.923  0.00  0.00    +0.109 A 
ATOM     18  C   UNL     1       2.159   8.622   1.483  0.00  0.00    +0.147 A 
ATOM     19  C   UNL     1       1.903   9.133   2.764  0.00  0.00    +0.092 A 
ATOM     20  C   UNL     1       0.837   8.627   3.497  0.00  0.00    +0.124 A 
ATOM     21  C   UNL     1       0.048   7.612   2.978  0.00  0.00    +0.091 A 
ATOM     22  O   UNL     1       3.243   9.122   0.821  0.00  0.00    -0.451 OA
ATOM     23  C   UNL     1       0.306   7.128   1.694  0.00  0.00    +0.135 A 
ATOM     24  C   UNL     1       3.677   8.489  -0.325  0.00  0.00    +0.181 A 
BRANCH  24  25
ATOM     25  C   UNL     1       5.094   8.788  -0.568  0.00  0.00    +0.025 A 
ATOM     26  C   UNL     1       6.028   7.860  -0.070  0.00  0.00    +0.015 A 
ATOM     27  C   UNL     1       7.384   8.163  -0.045  0.00  0.00    +0.050 A 
ATOM     28  C   UNL     1       7.825   9.323  -0.658  0.00  0.00    +0.158 A 
ATOM     29  C   UNL     1       6.914  10.194  -1.268  0.00  0.00    +0.162 A 
ATOM     30  C   UNL     1       5.540   9.988  -1.129  0.00  0.00    +0.061 A 
BRANCH  29  31
ATOM     31  O   UNL     1       7.312  11.199  -2.112  0.00  0.00    -0.491 OA
ATOM     32  C   UNL     1       8.179  10.676  -3.132  0.00  0.00    +0.277 C 
ENDBRANCH  29  31
BRANCH  28  33
ATOM     33  O   UNL     1       9.167   9.571  -0.726  0.00  0.00    -0.503 OA
ATOM     34  H   UNL     1       9.623   8.712  -0.733  0.00  0.00    +0.292 HD
ENDBRANCH  28  33
ENDBRANCH  24  25
BRANCH  23  35
ATOM     35  O   UNL     1      -0.483   6.129   1.220  0.00  0.00    -0.506 OA
ATOM     36  H   UNL     1      -0.691   5.536   1.975  0.00  0.00    +0.292 HD
ENDBRANCH  23  35
BRANCH  20  37
ATOM     37  O   UNL     1       0.523   9.102   4.735  0.00  0.00    -0.507 OA
ATOM     38  H   UNL     1       1.058   9.892   4.922  0.00  0.00    +0.292 HD
ENDBRANCH  20  37
ENDBRANCH  13  14
ENDBRANCH   3  13
BRANCH   1  39
ATOM     39  C   UNL     1       2.775   2.742  -3.743  0.00  0.00    +0.197 C 
BRANCH  39  40
ATOM     40  O   UNL     1       1.452   2.583  -3.218  0.00  0.00    -0.346 OA
BRANCH  40  44
ATOM     41  C   UNL     1       2.788   3.717   0.724  0.00  0.00    +0.041 C 
ATOM     42  C   UNL     1       2.272   2.318   0.382  0.00  0.00    +0.150 C 
ATOM     43  O   UNL     1       2.325   2.090  -1.044  0.00  0.00    -0.343 OA
ATOM     44  C   UNL     1       1.318   2.764  -1.803  0.00  0.00    +0.283 C 
ATOM     45  C   UNL     1      -0.076   2.276  -1.331  0.00  0.00    +0.213 C 
ATOM     46  C   UNL     1      -0.200   2.756   0.125  0.00  0.00    +0.241 C 
ATOM     47  C   UNL     1       0.874   2.074   0.995  0.00  0.00    +0.186 C 
BRANCH  47  48
ATOM     48  O   UNL     1       0.634   0.666   1.122  0.00  0.00    -0.385 OA
ATOM     49  H   UNL     1       0.327   0.348   0.245  0.00  0.00    +0.210 HD
ENDBRANCH  47  48
BRANCH  45  50
ATOM     50  O   UNL     1      -0.174   0.835  -1.393  0.00  0.00    -0.383 OA
ATOM     51  H   UNL     1       0.242   0.570  -2.236  0.00  0.00    +0.210 HD
ENDBRANCH  45  50
BRANCH  46  52
ATOM     52  O   UNL     1      -1.537   2.589   0.623  0.00  0.00    -0.453 OA
BRANCH  52  53
ATOM     53  C   UNL     1      -1.779   3.379   1.704  0.00  0.00    +0.332 C 
ATOM     54  O   UNL     1      -0.960   3.945   2.413  0.00  0.00    -0.246 OA
BRANCH  53  55
ATOM     55  C   UNL     1      -3.222   3.655   1.776  0.00  0.00    +0.092 C 
ATOM     56  C   UNL     1      -3.623   4.699   2.519  0.00  0.00    +0.015 C 
BRANCH  56  57
ATOM     57  C   UNL     1      -5.048   4.963   2.662  0.00  0.00    -0.021 A 
ATOM     58  C   UNL     1      -5.721   5.792   1.761  0.00  0.00    +0.012 A 
ATOM     59  C   UNL     1      -7.101   5.928   1.862  0.00  0.00    +0.050 A 
ATOM     60  C   UNL     1      -7.784   5.240   2.862  0.00  0.00    +0.158 A 
ATOM     61  C   UNL     1      -7.115   4.422   3.781  0.00  0.00    +0.162 A 
ATOM     62  C   UNL     1      -5.736   4.300   3.684  0.00  0.00    +0.057 A 
BRANCH  61  63
ATOM     63  O   UNL     1      -7.907   3.787   4.701  0.00  0.00    -0.491 OA
ATOM     64  C   UNL     1      -7.232   2.937   5.630  0.00  0.00    +0.277 C 
ENDBRANCH  61  63
BRANCH  60  65
ATOM     65  O   UNL     1      -9.145   5.363   2.919  0.00  0.00    -0.503 OA
ATOM     66  H   UNL     1      -9.421   4.768   3.645  0.00  0.00    +0.292 HD
ENDBRANCH  60  65
ENDBRANCH  56  57
ENDBRANCH  53  55
ENDBRANCH  52  53
ENDBRANCH  46  52
ENDBRANCH  40  44
ENDBRANCH  39  40
ENDBRANCH   1  39
TORSDOF 21
