REMARK  Name = 
REMARK  19 active torsions:
REMARK  status: ('A' for Active; 'I' for Inactive)
REMARK    1  A    between atoms: C_1  and  O_2
REMARK    2  A    between atoms: O_2  and  C_3
REMARK    3  A    between atoms: C_5  and  O_50
REMARK    4  A    between atoms: C_10  and  C_41
REMARK    5  A    between atoms: C_11  and  O_14
REMARK    6  A    between atoms: O_14  and  C_15
REMARK    7  A    between atoms: C_17  and  O_40
REMARK    8  A    between atoms: C_19  and  O_39
REMARK    9  A    between atoms: C_20  and  C_23
REMARK   10  A    between atoms: C_23  and  O_24
REMARK   11  A    between atoms: O_24  and  C_25
REMARK   12  A    between atoms: C_27  and  O_38
REMARK   13  A    between atoms: C_28  and  O_37
REMARK   14  A    between atoms: C_30  and  O_36
REMARK   15  A    between atoms: C_32  and  C_34
REMARK   16  A    between atoms: C_34  and  O_35
REMARK   17  A    between atoms: C_43  and  O_48
REMARK   18  A    between atoms: C_44  and  O_47
REMARK   19  A    between atoms: O_48  and  C_49
REMARK                            x       y       z     vdW  Elec       q    Type
REMARK                         _______ _______ _______ _____ _____    ______ ____
ROOT
ATOM      1  O   UNL     1       6.104  -0.574   6.813  0.00  0.00    -0.453 OA
ENDROOT
BRANCH   1   7
ATOM      2  C   UNL     1       8.932   3.178  11.127  0.00  0.00    +0.127 A 
ATOM      3  C   UNL     1       8.628   3.397   9.776  0.00  0.00    +0.092 A 
ATOM      4  C   UNL     1       7.860   2.464   9.076  0.00  0.00    +0.147 A 
ATOM      5  O   UNL     1       7.570   2.700   7.754  0.00  0.00    -0.451 OA
ATOM      6  C   UNL     1       7.042   1.647   6.993  0.00  0.00    +0.181 A 
ATOM      7  C   UNL     1       6.583   0.497   7.541  0.00  0.00    +0.214 A 
ATOM      8  C   UNL     1       6.465   0.485   9.016  0.00  0.00    +0.238 A 
ATOM      9  O   UNL     1       5.598  -0.183   9.580  0.00  0.00    -0.283 OA
ATOM     10  C   UNL     1       7.396   1.334   9.745  0.00  0.00    +0.109 A 
ATOM     11  C   UNL     1       7.781   1.063  11.054  0.00  0.00    +0.135 A 
ATOM     12  C   UNL     1       8.557   1.984  11.749  0.00  0.00    +0.092 A 
BRANCH   6  13
ATOM     13  C   UNL     1       6.972   1.951   5.532  0.00  0.00    +0.025 A 
ATOM     14  C   UNL     1       5.880   1.523   4.752  0.00  0.00    +0.015 A 
ATOM     15  C   UNL     1       5.762   1.864   3.406  0.00  0.00    +0.050 A 
ATOM     16  C   UNL     1       6.731   2.671   2.828  0.00  0.00    +0.158 A 
ATOM     17  C   UNL     1       7.826   3.133   3.565  0.00  0.00    +0.162 A 
ATOM     18  C   UNL     1       7.946   2.762   4.913  0.00  0.00    +0.061 A 
BRANCH  16  19
ATOM     19  O   UNL     1       6.576   3.027   1.517  0.00  0.00    -0.503 OA
ATOM     20  H   UNL     1       7.336   3.606   1.318  0.00  0.00    +0.292 HD
ENDBRANCH  16  19
BRANCH  17  21
ATOM     21  O   UNL     1       8.680   3.942   2.859  0.00  0.00    -0.491 OA
ATOM     22  C   UNL     1       9.798   4.466   3.563  0.00  0.00    +0.277 C 
ENDBRANCH  17  21
ENDBRANCH   6  13
BRANCH   2  24
ATOM     23  C   UNL     1       9.270   4.333  13.141  0.00  0.00    +0.277 C 
ATOM     24  O   UNL     1       9.630   4.167  11.766  0.00  0.00    -0.495 OA
ENDBRANCH   2  24
BRANCH  11  25
ATOM     25  O   UNL     1       7.445  -0.119  11.647  0.00  0.00    -0.506 OA
ATOM     26  H   UNL     1       7.700  -0.113  12.585  0.00  0.00    +0.292 HD
ENDBRANCH  11  25
ENDBRANCH   1   7
BRANCH   1  27
ATOM     27  C   UNL     1       6.290  -1.860   7.417  0.00  0.00    +0.340 C 
ATOM     28  O   UNL     1       7.324  -2.602   6.757  0.00  0.00    -0.331 OA
ATOM     29  C   UNL     1       6.840  -3.940   6.539  0.00  0.00    +0.179 C 
ATOM     30  C   UNL     1       5.498  -4.097   7.269  0.00  0.00    +0.180 C 
ATOM     31  C   UNL     1       4.985  -2.669   7.343  0.00  0.00    +0.214 C 
BRANCH  30  32
ATOM     32  O   UNL     1       5.614  -4.652   8.582  0.00  0.00    -0.386 OA
ATOM     33  H   UNL     1       6.213  -4.109   9.120  0.00  0.00    +0.210 HD
ENDBRANCH  30  32
BRANCH  31  34
ATOM     34  O   UNL     1       4.215  -2.383   6.174  0.00  0.00    -0.383 OA
ATOM     35  H   UNL     1       3.910  -1.463   6.281  0.00  0.00    +0.210 HD
ENDBRANCH  31  34
BRANCH  29  36
ATOM     36  C   UNL     1       7.906  -4.932   7.003  0.00  0.00    +0.197 C 
BRANCH  36  37
ATOM     37  O   UNL     1       7.621  -6.309   6.758  0.00  0.00    -0.346 OA
BRANCH  37  38
ATOM     38  C   UNL     1       7.369  -6.679   5.396  0.00  0.00    +0.282 C 
ATOM     39  O   UNL     1       6.867  -8.024   5.380  0.00  0.00    -0.341 OA
ATOM     40  C   UNL     1       7.801  -8.990   5.898  0.00  0.00    +0.178 C 
ATOM     41  C   UNL     1       9.145  -8.963   5.134  0.00  0.00    +0.177 C 
ATOM     42  C   UNL     1       9.701  -7.537   5.042  0.00  0.00    +0.179 C 
ATOM     43  C   UNL     1       8.622  -6.589   4.498  0.00  0.00    +0.201 C 
BRANCH  41  44
ATOM     44  O   UNL     1       8.971  -9.477   3.809  0.00  0.00    -0.386 OA
ATOM     45  H   UNL     1       9.829  -9.436   3.350  0.00  0.00    +0.210 HD
ENDBRANCH  41  44
BRANCH  42  46
ATOM     46  O   UNL     1      10.202  -7.086   6.308  0.00  0.00    -0.386 OA
ATOM     47  H   UNL     1       9.436  -6.991   6.917  0.00  0.00    +0.210 HD
ENDBRANCH  42  46
BRANCH  43  48
ATOM     48  O   UNL     1       9.136  -5.259   4.374  0.00  0.00    -0.384 OA
ATOM     49  H   UNL     1       9.940  -5.207   4.927  0.00  0.00    +0.210 HD
ENDBRANCH  43  48
BRANCH  40  50
ATOM     50  C   UNL     1       7.152 -10.384   5.835  0.00  0.00    +0.190 C 
BRANCH  50  51
ATOM     51  O   UNL     1       5.975 -10.480   6.642  0.00  0.00    -0.392 OA
ATOM     52  H   UNL     1       5.904  -9.671   7.177  0.00  0.00    +0.210 HD
ENDBRANCH  50  51
ENDBRANCH  40  50
ENDBRANCH  37  38
ENDBRANCH  36  37
ENDBRANCH  29  36
ENDBRANCH   1  27
TORSDOF 17
