REMARK  Name = 
REMARK  17 active torsions:
REMARK  status: ('A' for Active; 'I' for Inactive)
REMARK    1  A    between atoms: C_3  and  O_22
REMARK    2  A    between atoms: C_4  and  O_21
REMARK    3  A    between atoms: C_6  and  C_7
REMARK    4  A    between atoms: C_8  and  O_20
REMARK    5  A    between atoms: C_12  and  O_19
REMARK    6  A    between atoms: C_14  and  O_18
REMARK    7  A    between atoms: O_22  and  C_23
REMARK    8  A    between atoms: C_25  and  O_46
REMARK    9  A    between atoms: C_26  and  O_45
REMARK   10  A    between atoms: C_27  and  O_44
REMARK   11  A    between atoms: C_29  and  C_31
REMARK   12  A    between atoms: C_31  and  O_32
REMARK   13  A    between atoms: O_32  and  C_33
REMARK   14  A    between atoms: C_33  and  C_35
REMARK   15  A    between atoms: C_37  and  O_43
REMARK   16  A    between atoms: C_38  and  O_42
REMARK   17  A    between atoms: C_39  and  O_41
REMARK                            x       y       z     vdW  Elec       q    Type
REMARK                         _______ _______ _______ _____ _____    ______ ____
ROOT
ATOM      1  C   UNL     1       0.052   3.645  -0.197  0.00  0.00    +0.339 C 
ATOM      2  O   UNL     1      -0.298   3.811  -1.574  0.00  0.00    -0.330 OA
ATOM      3  C   UNL     1       0.410   4.828  -2.295  0.00  0.00    +0.191 C 
ATOM      4  C   UNL     1       0.124   6.180  -1.644  0.00  0.00    +0.178 C 
ATOM      5  C   UNL     1       0.727   6.173  -0.240  0.00  0.00    +0.180 C 
ATOM      6  C   UNL     1       0.231   4.976   0.584  0.00  0.00    +0.214 C 
ENDROOT
BRANCH   6   7
ATOM      7  O   UNL     1       0.935   4.835   1.821  0.00  0.00    -0.383 OA
ATOM      8  H   UNL     1       1.890   4.894   1.642  0.00  0.00    +0.210 HD
ENDBRANCH   6   7
BRANCH   5   9
ATOM      9  O   UNL     1       0.382   7.417   0.402  0.00  0.00    -0.386 OA
ATOM     10  H   UNL     1      -0.412   7.271   0.950  0.00  0.00    +0.210 HD
ENDBRANCH   5   9
BRANCH   4  11
ATOM     11  O   UNL     1      -1.296   6.389  -1.555  0.00  0.00    -0.386 OA
ATOM     12  H   UNL     1      -1.424   7.296  -1.224  0.00  0.00    +0.210 HD
ENDBRANCH   4  11
BRANCH   3  13
ATOM     13  C   UNL     1      -0.106   4.803  -3.743  0.00  0.00    +0.266 C 
BRANCH  13  14
ATOM     14  O   UNL     1       0.291   3.580  -4.395  0.00  0.00    -0.458 OA
BRANCH  14  15
ATOM     15  C   UNL     1       1.541   3.583  -4.918  0.00  0.00    +0.340 C 
ATOM     16  O   UNL     1       2.315   4.525  -4.912  0.00  0.00    -0.245 OA
BRANCH  15  17
ATOM     17  C   UNL     1       1.851   2.252  -5.499  0.00  0.00    +0.066 A 
ATOM     18  C   UNL     1       2.887   2.163  -6.441  0.00  0.00    +0.064 A 
ATOM     19  C   UNL     1       3.231   0.921  -6.956  0.00  0.00    +0.163 A 
ATOM     20  C   UNL     1       2.560  -0.223  -6.545  0.00  0.00    +0.201 A 
ATOM     21  C   UNL     1       1.529  -0.138  -5.615  0.00  0.00    +0.163 A 
ATOM     22  C   UNL     1       1.164   1.095  -5.085  0.00  0.00    +0.064 A 
BRANCH  21  23
ATOM     23  O   UNL     1       0.908  -1.297  -5.243  0.00  0.00    -0.503 OA
ATOM     24  H   UNL     1       0.232  -1.085  -4.574  0.00  0.00    +0.292 HD
ENDBRANCH  21  23
BRANCH  20  25
ATOM     25  O   UNL     1       2.935  -1.434  -7.059  0.00  0.00    -0.501 OA
ATOM     26  H   UNL     1       2.346  -2.079  -6.616  0.00  0.00    +0.292 HD
ENDBRANCH  20  25
BRANCH  19  27
ATOM     27  O   UNL     1       4.247   0.829  -7.862  0.00  0.00    -0.503 OA
ATOM     28  H   UNL     1       4.324  -0.128  -8.054  0.00  0.00    +0.292 HD
ENDBRANCH  19  27
ENDBRANCH  15  17
ENDBRANCH  14  15
ENDBRANCH  13  14
ENDBRANCH   3  13
BRANCH   1  29
ATOM     29  O   UNL     1       1.050   2.605  -0.036  0.00  0.00    -0.457 OA
BRANCH  29  34
ATOM     30  C   UNL     1      -1.250  -0.199  -0.961  0.00  0.00    +0.015 A 
ATOM     31  C   UNL     1      -0.422  -1.320  -0.853  0.00  0.00    +0.025 A 
ATOM     32  C   UNL     1       0.903  -1.097  -0.440  0.00  0.00    +0.060 A 
ATOM     33  C   UNL     1       1.367   0.206  -0.155  0.00  0.00    +0.159 A 
ATOM     34  C   UNL     1       0.536   1.324  -0.295  0.00  0.00    +0.165 A 
ATOM     35  C   UNL     1      -0.770   1.084  -0.717  0.00  0.00    +0.050 A 
BRANCH  31  36
ATOM     36  C   UNL     1      -1.003  -2.621  -1.279  0.00  0.00    +0.181 A 
ATOM     37  O   UNL     1      -1.952  -2.441  -2.288  0.00  0.00    -0.451 OA
ATOM     38  C   UNL     1      -2.676  -3.507  -2.742  0.00  0.00    +0.147 A 
ATOM     39  C   UNL     1      -2.407  -4.810  -2.349  0.00  0.00    +0.109 A 
ATOM     40  C   UNL     1      -3.161  -5.864  -2.879  0.00  0.00    +0.135 A 
ATOM     41  C   UNL     1      -4.186  -5.614  -3.789  0.00  0.00    +0.091 A 
ATOM     42  C   UNL     1      -4.456  -4.301  -4.160  0.00  0.00    +0.124 A 
ATOM     43  C   UNL     1      -1.347  -5.031  -1.361  0.00  0.00    +0.238 A 
ATOM     44  O   UNL     1      -1.067  -6.182  -1.025  0.00  0.00    -0.283 OA
ATOM     45  C   UNL     1      -3.709  -3.245  -3.646  0.00  0.00    +0.092 A 
ATOM     46  C   UNL     1      -0.687  -3.830  -0.772  0.00  0.00    +0.208 A 
BRANCH  46  47
ATOM     47  O   UNL     1       0.183  -4.049   0.279  0.00  0.00    -0.501 OA
ATOM     48  H   UNL     1       0.203  -3.257   0.842  0.00  0.00    +0.292 HD
ENDBRANCH  46  47
BRANCH  42  49
ATOM     49  O   UNL     1      -5.457  -4.006  -5.038  0.00  0.00    -0.507 OA
ATOM     50  H   UNL     1      -5.888  -4.833  -5.313  0.00  0.00    +0.292 HD
ENDBRANCH  42  49
BRANCH  40  51
ATOM     51  O   UNL     1      -2.945  -7.174  -2.543  0.00  0.00    -0.506 OA
ATOM     52  H   UNL     1      -2.194  -7.204  -1.906  0.00  0.00    +0.292 HD
ENDBRANCH  40  51
ENDBRANCH  31  36
BRANCH  33  53
ATOM     53  O   UNL     1       2.661   0.327   0.263  0.00  0.00    -0.503 OA
ATOM     54  H   UNL     1       2.818   1.277   0.413  0.00  0.00    +0.292 HD
ENDBRANCH  33  53
ENDBRANCH  29  34
ENDBRANCH   1  29
TORSDOF 17
