REMARK  Name = 
REMARK  14 active torsions:
REMARK  status: ('A' for Active; 'I' for Inactive)
REMARK    1  A    between atoms: C_1  and  O_2
REMARK    2  A    between atoms: O_2  and  C_3
REMARK    3  A    between atoms: C_4  and  O_38
REMARK    4  A    between atoms: C_7  and  C_9
REMARK    5  A    between atoms: C_10  and  O_36
REMARK    6  A    between atoms: C_14  and  O_35
REMARK    7  A    between atoms: C_16  and  O_20
REMARK    8  A    between atoms: O_20  and  C_21
REMARK    9  A    between atoms: C_23  and  O_34
REMARK   10  A    between atoms: C_24  and  O_33
REMARK   11  A    between atoms: C_26  and  O_32
REMARK   12  A    between atoms: C_28  and  C_30
REMARK   13  A    between atoms: C_30  and  O_31
REMARK   14  A    between atoms: O_36  and  C_37
REMARK                            x       y       z     vdW  Elec       q    Type
REMARK                         _______ _______ _______ _____ _____    ______ ____
ROOT
ATOM      1  C   UNL     1       2.607  -4.783   0.469  0.00  0.00    +0.181 A 
ATOM      2  O   UNL     1       3.354  -5.859   0.968  0.00  0.00    -0.451 OA
ATOM      3  C   UNL     1       2.987  -7.145   0.640  0.00  0.00    +0.147 A 
ATOM      4  C   UNL     1       1.845  -7.428  -0.088  0.00  0.00    +0.109 A 
ATOM      5  C   UNL     1       1.512  -8.754  -0.396  0.00  0.00    +0.135 A 
ATOM      6  C   UNL     1       2.337  -9.804   0.000  0.00  0.00    +0.092 A 
ATOM      7  C   UNL     1       3.515  -9.533   0.697  0.00  0.00    +0.131 A 
ATOM      8  C   UNL     1       1.016  -6.315  -0.543  0.00  0.00    +0.238 A 
ATOM      9  O   UNL     1      -0.025  -6.558  -1.148  0.00  0.00    -0.283 OA
ATOM     10  C   UNL     1       3.816  -8.202   1.048  0.00  0.00    +0.093 A 
ATOM     11  C   UNL     1       1.485  -4.922  -0.284  0.00  0.00    +0.211 A 
ENDROOT
BRANCH   1  14
ATOM     12  C   UNL     1       3.007  -1.427   2.205  0.00  0.00    +0.162 A 
ATOM     13  C   UNL     1       2.575  -2.730   1.931  0.00  0.00    +0.061 A 
ATOM     14  C   UNL     1       3.164  -3.473   0.885  0.00  0.00    +0.025 A 
ATOM     15  C   UNL     1       4.256  -2.928   0.188  0.00  0.00    +0.015 A 
ATOM     16  C   UNL     1       4.706  -1.636   0.479  0.00  0.00    +0.050 A 
ATOM     17  C   UNL     1       4.064  -0.894   1.460  0.00  0.00    +0.158 A 
BRANCH  12  19
ATOM     18  C   UNL     1       1.384  -1.014   3.908  0.00  0.00    +0.277 C 
ATOM     19  O   UNL     1       2.480  -0.559   3.126  0.00  0.00    -0.491 OA
ENDBRANCH  12  19
BRANCH  17  20
ATOM     20  O   UNL     1       4.475   0.395   1.674  0.00  0.00    -0.503 OA
ATOM     21  H   UNL     1       3.865   0.749   2.351  0.00  0.00    +0.292 HD
ENDBRANCH  17  20
ENDBRANCH   1  14
BRANCH   5  22
ATOM     22  O   UNL     1       0.397  -9.093  -1.116  0.00  0.00    -0.506 OA
ATOM     23  H   UNL     1      -0.091  -8.262  -1.330  0.00  0.00    +0.292 HD
ENDBRANCH   5  22
BRANCH  11  24
ATOM     24  O   UNL     1       0.660  -3.986  -0.847  0.00  0.00    -0.488 OA
ATOM     25  C   UNL     1       1.082  -2.688  -1.221  0.00  0.00    +0.277 C 
ENDBRANCH  11  24
BRANCH   7  26
ATOM     26  O   UNL     1       4.305 -10.639   0.947  0.00  0.00    -0.461 OA
BRANCH  26  27
ATOM     27  C   UNL     1       5.694 -10.349   1.182  0.00  0.00    +0.339 C 
ATOM     28  O   UNL     1       6.267  -9.651   0.072  0.00  0.00    -0.331 OA
ATOM     29  C   UNL     1       6.386 -10.463  -1.112  0.00  0.00    +0.179 C 
ATOM     30  C   UNL     1       7.392 -11.596  -0.851  0.00  0.00    +0.177 C 
ATOM     31  C   UNL     1       6.878 -12.468   0.300  0.00  0.00    +0.180 C 
ATOM     32  C   UNL     1       6.519 -11.614   1.531  0.00  0.00    +0.214 C 
BRANCH  30  33
ATOM     33  O   UNL     1       8.663 -11.032  -0.508  0.00  0.00    -0.386 OA
ATOM     34  H   UNL     1       9.287 -11.755  -0.321  0.00  0.00    +0.210 HD
ENDBRANCH  30  33
BRANCH  31  35
ATOM     35  O   UNL     1       5.758 -13.270  -0.103  0.00  0.00    -0.386 OA
ATOM     36  H   UNL     1       4.956 -12.711  -0.136  0.00  0.00    +0.210 HD
ENDBRANCH  31  35
BRANCH  32  37
ATOM     37  O   UNL     1       5.888 -12.424   2.531  0.00  0.00    -0.383 OA
ATOM     38  H   UNL     1       5.413 -13.140   2.065  0.00  0.00    +0.210 HD
ENDBRANCH  32  37
BRANCH  29  39
ATOM     39  C   UNL     1       6.815  -9.561  -2.279  0.00  0.00    +0.190 C 
BRANCH  39  40
ATOM     40  O   UNL     1       5.791  -8.620  -2.622  0.00  0.00    -0.392 OA
ATOM     41  H   UNL     1       4.936  -9.088  -2.627  0.00  0.00    +0.210 HD
ENDBRANCH  39  40
ENDBRANCH  29  39
ENDBRANCH  26  27
ENDBRANCH   7  26
TORSDOF 12
