REMARK  Name = 
REMARK  22 active torsions:
REMARK  status: ('A' for Active; 'I' for Inactive)
REMARK    1  A    between atoms: C_1  and  C_2
REMARK    2  A    between atoms: C_3  and  O_61
REMARK    3  A    between atoms: C_5  and  O_60
REMARK    4  A    between atoms: C_7  and  O_59
REMARK    5  A    between atoms: C_8  and  O_11
REMARK    6  A    between atoms: O_11  and  C_12
REMARK    7  A    between atoms: C_14  and  O_58
REMARK    8  A    between atoms: C_16  and  O_57
REMARK    9  A    between atoms: C_17  and  O_22
REMARK   10  A    between atoms: C_20  and  C_21
REMARK   11  A    between atoms: O_22  and  C_23
REMARK   12  A    between atoms: C_23  and  C_24
REMARK   13  A    between atoms: C_25  and  O_56
REMARK   14  A    between atoms: C_27  and  O_55
REMARK   15  A    between atoms: C_28  and  O_54
REMARK   16  A    between atoms: C_29  and  O_32
REMARK   17  A    between atoms: O_32  and  C_33
REMARK   18  A    between atoms: C_34  and  C_46
REMARK   19  A    between atoms: C_38  and  O_45
REMARK   20  A    between atoms: C_40  and  O_44
REMARK   21  A    between atoms: C_48  and  O_53
REMARK   22  A    between atoms: C_49  and  O_52
REMARK                            x       y       z     vdW  Elec       q    Type
REMARK                         _______ _______ _______ _____ _____    ______ ____
ROOT
ATOM      1  C   UNL     1      -1.409   4.626  -6.511  0.00  0.00    +0.179 C 
ATOM      2  O   UNL     1      -2.386   3.567  -6.598  0.00  0.00    -0.331 OA
ATOM      3  C   UNL     1      -2.232   2.805  -7.808  0.00  0.00    +0.340 C 
ATOM      4  C   UNL     1      -2.507   3.722  -9.017  0.00  0.00    +0.214 C 
ATOM      5  C   UNL     1      -1.648   4.998  -8.985  0.00  0.00    +0.180 C 
ATOM      6  C   UNL     1      -1.727   5.668  -7.597  0.00  0.00    +0.177 C 
ENDROOT
BRANCH   6   7
ATOM      7  O   UNL     1      -0.850   6.787  -7.517  0.00  0.00    -0.386 OA
ATOM      8  H   UNL     1      -1.145   7.351  -6.780  0.00  0.00    +0.210 HD
ENDBRANCH   6   7
BRANCH   5   9
ATOM      9  O   UNL     1      -2.120   5.898 -10.000  0.00  0.00    -0.386 OA
ATOM     10  H   UNL     1      -3.093   5.805  -9.997  0.00  0.00    +0.210 HD
ENDBRANCH   5   9
BRANCH   4  11
ATOM     11  O   UNL     1      -3.893   4.148  -9.015  0.00  0.00    -0.383 OA
ATOM     12  H   UNL     1      -4.265   3.890  -8.148  0.00  0.00    +0.210 HD
ENDBRANCH   4  11
BRANCH   3  13
ATOM     13  O   UNL     1      -3.157   1.720  -7.770  0.00  0.00    -0.453 OA
BRANCH  13  14
ATOM     14  C   UNL     1      -3.019   0.698  -8.701  0.00  0.00    +0.214 A 
ATOM     15  C   UNL     1      -1.672   0.346  -9.279  0.00  0.00    +0.238 A 
ATOM     16  O   UNL     1      -0.636   0.798  -8.817  0.00  0.00    -0.283 OA
ATOM     17  C   UNL     1      -1.636  -0.614 -10.391  0.00  0.00    +0.109 A 
ATOM     18  C   UNL     1      -2.810  -1.309 -10.669  0.00  0.00    +0.147 A 
ATOM     19  C   UNL     1      -2.801  -2.317 -11.634  0.00  0.00    +0.092 A 
ATOM     20  C   UNL     1      -1.619  -2.601 -12.316  0.00  0.00    +0.124 A 
ATOM     21  C   UNL     1      -0.458  -1.876 -12.078  0.00  0.00    +0.091 A 
ATOM     22  O   UNL     1      -3.997  -1.073 -10.022  0.00  0.00    -0.451 OA
ATOM     23  C   UNL     1      -0.470  -0.871 -11.119  0.00  0.00    +0.135 A 
ATOM     24  C   UNL     1      -4.078  -0.038  -9.091  0.00  0.00    +0.181 A 
BRANCH  24  25
ATOM     25  C   UNL     1      -5.465   0.160  -8.560  0.00  0.00    +0.025 A 
ATOM     26  C   UNL     1      -6.578  -0.110  -9.382  0.00  0.00    +0.015 A 
ATOM     27  C   UNL     1      -7.892   0.024  -8.903  0.00  0.00    +0.050 A 
ATOM     28  C   UNL     1      -8.103   0.438  -7.599  0.00  0.00    +0.158 A 
ATOM     29  C   UNL     1      -7.025   0.721  -6.772  0.00  0.00    +0.159 A 
ATOM     30  C   UNL     1      -5.719   0.568  -7.234  0.00  0.00    +0.060 A 
BRANCH  29  31
ATOM     31  O   UNL     1      -7.296   1.146  -5.499  0.00  0.00    -0.503 OA
ATOM     32  H   UNL     1      -6.454   1.380  -5.070  0.00  0.00    +0.292 HD
ENDBRANCH  29  31
BRANCH  28  33
ATOM     33  O   UNL     1      -9.377   0.562  -7.124  0.00  0.00    -0.503 OA
ATOM     34  H   UNL     1      -9.266   0.844  -6.194  0.00  0.00    +0.292 HD
ENDBRANCH  28  33
ENDBRANCH  24  25
BRANCH  23  35
ATOM     35  O   UNL     1       0.663  -0.141 -10.913  0.00  0.00    -0.506 OA
ATOM     36  H   UNL     1       1.392  -0.491 -11.462  0.00  0.00    +0.292 HD
ENDBRANCH  23  35
BRANCH  20  37
ATOM     37  O   UNL     1      -1.547  -3.600 -13.241  0.00  0.00    -0.507 OA
ATOM     38  H   UNL     1      -2.379  -4.101 -13.236  0.00  0.00    +0.292 HD
ENDBRANCH  20  37
ENDBRANCH  13  14
ENDBRANCH   3  13
BRANCH   1  39
ATOM     39  C   UNL     1       0.048   4.085  -6.586  0.00  0.00    +0.197 C 
BRANCH  39  40
ATOM     40  O   UNL     1       1.103   4.968  -6.241  0.00  0.00    -0.346 OA
BRANCH  40  45
ATOM     41  C   UNL     1       3.593   5.051  -3.729  0.00  0.00    +0.181 C 
ATOM     42  C   UNL     1       3.417   6.098  -4.850  0.00  0.00    +0.150 C 
ATOM     43  C   UNL     1       3.957   5.740  -6.238  0.00  0.00    +0.041 C 
ATOM     44  O   UNL     1       2.068   6.588  -4.889  0.00  0.00    -0.343 OA
ATOM     45  C   UNL     1       1.035   5.591  -4.967  0.00  0.00    +0.282 C 
ATOM     46  C   UNL     1       1.140   4.607  -3.778  0.00  0.00    +0.201 C 
ATOM     47  C   UNL     1       2.519   3.950  -3.776  0.00  0.00    +0.179 C 
BRANCH  47  48
ATOM     48  O   UNL     1       2.644   3.047  -4.886  0.00  0.00    -0.386 OA
ATOM     49  H   UNL     1       2.460   3.535  -5.712  0.00  0.00    +0.210 HD
ENDBRANCH  47  48
BRANCH  46  50
ATOM     50  O   UNL     1       0.118   3.605  -3.769  0.00  0.00    -0.384 OA
ATOM     51  H   UNL     1       0.547   2.769  -4.050  0.00  0.00    +0.210 HD
ENDBRANCH  46  50
BRANCH  41  52
ATOM     52  O   UNL     1       4.859   4.415  -3.632  0.00  0.00    -0.340 OA
BRANCH  52  56
ATOM     53  C   UNL     1       8.797   5.472  -4.652  0.00  0.00    +0.041 C 
ATOM     54  C   UNL     1       8.404   4.893  -3.297  0.00  0.00    +0.149 C 
ATOM     55  O   UNL     1       7.101   4.308  -3.374  0.00  0.00    -0.343 OA
ATOM     56  C   UNL     1       6.012   5.230  -3.484  0.00  0.00    +0.282 C 
ATOM     57  C   UNL     1       5.986   6.123  -2.224  0.00  0.00    +0.201 C 
ATOM     58  C   UNL     1       7.320   6.888  -2.167  0.00  0.00    +0.179 C 
ATOM     59  C   UNL     1       8.510   5.912  -2.148  0.00  0.00    +0.174 C 
BRANCH  59  60
ATOM     60  O   UNL     1       8.561   5.219  -0.892  0.00  0.00    -0.387 OA
ATOM     61  H   UNL     1       7.660   4.870  -0.722  0.00  0.00    +0.210 HD
ENDBRANCH  59  60
BRANCH  58  62
ATOM     62  O   UNL     1       7.342   7.793  -1.060  0.00  0.00    -0.386 OA
ATOM     63  H   UNL     1       8.223   7.739  -0.647  0.00  0.00    +0.210 HD
ENDBRANCH  58  62
BRANCH  57  64
ATOM     64  O   UNL     1       5.821   5.293  -1.053  0.00  0.00    -0.384 OA
ATOM     65  H   UNL     1       5.472   4.435  -1.370  0.00  0.00    +0.210 HD
ENDBRANCH  57  64
ENDBRANCH  52  56
ENDBRANCH  41  52
ENDBRANCH  40  45
ENDBRANCH  39  40
ENDBRANCH   1  39
TORSDOF 20
