REMARK  Name = 
REMARK  24 active torsions:
REMARK  status: ('A' for Active; 'I' for Inactive)
REMARK    1  A    between atoms: C_3  and  O_63
REMARK    2  A    between atoms: C_4  and  O_62
REMARK    3  A    between atoms: C_6  and  C_7
REMARK    4  A    between atoms: C_8  and  O_48
REMARK    5  A    between atoms: C_12  and  O_47
REMARK    6  A    between atoms: C_14  and  O_18
REMARK    7  A    between atoms: O_18  and  C_19
REMARK    8  A    between atoms: C_21  and  O_32
REMARK    9  A    between atoms: C_22  and  O_31
REMARK   10  A    between atoms: C_24  and  O_30
REMARK   11  A    between atoms: C_26  and  C_28
REMARK   12  A    between atoms: C_28  and  O_29
REMARK   13  A    between atoms: O_32  and  C_33
REMARK   14  A    between atoms: C_35  and  O_46
REMARK   15  A    between atoms: C_36  and  O_45
REMARK   16  A    between atoms: C_38  and  O_44
REMARK   17  A    between atoms: C_40  and  C_42
REMARK   18  A    between atoms: C_42  and  O_43
REMARK   19  A    between atoms: O_48  and  C_49
REMARK   20  A    between atoms: C_51  and  O_61
REMARK   21  A    between atoms: C_52  and  O_60
REMARK   22  A    between atoms: C_53  and  O_59
REMARK   23  A    between atoms: C_55  and  C_57
REMARK   24  A    between atoms: C_57  and  O_58
REMARK                            x       y       z     vdW  Elec       q    Type
REMARK                         _______ _______ _______ _____ _____    ______ ____
ROOT
ATOM      1  C   UNL     1      -1.329  -2.653   0.435  0.00  0.00    +0.181 A 
ATOM      2  O   UNL     1      -0.735  -3.896   0.664  0.00  0.00    -0.451 OA
ATOM      3  C   UNL     1      -1.476  -5.042   0.559  0.00  0.00    +0.147 A 
ATOM      4  C   UNL     1      -2.815  -5.022   0.212  0.00  0.00    +0.109 A 
ATOM      5  C   UNL     1      -3.527  -6.224   0.219  0.00  0.00    +0.135 A 
ATOM      6  C   UNL     1      -2.879  -7.436   0.476  0.00  0.00    +0.092 A 
ATOM      7  C   UNL     1      -1.490  -7.472   0.592  0.00  0.00    +0.131 A 
ATOM      8  C   UNL     1      -3.405  -3.736  -0.227  0.00  0.00    +0.238 A 
ATOM      9  O   UNL     1      -4.502  -3.711  -0.769  0.00  0.00    -0.283 OA
ATOM     10  C   UNL     1      -0.808  -6.260   0.743  0.00  0.00    +0.093 A 
ATOM     11  C   UNL     1      -2.586  -2.491  -0.035  0.00  0.00    +0.214 A 
ENDROOT
BRANCH   1  13
ATOM     12  C   UNL     1      -0.798  -0.187   0.720  0.00  0.00    +0.015 A 
ATOM     13  C   UNL     1      -0.377  -1.520   0.602  0.00  0.00    +0.025 A 
ATOM     14  C   UNL     1       1.005  -1.760   0.504  0.00  0.00    +0.060 A 
ATOM     15  C   UNL     1       1.881  -0.698   0.317  0.00  0.00    +0.159 A 
ATOM     16  C   UNL     1       1.406   0.604   0.207  0.00  0.00    +0.158 A 
ATOM     17  C   UNL     1       0.069   0.882   0.453  0.00  0.00    +0.050 A 
BRANCH  16  18
ATOM     18  O   UNL     1       2.274   1.585  -0.172  0.00  0.00    -0.503 OA
ATOM     19  H   UNL     1       1.754   2.290  -0.599  0.00  0.00    +0.292 HD
ENDBRANCH  16  18
BRANCH  15  20
ATOM     20  O   UNL     1       3.221  -0.964   0.176  0.00  0.00    -0.503 OA
ATOM     21  H   UNL     1       3.614  -0.066   0.076  0.00  0.00    +0.292 HD
ENDBRANCH  15  20
ENDBRANCH   1  13
BRANCH   5  22
ATOM     22  O   UNL     1      -4.851  -6.321  -0.073  0.00  0.00    -0.506 OA
ATOM     23  H   UNL     1      -5.157  -5.463  -0.450  0.00  0.00    +0.292 HD
ENDBRANCH   5  22
BRANCH  11  24
ATOM     24  O   UNL     1      -3.219  -1.265  -0.098  0.00  0.00    -0.453 OA
BRANCH  24  25
ATOM     25  C   UNL     1      -3.529  -0.586  -1.333  0.00  0.00    +0.340 C 
ATOM     26  O   UNL     1      -2.913   0.721  -1.401  0.00  0.00    -0.331 OA
ATOM     27  C   UNL     1      -3.456   1.810  -0.598  0.00  0.00    +0.179 C 
ATOM     28  C   UNL     1      -4.889   1.687  -0.031  0.00  0.00    +0.177 C 
ATOM     29  C   UNL     1      -5.456   0.273  -0.078  0.00  0.00    +0.180 C 
ATOM     30  C   UNL     1      -5.049  -0.364  -1.419  0.00  0.00    +0.214 C 
BRANCH  30  31
ATOM     31  O   UNL     1      -5.823  -1.531  -1.683  0.00  0.00    -0.383 OA
ATOM     32  H   UNL     1      -5.263  -2.327  -1.559  0.00  0.00    +0.210 HD
ENDBRANCH  30  31
BRANCH  29  33
ATOM     33  O   UNL     1      -6.876   0.354   0.092  0.00  0.00    -0.386 OA
ATOM     34  H   UNL     1      -7.261  -0.168  -0.643  0.00  0.00    +0.210 HD
ENDBRANCH  29  33
BRANCH  28  35
ATOM     35  O   UNL     1      -5.811   2.542  -0.732  0.00  0.00    -0.386 OA
ATOM     36  H   UNL     1      -6.682   2.346  -0.323  0.00  0.00    +0.210 HD
ENDBRANCH  28  35
BRANCH  27  37
ATOM     37  C   UNL     1      -3.299   3.093  -1.445  0.00  0.00    +0.190 C 
BRANCH  37  38
ATOM     38  O   UNL     1      -1.926   3.259  -1.810  0.00  0.00    -0.392 OA
ATOM     39  H   UNL     1      -1.641   2.376  -2.116  0.00  0.00    +0.210 HD
ENDBRANCH  37  38
ENDBRANCH  27  37
ENDBRANCH  24  25
ENDBRANCH  11  24
BRANCH   7  40
ATOM     40  O   UNL     1      -0.694  -8.585   0.499  0.00  0.00    -0.461 OA
BRANCH  40  41
ATOM     41  C   UNL     1      -1.284  -9.817   0.057  0.00  0.00    +0.340 C 
ATOM     42  O   UNL     1      -1.076 -10.818   1.071  0.00  0.00    -0.331 OA
ATOM     43  C   UNL     1       0.272 -11.318   1.081  0.00  0.00    +0.179 C 
ATOM     44  C   UNL     1       0.500 -12.094  -0.225  0.00  0.00    +0.177 C 
ATOM     45  C   UNL     1       0.477 -11.075  -1.377  0.00  0.00    +0.180 C 
ATOM     46  C   UNL     1      -0.845 -10.277  -1.388  0.00  0.00    +0.221 C 
BRANCH  45  47
ATOM     47  O   UNL     1       1.617 -10.218  -1.286  0.00  0.00    -0.386 OA
ATOM     48  H   UNL     1       1.310  -9.294  -1.358  0.00  0.00    +0.210 HD
ENDBRANCH  45  47
BRANCH  44  49
ATOM     49  O   UNL     1      -0.535 -13.068  -0.415  0.00  0.00    -0.386 OA
ATOM     50  H   UNL     1      -0.377 -13.521  -1.263  0.00  0.00    +0.210 HD
ENDBRANCH  44  49
BRANCH  46  51
ATOM     51  O   UNL     1      -0.882  -9.205  -2.396  0.00  0.00    -0.337 OA
BRANCH  51  52
ATOM     52  C   UNL     1      -0.677  -9.626  -3.783  0.00  0.00    +0.282 C 
ATOM     53  O   UNL     1      -0.700  -8.503  -4.705  0.00  0.00    -0.341 OA
ATOM     54  C   UNL     1      -1.982  -7.896  -4.990  0.00  0.00    +0.178 C 
ATOM     55  C   UNL     1      -3.138  -8.902  -5.240  0.00  0.00    +0.177 C 
ATOM     56  C   UNL     1      -3.098 -10.037  -4.222  0.00  0.00    +0.179 C 
ATOM     57  C   UNL     1      -1.695 -10.672  -4.288  0.00  0.00    +0.201 C 
BRANCH  57  58
ATOM     58  O   UNL     1      -1.631 -11.923  -3.599  0.00  0.00    -0.384 OA
ATOM     59  H   UNL     1      -2.360 -12.477  -3.934  0.00  0.00    +0.210 HD
ENDBRANCH  57  58
BRANCH  56  60
ATOM     60  O   UNL     1      -3.448  -9.538  -2.923  0.00  0.00    -0.386 OA
ATOM     61  H   UNL     1      -2.713  -8.977  -2.594  0.00  0.00    +0.210 HD
ENDBRANCH  56  60
BRANCH  55  62
ATOM     62  O   UNL     1      -3.062  -9.471  -6.555  0.00  0.00    -0.386 OA
ATOM     63  H   UNL     1      -3.893  -9.949  -6.728  0.00  0.00    +0.210 HD
ENDBRANCH  55  62
BRANCH  54  64
ATOM     64  C   UNL     1      -1.896  -6.948  -6.218  0.00  0.00    +0.190 C 
BRANCH  64  65
ATOM     65  O   UNL     1      -0.876  -5.960  -6.122  0.00  0.00    -0.392 OA
ATOM     66  H   UNL     1      -0.862  -5.622  -5.211  0.00  0.00    +0.210 HD
ENDBRANCH  64  65
ENDBRANCH  54  64
ENDBRANCH  51  52
ENDBRANCH  46  51
BRANCH  43  67
ATOM     67  C   UNL     1       0.490 -12.147   2.355  0.00  0.00    +0.190 C 
BRANCH  67  68
ATOM     68  O   UNL     1      -0.368 -13.276   2.458  0.00  0.00    -0.392 OA
ATOM     69  H   UNL     1      -1.180 -13.044   1.968  0.00  0.00    +0.210 HD
ENDBRANCH  67  68
ENDBRANCH  43  67
ENDBRANCH  40  41
ENDBRANCH   7  40
TORSDOF 24
