REMARK  Name = 
REMARK  13 active torsions:
REMARK  status: ('A' for Active; 'I' for Inactive)
REMARK    1  A    between atoms: C_1  and  O_2
REMARK    2  A    between atoms: O_2  and  C_3
REMARK    3  A    between atoms: C_4  and  C_16
REMARK    4  A    between atoms: C_8  and  O_15
REMARK    5  A    between atoms: C_10  and  O_14
REMARK    6  A    between atoms: C_18  and  O_23
REMARK    7  A    between atoms: C_19  and  O_22
REMARK    8  A    between atoms: O_23  and  C_24
REMARK    9  A    between atoms: C_26  and  O_37
REMARK   10  A    between atoms: C_27  and  O_36
REMARK   11  A    between atoms: C_29  and  O_35
REMARK   12  A    between atoms: C_31  and  C_33
REMARK   13  A    between atoms: C_33  and  O_34
REMARK                            x       y       z     vdW  Elec       q    Type
REMARK                         _______ _______ _______ _____ _____    ______ ____
ROOT
ATOM      1  C   UNL     1       0.943  -2.462  -0.529  0.00  0.00    +0.025 A 
ATOM      2  C   UNL     1       0.282  -1.415  -1.178  0.00  0.00    +0.015 A 
ATOM      3  C   UNL     1      -0.981  -1.628  -1.734  0.00  0.00    +0.050 A 
ATOM      4  C   UNL     1      -1.581  -2.885  -1.641  0.00  0.00    +0.159 A 
ATOM      5  C   UNL     1      -0.936  -3.956  -1.011  0.00  0.00    +0.166 A 
ATOM      6  C   UNL     1       0.312  -3.711  -0.424  0.00  0.00    +0.061 A 
ENDROOT
BRANCH   1  17
ATOM      7  C   UNL     1       3.425  -2.732  -0.605  0.00  0.00    +0.211 A 
ATOM      8  C   UNL     1       4.718  -2.616   0.147  0.00  0.00    +0.238 A 
ATOM      9  O   UNL     1       5.769  -2.940  -0.396  0.00  0.00    -0.283 OA
ATOM     10  C   UNL     1       4.669  -2.119   1.536  0.00  0.00    +0.109 A 
ATOM     11  C   UNL     1       3.426  -1.742   2.044  0.00  0.00    +0.147 A 
ATOM     12  C   UNL     1       3.312  -1.274   3.359  0.00  0.00    +0.092 A 
ATOM     13  C   UNL     1       4.455  -1.172   4.149  0.00  0.00    +0.124 A 
ATOM     14  C   UNL     1       5.701  -1.527   3.652  0.00  0.00    +0.091 A 
ATOM     15  O   UNL     1       2.266  -1.797   1.313  0.00  0.00    -0.451 OA
ATOM     16  C   UNL     1       5.806  -2.004   2.348  0.00  0.00    +0.135 A 
ATOM     17  C   UNL     1       2.302  -2.311   0.023  0.00  0.00    +0.181 A 
BRANCH   7  19
ATOM     18  C   UNL     1       2.710  -3.026  -2.926  0.00  0.00    +0.277 C 
ATOM     19  O   UNL     1       3.571  -3.311  -1.845  0.00  0.00    -0.488 OA
ENDBRANCH   7  19
BRANCH  13  20
ATOM     20  O   UNL     1       4.401  -0.714   5.433  0.00  0.00    -0.507 OA
ATOM     21  H   UNL     1       3.485  -0.486   5.653  0.00  0.00    +0.292 HD
ENDBRANCH  13  20
BRANCH  16  22
ATOM     22  O   UNL     1       7.043  -2.355   1.884  0.00  0.00    -0.506 OA
ATOM     23  H   UNL     1       7.719  -2.205   2.563  0.00  0.00    +0.292 HD
ENDBRANCH  16  22
ENDBRANCH   1  17
BRANCH   4  24
ATOM     24  O   UNL     1      -2.818  -3.034  -2.202  0.00  0.00    -0.503 OA
ATOM     25  H   UNL     1      -3.134  -3.911  -1.930  0.00  0.00    +0.292 HD
ENDBRANCH   4  24
BRANCH   5  26
ATOM     26  O   UNL     1      -1.572  -5.186  -1.043  0.00  0.00    -0.457 OA
BRANCH  26  27
ATOM     27  C   UNL     1      -0.716  -6.302  -0.716  0.00  0.00    +0.339 C 
ATOM     28  O   UNL     1       0.282  -6.509  -1.726  0.00  0.00    -0.331 OA
ATOM     29  C   UNL     1      -0.243  -7.042  -2.951  0.00  0.00    +0.179 C 
ATOM     30  C   UNL     1      -0.792  -8.452  -2.680  0.00  0.00    +0.177 C 
ATOM     31  C   UNL     1      -1.924  -8.375  -1.648  0.00  0.00    +0.180 C 
ATOM     32  C   UNL     1      -1.485  -7.607  -0.403  0.00  0.00    +0.214 C 
BRANCH  30  33
ATOM     33  O   UNL     1      -1.256  -9.082  -3.875  0.00  0.00    -0.386 OA
ATOM     34  H   UNL     1      -2.228  -8.930  -3.919  0.00  0.00    +0.210 HD
ENDBRANCH  30  33
BRANCH  31  35
ATOM     35  O   UNL     1      -3.100  -7.784  -2.230  0.00  0.00    -0.386 OA
ATOM     36  H   UNL     1      -2.948  -6.830  -2.354  0.00  0.00    +0.210 HD
ENDBRANCH  31  35
BRANCH  32  37
ATOM     37  O   UNL     1      -2.587  -7.385   0.480  0.00  0.00    -0.383 OA
ATOM     38  H   UNL     1      -3.401  -7.410  -0.061  0.00  0.00    +0.210 HD
ENDBRANCH  32  37
BRANCH  29  39
ATOM     39  C   UNL     1       0.863  -7.054  -4.018  0.00  0.00    +0.190 C 
BRANCH  39  40
ATOM     40  O   UNL     1       0.394  -7.527  -5.277  0.00  0.00    -0.392 OA
ATOM     41  H   UNL     1      -0.059  -8.381  -5.110  0.00  0.00    +0.210 HD
ENDBRANCH  39  40
ENDBRANCH  29  39
ENDBRANCH  26  27
ENDBRANCH   5  26
TORSDOF 12
