REMARK  Name = 
REMARK  17 active torsions:
REMARK  status: ('A' for Active; 'I' for Inactive)
REMARK    1  A    between atoms: C_1  and  C_2
REMARK    2  A    between atoms: C_3  and  O_48
REMARK    3  A    between atoms: C_5  and  O_47
REMARK    4  A    between atoms: C_7  and  O_46
REMARK    5  A    between atoms: C_8  and  O_11
REMARK    6  A    between atoms: O_11  and  C_12
REMARK    7  A    between atoms: C_12  and  C_13
REMARK    8  A    between atoms: C_14  and  O_45
REMARK    9  A    between atoms: C_16  and  O_44
REMARK   10  A    between atoms: C_17  and  O_43
REMARK   11  A    between atoms: C_18  and  O_21
REMARK   12  A    between atoms: O_21  and  C_22
REMARK   13  A    between atoms: C_23  and  C_35
REMARK   14  A    between atoms: C_27  and  O_34
REMARK   15  A    between atoms: C_29  and  O_33
REMARK   16  A    between atoms: C_37  and  O_42
REMARK   17  A    between atoms: C_38  and  O_41
REMARK                            x       y       z     vdW  Elec       q    Type
REMARK                         _______ _______ _______ _____ _____    ______ ____
ROOT
ATOM      1  C   UNL     1       2.930   3.730  -4.429  0.00  0.00    +0.179 C 
ATOM      2  O   UNL     1       3.584   4.651  -3.516  0.00  0.00    -0.331 OA
ATOM      3  C   UNL     1       2.858   5.746  -2.933  0.00  0.00    +0.340 C 
ATOM      4  C   UNL     1       1.910   6.439  -3.950  0.00  0.00    +0.214 C 
ATOM      5  C   UNL     1       1.049   5.387  -4.664  0.00  0.00    +0.180 C 
ATOM      6  C   UNL     1       1.935   4.380  -5.397  0.00  0.00    +0.177 C 
ENDROOT
BRANCH   6   7
ATOM      7  O   UNL     1       2.670   5.057  -6.446  0.00  0.00    -0.386 OA
ATOM      8  H   UNL     1       3.093   5.846  -6.042  0.00  0.00    +0.210 HD
ENDBRANCH   6   7
BRANCH   5   9
ATOM      9  O   UNL     1       0.166   6.029  -5.595  0.00  0.00    -0.386 OA
ATOM     10  H   UNL     1       0.743   6.403  -6.292  0.00  0.00    +0.210 HD
ENDBRANCH   5   9
BRANCH   4  11
ATOM     11  O   UNL     1       2.666   7.184  -4.939  0.00  0.00    -0.383 OA
ATOM     12  H   UNL     1       3.274   7.759  -4.433  0.00  0.00    +0.210 HD
ENDBRANCH   4  11
BRANCH   3  13
ATOM     13  O   UNL     1       3.768   6.800  -2.447  0.00  0.00    -0.453 OA
BRANCH  13  14
ATOM     14  C   UNL     1       4.557   6.624  -1.301  0.00  0.00    +0.214 A 
ATOM     15  C   UNL     1       4.477   5.365  -0.463  0.00  0.00    +0.238 A 
ATOM     16  O   UNL     1       3.575   4.543  -0.619  0.00  0.00    -0.283 OA
ATOM     17  C   UNL     1       5.465   5.176   0.622  0.00  0.00    +0.109 A 
ATOM     18  C   UNL     1       6.255   6.279   0.965  0.00  0.00    +0.147 A 
ATOM     19  C   UNL     1       7.162   6.228   2.031  0.00  0.00    +0.092 A 
ATOM     20  C   UNL     1       7.297   5.054   2.742  0.00  0.00    +0.124 A 
ATOM     21  C   UNL     1       6.551   3.932   2.402  0.00  0.00    +0.091 A 
ATOM     22  O   UNL     1       6.171   7.457   0.317  0.00  0.00    -0.451 OA
ATOM     23  C   UNL     1       5.640   3.997   1.340  0.00  0.00    +0.135 A 
ATOM     24  C   UNL     1       5.427   7.578  -0.844  0.00  0.00    +0.181 A 
BRANCH  24  25
ATOM     25  C   UNL     1       5.714   8.934  -1.399  0.00  0.00    +0.025 A 
ATOM     26  C   UNL     1       4.677   9.777  -1.817  0.00  0.00    +0.015 A 
ATOM     27  C   UNL     1       4.953  11.091  -2.223  0.00  0.00    +0.050 A 
ATOM     28  C   UNL     1       6.240  11.604  -2.099  0.00  0.00    +0.158 A 
ATOM     29  C   UNL     1       7.266  10.821  -1.593  0.00  0.00    +0.159 A 
ATOM     30  C   UNL     1       7.024   9.482  -1.292  0.00  0.00    +0.060 A 
BRANCH  29  31
ATOM     31  O   UNL     1       8.462  11.418  -1.309  0.00  0.00    -0.503 OA
ATOM     32  H   UNL     1       9.158  10.754  -1.216  0.00  0.00    +0.292 HD
ENDBRANCH  29  31
BRANCH  28  33
ATOM     33  O   UNL     1       6.497  12.905  -2.436  0.00  0.00    -0.503 OA
ATOM     34  H   UNL     1       5.767  13.436  -2.088  0.00  0.00    +0.292 HD
ENDBRANCH  28  33
ENDBRANCH  24  25
BRANCH  23  35
ATOM     35  O   UNL     1       4.934   2.876   1.012  0.00  0.00    -0.506 OA
ATOM     36  H   UNL     1       5.168   2.148   1.609  0.00  0.00    +0.292 HD
ENDBRANCH  23  35
BRANCH  20  37
ATOM     37  O   UNL     1       8.172   4.957   3.783  0.00  0.00    -0.507 OA
ATOM     38  H   UNL     1       8.604   5.817   3.927  0.00  0.00    +0.292 HD
ENDBRANCH  20  37
ENDBRANCH  13  14
ENDBRANCH   3  13
BRANCH   1  39
ATOM     39  C   UNL     1       2.502   2.320  -3.857  0.00  0.00    +0.197 C 
BRANCH  39  40
ATOM     40  O   UNL     1       1.144   2.107  -3.403  0.00  0.00    -0.346 OA
BRANCH  40  44
ATOM     41  C   UNL     1       1.475  -2.367  -3.900  0.00  0.00    +0.041 C 
ATOM     42  C   UNL     1       0.317  -1.438  -4.269  0.00  0.00    +0.149 C 
ATOM     43  O   UNL     1       0.739  -0.057  -4.351  0.00  0.00    -0.343 OA
ATOM     44  C   UNL     1       0.891   0.675  -3.123  0.00  0.00    +0.282 C 
ATOM     45  C   UNL     1      -0.401   0.539  -2.270  0.00  0.00    +0.201 C 
ATOM     46  C   UNL     1      -0.705  -0.955  -2.013  0.00  0.00    +0.179 C 
ATOM     47  C   UNL     1      -0.888  -1.692  -3.343  0.00  0.00    +0.174 C 
BRANCH  47  48
ATOM     48  O   UNL     1      -2.112  -1.289  -3.971  0.00  0.00    -0.387 OA
ATOM     49  H   UNL     1      -2.167  -0.312  -3.868  0.00  0.00    +0.210 HD
ENDBRANCH  47  48
BRANCH  46  50
ATOM     50  O   UNL     1      -1.854  -1.132  -1.173  0.00  0.00    -0.386 OA
ATOM     51  H   UNL     1      -2.500  -1.673  -1.663  0.00  0.00    +0.210 HD
ENDBRANCH  46  50
BRANCH  45  52
ATOM     52  O   UNL     1      -1.519   1.130  -2.974  0.00  0.00    -0.384 OA
ATOM     53  H   UNL     1      -1.173   1.982  -3.324  0.00  0.00    +0.210 HD
ENDBRANCH  45  52
ENDBRANCH  40  44
ENDBRANCH  39  40
ENDBRANCH   1  39
TORSDOF 16
