REMARK  Name = 
REMARK  24 active torsions:
REMARK  status: ('A' for Active; 'I' for Inactive)
REMARK    1  A    between atoms: C_3  and  O_64
REMARK    2  A    between atoms: C_4  and  O_63
REMARK    3  A    between atoms: C_6  and  C_7
REMARK    4  A    between atoms: C_8  and  O_35
REMARK    5  A    between atoms: C_12  and  O_34
REMARK    6  A    between atoms: C_14  and  O_18
REMARK    7  A    between atoms: O_18  and  C_19
REMARK    8  A    between atoms: C_21  and  O_33
REMARK    9  A    between atoms: C_22  and  O_32
REMARK   10  A    between atoms: C_24  and  O_31
REMARK   11  A    between atoms: C_26  and  C_28
REMARK   12  A    between atoms: C_28  and  O_30
REMARK   13  A    between atoms: O_35  and  C_36
REMARK   14  A    between atoms: C_38  and  O_48
REMARK   15  A    between atoms: C_39  and  O_47
REMARK   16  A    between atoms: C_40  and  O_46
REMARK   17  A    between atoms: C_42  and  C_44
REMARK   18  A    between atoms: C_44  and  O_45
REMARK   19  A    between atoms: O_48  and  C_49
REMARK   20  A    between atoms: C_51  and  O_62
REMARK   21  A    between atoms: C_53  and  O_61
REMARK   22  A    between atoms: C_54  and  O_60
REMARK   23  A    between atoms: C_56  and  C_58
REMARK   24  A    between atoms: C_58  and  O_59
REMARK                            x       y       z     vdW  Elec       q    Type
REMARK                         _______ _______ _______ _____ _____    ______ ____
ROOT
ATOM      1  C   UNL     1      -1.077  -2.847  -0.571  0.00  0.00    +0.181 A 
ATOM      2  O   UNL     1      -0.369  -4.072  -0.409  0.00  0.00    -0.451 OA
ATOM      3  C   UNL     1      -1.022  -5.271  -0.380  0.00  0.00    +0.147 A 
ATOM      4  C   UNL     1      -2.396  -5.300  -0.419  0.00  0.00    +0.109 A 
ATOM      5  C   UNL     1      -3.058  -6.512  -0.592  0.00  0.00    +0.135 A 
ATOM      6  C   UNL     1      -2.345  -7.698  -0.608  0.00  0.00    +0.092 A 
ATOM      7  C   UNL     1      -0.972  -7.717  -0.335  0.00  0.00    +0.131 A 
ATOM      8  C   UNL     1      -3.111  -4.058  -0.155  0.00  0.00    +0.238 A 
ATOM      9  O   UNL     1      -4.285  -4.182   0.171  0.00  0.00    -0.283 OA
ATOM     10  C   UNL     1      -0.294  -6.482  -0.295  0.00  0.00    +0.093 A 
ATOM     11  C   UNL     1      -2.415  -2.735  -0.312  0.00  0.00    +0.214 A 
ENDROOT
BRANCH   1  13
ATOM     12  C   UNL     1       0.978  -2.289  -1.851  0.00  0.00    +0.015 A 
ATOM     13  C   UNL     1      -0.122  -1.809  -1.099  0.00  0.00    +0.025 A 
ATOM     14  C   UNL     1      -0.232  -0.420  -0.999  0.00  0.00    +0.060 A 
ATOM     15  C   UNL     1       0.709   0.413  -1.625  0.00  0.00    +0.159 A 
ATOM     16  C   UNL     1       1.776  -0.097  -2.353  0.00  0.00    +0.158 A 
ATOM     17  C   UNL     1       1.932  -1.464  -2.459  0.00  0.00    +0.050 A 
BRANCH  16  18
ATOM     18  O   UNL     1       2.634   0.769  -2.966  0.00  0.00    -0.503 OA
ATOM     19  H   UNL     1       3.259   0.261  -3.500  0.00  0.00    +0.292 HD
ENDBRANCH  16  18
BRANCH  15  20
ATOM     20  O   UNL     1       0.562   1.774  -1.548  0.00  0.00    -0.503 OA
ATOM     21  H   UNL     1       1.292   2.132  -2.094  0.00  0.00    +0.292 HD
ENDBRANCH  15  20
ENDBRANCH   1  13
BRANCH   5  22
ATOM     22  O   UNL     1      -4.415  -6.639  -0.713  0.00  0.00    -0.506 OA
ATOM     23  H   UNL     1      -4.822  -5.775  -0.487  0.00  0.00    +0.292 HD
ENDBRANCH   5  22
BRANCH  11  24
ATOM     24  O   UNL     1      -3.107  -1.597   0.095  0.00  0.00    -0.453 OA
BRANCH  24  25
ATOM     25  C   UNL     1      -3.944  -0.725  -0.711  0.00  0.00    +0.340 C 
ATOM     26  O   UNL     1      -4.705   0.199   0.136  0.00  0.00    -0.331 OA
ATOM     27  C   UNL     1      -6.133   0.030   0.404  0.00  0.00    +0.179 C 
ATOM     28  C   UNL     1      -6.928  -1.132  -0.280  0.00  0.00    +0.177 C 
ATOM     29  C   UNL     1      -5.963  -2.138  -0.899  0.00  0.00    +0.180 C 
ATOM     30  C   UNL     1      -4.928  -1.332  -1.701  0.00  0.00    +0.221 C 
BRANCH  29  31
ATOM     31  O   UNL     1      -6.659  -3.158  -1.594  0.00  0.00    -0.386 OA
ATOM     32  H   UNL     1      -7.438  -2.763  -2.020  0.00  0.00    +0.210 HD
ENDBRANCH  29  31
BRANCH  28  33
ATOM     33  O   UNL     1      -7.817  -0.683  -1.324  0.00  0.00    -0.386 OA
ATOM     34  H   UNL     1      -8.610  -1.250  -1.318  0.00  0.00    +0.210 HD
ENDBRANCH  28  33
BRANCH  27  35
ATOM     35  C   UNL     1      -6.885   1.370   0.163  0.00  0.00    +0.190 C 
BRANCH  35  36
ATOM     36  O   UNL     1      -6.243   2.500   0.750  0.00  0.00    -0.392 OA
ATOM     37  H   UNL     1      -5.840   2.220   1.584  0.00  0.00    +0.210 HD
ENDBRANCH  35  36
ENDBRANCH  27  35
BRANCH  30  38
ATOM     38  O   UNL     1      -4.424  -1.612  -2.974  0.00  0.00    -0.337 OA
BRANCH  38  39
ATOM     39  C   UNL     1      -3.712  -2.696  -3.488  0.00  0.00    +0.282 C 
ATOM     40  O   UNL     1      -3.305  -2.303  -4.831  0.00  0.00    -0.341 OA
ATOM     41  C   UNL     1      -4.418  -1.734  -5.558  0.00  0.00    +0.178 C 
ATOM     42  C   UNL     1      -5.557  -2.762  -5.719  0.00  0.00    +0.177 C 
ATOM     43  C   UNL     1      -5.838  -3.546  -4.429  0.00  0.00    +0.179 C 
ATOM     44  C   UNL     1      -4.572  -3.944  -3.652  0.00  0.00    +0.201 C 
BRANCH  44  45
ATOM     45  O   UNL     1      -3.880  -4.990  -4.357  0.00  0.00    -0.384 OA
ATOM     46  H   UNL     1      -3.676  -4.636  -5.249  0.00  0.00    +0.210 HD
ENDBRANCH  44  45
BRANCH  43  47
ATOM     47  O   UNL     1      -6.621  -4.710  -4.739  0.00  0.00    -0.386 OA
ATOM     48  H   UNL     1      -6.004  -5.469  -4.659  0.00  0.00    +0.210 HD
ENDBRANCH  43  47
BRANCH  42  49
ATOM     49  O   UNL     1      -5.278  -3.711  -6.755  0.00  0.00    -0.386 OA
ATOM     50  H   UNL     1      -6.058  -4.306  -6.742  0.00  0.00    +0.210 HD
ENDBRANCH  42  49
BRANCH  41  51
ATOM     51  C   UNL     1      -3.950  -1.133  -6.887  0.00  0.00    +0.190 C 
BRANCH  51  52
ATOM     52  O   UNL     1      -4.909  -0.189  -7.374  0.00  0.00    -0.392 OA
ATOM     53  H   UNL     1      -5.696  -0.686  -7.655  0.00  0.00    +0.210 HD
ENDBRANCH  51  52
ENDBRANCH  41  51
ENDBRANCH  38  39
ENDBRANCH  30  38
ENDBRANCH  24  25
ENDBRANCH  11  24
BRANCH   7  54
ATOM     54  O   UNL     1      -0.278  -8.895  -0.049  0.00  0.00    -0.461 OA
BRANCH  54  55
ATOM     55  C   UNL     1      -1.159  -9.982   0.357  0.00  0.00    +0.340 C 
ATOM     56  O   UNL     1      -1.914  -9.592   1.520  0.00  0.00    -0.322 OA
ATOM     57  C   UNL     1      -1.105  -9.627   2.709  0.00  0.00    +0.261 C 
ATOM     58  C   UNL     1      -0.780 -11.081   3.042  0.00  0.00    +0.185 C 
ATOM     59  C   UNL     1       0.123 -11.620   1.921  0.00  0.00    +0.180 C 
ATOM     60  C   UNL     1      -0.517 -11.388   0.544  0.00  0.00    +0.214 C 
BRANCH  60  61
ATOM     61  O   UNL     1       0.372 -11.729  -0.521  0.00  0.00    -0.383 OA
ATOM     62  H   UNL     1       1.276 -11.766  -0.154  0.00  0.00    +0.210 HD
ENDBRANCH  60  61
BRANCH  59  63
ATOM     63  O   UNL     1       1.437 -11.059   1.970  0.00  0.00    -0.386 OA
ATOM     64  H   UNL     1       1.443 -10.191   1.526  0.00  0.00    +0.210 HD
ENDBRANCH  59  63
BRANCH  58  65
ATOM     65  O   UNL     1      -2.002 -11.838   3.061  0.00  0.00    -0.386 OA
ATOM     66  H   UNL     1      -1.833 -12.688   3.504  0.00  0.00    +0.210 HD
ENDBRANCH  58  65
BRANCH  57  67
ATOM     67  C   UNL     1      -1.826  -8.942   3.860  0.00  0.00    +0.337 C 
ATOM     68  O   UNL     1      -1.419  -8.912   5.013  0.00  0.00    -0.248 OA
BRANCH  67  69
ATOM     69  O   UNL     1      -2.943  -8.289   3.451  0.00  0.00    -0.479 OA
ATOM     70  H   UNL     1      -3.085  -8.480   2.495  0.00  0.00    +0.295 HD
ENDBRANCH  67  69
ENDBRANCH  57  67
ENDBRANCH  54  55
ENDBRANCH   7  54
TORSDOF 24
