REMARK  Name = 
REMARK  17 active torsions:
REMARK  status: ('A' for Active; 'I' for Inactive)
REMARK    1  A    between atoms: C_1  and  C_2
REMARK    2  A    between atoms: C_3  and  O_35
REMARK    3  A    between atoms: C_5  and  O_34
REMARK    4  A    between atoms: C_6  and  O_33
REMARK    5  A    between atoms: C_8  and  O_11
REMARK    6  A    between atoms: O_11  and  C_12
REMARK    7  A    between atoms: C_13  and  C_25
REMARK    8  A    between atoms: C_17  and  O_24
REMARK    9  A    between atoms: C_19  and  O_23
REMARK   10  A    between atoms: C_27  and  O_32
REMARK   11  A    between atoms: C_28  and  O_31
REMARK   12  A    between atoms: O_35  and  C_36
REMARK   13  A    between atoms: C_38  and  O_48
REMARK   14  A    between atoms: C_39  and  O_47
REMARK   15  A    between atoms: C_40  and  O_46
REMARK   16  A    between atoms: C_42  and  C_44
REMARK   17  A    between atoms: C_44  and  O_45
REMARK                            x       y       z     vdW  Elec       q    Type
REMARK                         _______ _______ _______ _____ _____    ______ ____
ROOT
ATOM      1  C   UNL     1       0.987   0.207   0.131  0.00  0.00    +0.041 C 
ATOM      2  C   UNL     1       2.503   0.087  -0.095  0.00  0.00    +0.151 C 
ATOM      3  O   UNL     1       2.991   0.995  -1.107  0.00  0.00    -0.334 OA
ATOM      4  C   UNL     1       2.524   0.640  -2.422  0.00  0.00    +0.339 C 
ATOM      5  C   UNL     1       3.090  -0.743  -2.836  0.00  0.00    +0.214 C 
ATOM      6  C   UNL     1       2.583  -1.775  -1.831  0.00  0.00    +0.180 C 
ATOM      7  C   UNL     1       2.925  -1.375  -0.387  0.00  0.00    +0.181 C 
ENDROOT
BRANCH   5   8
ATOM      8  O   UNL     1       4.530  -0.737  -2.907  0.00  0.00    -0.383 OA
ATOM      9  H   UNL     1       4.778  -1.618  -3.237  0.00  0.00    +0.210 HD
ENDBRANCH   5   8
BRANCH   6  10
ATOM     10  O   UNL     1       3.153  -3.063  -2.123  0.00  0.00    -0.386 OA
ATOM     11  H   UNL     1       4.053  -3.018  -1.744  0.00  0.00    +0.210 HD
ENDBRANCH   6  10
BRANCH   7  12
ATOM     12  O   UNL     1       4.338  -1.631  -0.223  0.00  0.00    -0.340 OA
BRANCH  12  13
ATOM     13  C   UNL     1       4.899  -1.359   1.062  0.00  0.00    +0.282 C 
ATOM     14  O   UNL     1       6.310  -1.637   1.023  0.00  0.00    -0.341 OA
ATOM     15  C   UNL     1       6.622  -3.005   0.726  0.00  0.00    +0.178 C 
ATOM     16  C   UNL     1       5.971  -3.963   1.746  0.00  0.00    +0.177 C 
ATOM     17  C   UNL     1       4.468  -3.672   1.859  0.00  0.00    +0.179 C 
ATOM     18  C   UNL     1       4.270  -2.191   2.198  0.00  0.00    +0.201 C 
BRANCH  18  19
ATOM     19  O   UNL     1       2.886  -1.900   2.424  0.00  0.00    -0.384 OA
ATOM     20  H   UNL     1       2.433  -2.761   2.532  0.00  0.00    +0.210 HD
ENDBRANCH  18  19
BRANCH  17  21
ATOM     21  O   UNL     1       3.826  -4.480   2.854  0.00  0.00    -0.386 OA
ATOM     22  H   UNL     1       4.259  -4.316   3.711  0.00  0.00    +0.210 HD
ENDBRANCH  17  21
BRANCH  16  23
ATOM     23  O   UNL     1       6.221  -5.328   1.397  0.00  0.00    -0.386 OA
ATOM     24  H   UNL     1       5.509  -5.628   0.801  0.00  0.00    +0.210 HD
ENDBRANCH  16  23
BRANCH  15  25
ATOM     25  C   UNL     1       8.152  -3.163   0.723  0.00  0.00    +0.190 C 
BRANCH  25  26
ATOM     26  O   UNL     1       8.565  -4.472   0.348  0.00  0.00    -0.392 OA
ATOM     27  H   UNL     1       8.028  -5.107   0.868  0.00  0.00    +0.210 HD
ENDBRANCH  25  26
ENDBRANCH  15  25
ENDBRANCH  12  13
ENDBRANCH   7  12
BRANCH   4  28
ATOM     28  O   UNL     1       2.838   1.630  -3.411  0.00  0.00    -0.453 OA
BRANCH  28  29
ATOM     29  C   UNL     1       2.069   1.592  -4.583  0.00  0.00    +0.214 A 
ATOM     30  C   UNL     1       0.880   0.678  -4.725  0.00  0.00    +0.238 A 
ATOM     31  O   UNL     1       0.656  -0.251  -3.956  0.00  0.00    -0.283 OA
ATOM     32  C   UNL     1       0.005   0.842  -5.872  0.00  0.00    +0.109 A 
ATOM     33  C   UNL     1       0.453   1.656  -6.903  0.00  0.00    +0.147 A 
ATOM     34  C   UNL     1      -0.304   1.738  -8.074  0.00  0.00    +0.092 A 
ATOM     35  C   UNL     1      -1.485   0.997  -8.179  0.00  0.00    +0.124 A 
ATOM     36  C   UNL     1      -1.947   0.201  -7.139  0.00  0.00    +0.091 A 
ATOM     37  O   UNL     1       1.620   2.381  -6.832  0.00  0.00    -0.451 OA
ATOM     38  C   UNL     1      -1.204   0.132  -5.971  0.00  0.00    +0.135 A 
ATOM     39  C   UNL     1       2.377   2.355  -5.658  0.00  0.00    +0.181 A 
BRANCH  39  40
ATOM     40  C   UNL     1       3.570   3.264  -5.698  0.00  0.00    +0.025 A 
ATOM     41  C   UNL     1       3.509   4.505  -6.368  0.00  0.00    +0.015 A 
ATOM     42  C   UNL     1       4.604   5.385  -6.394  0.00  0.00    +0.050 A 
ATOM     43  C   UNL     1       5.775   5.030  -5.749  0.00  0.00    +0.158 A 
ATOM     44  C   UNL     1       5.877   3.803  -5.106  0.00  0.00    +0.159 A 
ATOM     45  C   UNL     1       4.798   2.919  -5.093  0.00  0.00    +0.060 A 
BRANCH  44  46
ATOM     46  O   UNL     1       7.063   3.510  -4.488  0.00  0.00    -0.503 OA
ATOM     47  H   UNL     1       6.957   2.659  -4.025  0.00  0.00    +0.292 HD
ENDBRANCH  44  46
BRANCH  43  48
ATOM     48  O   UNL     1       6.828   5.898  -5.739  0.00  0.00    -0.503 OA
ATOM     49  H   UNL     1       7.508   5.452  -5.194  0.00  0.00    +0.292 HD
ENDBRANCH  43  48
ENDBRANCH  39  40
BRANCH  38  50
ATOM     50  O   UNL     1      -1.681  -0.614  -4.933  0.00  0.00    -0.506 OA
ATOM     51  H   UNL     1      -2.414  -1.179  -5.223  0.00  0.00    +0.292 HD
ENDBRANCH  38  50
BRANCH  35  52
ATOM     52  O   UNL     1      -2.252   1.013  -9.306  0.00  0.00    -0.507 OA
ATOM     53  H   UNL     1      -1.824   1.575  -9.973  0.00  0.00    +0.292 HD
ENDBRANCH  35  52
ENDBRANCH  28  29
ENDBRANCH   4  28
TORSDOF 16
