REMARK  Name = 
REMARK  23 active torsions:
REMARK  status: ('A' for Active; 'I' for Inactive)
REMARK    1  A    between atoms: C_1  and  C_2
REMARK    2  A    between atoms: C_3  and  O_63
REMARK    3  A    between atoms: C_5  and  O_62
REMARK    4  A    between atoms: C_6  and  O_61
REMARK    5  A    between atoms: C_8  and  O_11
REMARK    6  A    between atoms: O_11  and  C_12
REMARK    7  A    between atoms: C_12  and  C_13
REMARK    8  A    between atoms: C_14  and  O_60
REMARK    9  A    between atoms: C_16  and  O_59
REMARK   10  A    between atoms: C_18  and  O_44
REMARK   11  A    between atoms: C_19  and  O_22
REMARK   12  A    between atoms: O_22  and  C_23
REMARK   13  A    between atoms: C_24  and  C_36
REMARK   14  A    between atoms: C_28  and  O_35
REMARK   15  A    between atoms: C_30  and  O_34
REMARK   16  A    between atoms: C_38  and  O_43
REMARK   17  A    between atoms: C_39  and  O_42
REMARK   18  A    between atoms: O_44  and  C_45
REMARK   19  A    between atoms: C_47  and  O_58
REMARK   20  A    between atoms: C_48  and  O_57
REMARK   21  A    between atoms: C_50  and  O_56
REMARK   22  A    between atoms: C_52  and  C_54
REMARK   23  A    between atoms: C_54  and  O_55
REMARK                            x       y       z     vdW  Elec       q    Type
REMARK                         _______ _______ _______ _____ _____    ______ ____
ROOT
ATOM      1  C   UNL     1       2.921   3.561  -4.486  0.00  0.00    +0.179 C 
ATOM      2  O   UNL     1       3.459   4.493  -3.514  0.00  0.00    -0.331 OA
ATOM      3  C   UNL     1       2.638   5.536  -2.956  0.00  0.00    +0.340 C 
ATOM      4  C   UNL     1       1.676   6.235  -4.008  0.00  0.00    +0.221 C 
ATOM      5  C   UNL     1       0.956   5.097  -4.771  0.00  0.00    +0.180 C 
ATOM      6  C   UNL     1       1.943   4.179  -5.485  0.00  0.00    +0.177 C 
ENDROOT
BRANCH   5   7
ATOM      7  O   UNL     1      -0.032   5.590  -5.675  0.00  0.00    -0.386 OA
ATOM      8  H   UNL     1      -0.168   4.935  -6.382  0.00  0.00    +0.210 HD
ENDBRANCH   5   7
BRANCH   6   9
ATOM      9  O   UNL     1       2.668   4.904  -6.494  0.00  0.00    -0.386 OA
ATOM     10  H   UNL     1       3.243   5.559  -6.052  0.00  0.00    +0.210 HD
ENDBRANCH   6   9
BRANCH   4  11
ATOM     11  O   UNL     1       2.360   7.226  -4.832  0.00  0.00    -0.337 OA
BRANCH  11  12
ATOM     12  C   UNL     1       1.557   7.962  -5.798  0.00  0.00    +0.282 C 
ATOM     13  O   UNL     1       2.423   8.851  -6.551  0.00  0.00    -0.341 OA
ATOM     14  C   UNL     1       2.945   9.976  -5.817  0.00  0.00    +0.178 C 
ATOM     15  C   UNL     1       1.849  10.814  -5.120  0.00  0.00    +0.177 C 
ATOM     16  C   UNL     1       0.901   9.914  -4.332  0.00  0.00    +0.179 C 
ATOM     17  C   UNL     1       0.369   8.808  -5.247  0.00  0.00    +0.201 C 
BRANCH  17  18
ATOM     18  O   UNL     1      -0.661   8.085  -4.572  0.00  0.00    -0.384 OA
ATOM     19  H   UNL     1      -0.516   8.182  -3.615  0.00  0.00    +0.210 HD
ENDBRANCH  17  18
BRANCH  16  20
ATOM     20  O   UNL     1       1.527   9.365  -3.169  0.00  0.00    -0.386 OA
ATOM     21  H   UNL     1       2.254   8.775  -3.462  0.00  0.00    +0.210 HD
ENDBRANCH  16  20
BRANCH  15  22
ATOM     22  O   UNL     1       1.094  11.557  -6.088  0.00  0.00    -0.386 OA
ATOM     23  H   UNL     1       0.300  11.923  -5.656  0.00  0.00    +0.210 HD
ENDBRANCH  15  22
BRANCH  14  24
ATOM     24  C   UNL     1       3.758  10.875  -6.774  0.00  0.00    +0.190 C 
BRANCH  24  25
ATOM     25  O   UNL     1       4.851  10.192  -7.388  0.00  0.00    -0.392 OA
ATOM     26  H   UNL     1       4.950   9.331  -6.948  0.00  0.00    +0.210 HD
ENDBRANCH  24  25
ENDBRANCH  14  24
ENDBRANCH  11  12
ENDBRANCH   4  11
BRANCH   3  27
ATOM     27  O   UNL     1       3.447   6.570  -2.281  0.00  0.00    -0.453 OA
BRANCH  27  28
ATOM     28  C   UNL     1       4.098   6.316  -1.058  0.00  0.00    +0.214 A 
ATOM     29  C   UNL     1       3.968   5.006  -0.318  0.00  0.00    +0.238 A 
ATOM     30  O   UNL     1       3.051   4.215  -0.544  0.00  0.00    -0.283 OA
ATOM     31  C   UNL     1       4.934   4.724   0.775  0.00  0.00    +0.109 A 
ATOM     32  C   UNL     1       5.592   5.812   1.320  0.00  0.00    +0.147 A 
ATOM     33  C   UNL     1       6.480   5.692   2.392  0.00  0.00    +0.092 A 
ATOM     34  C   UNL     1       6.726   4.438   2.918  0.00  0.00    +0.124 A 
ATOM     35  C   UNL     1       6.092   3.319   2.385  0.00  0.00    +0.091 A 
ATOM     36  O   UNL     1       5.396   7.063   0.855  0.00  0.00    -0.451 OA
ATOM     37  C   UNL     1       5.188   3.463   1.321  0.00  0.00    +0.135 A 
ATOM     38  C   UNL     1       4.844   7.253  -0.400  0.00  0.00    +0.181 A 
BRANCH  38  39
ATOM     39  C   UNL     1       5.125   8.675  -0.739  0.00  0.00    +0.025 A 
ATOM     40  C   UNL     1       4.093   9.560  -1.014  0.00  0.00    +0.015 A 
ATOM     41  C   UNL     1       4.319  10.938  -1.039  0.00  0.00    +0.050 A 
ATOM     42  C   UNL     1       5.560  11.445  -0.669  0.00  0.00    +0.158 A 
ATOM     43  C   UNL     1       6.607  10.588  -0.350  0.00  0.00    +0.159 A 
ATOM     44  C   UNL     1       6.406   9.215  -0.441  0.00  0.00    +0.060 A 
BRANCH  42  45
ATOM     45  O   UNL     1       5.663  12.799  -0.529  0.00  0.00    -0.503 OA
ATOM     46  H   UNL     1       6.065  12.929   0.350  0.00  0.00    +0.292 HD
ENDBRANCH  42  45
BRANCH  43  47
ATOM     47  O   UNL     1       7.766  11.128   0.140  0.00  0.00    -0.503 OA
ATOM     48  H   UNL     1       8.467  10.454   0.126  0.00  0.00    +0.292 HD
ENDBRANCH  43  47
ENDBRANCH  38  39
BRANCH  37  49
ATOM     49  O   UNL     1       4.587   2.348   0.811  0.00  0.00    -0.506 OA
ATOM     50  H   UNL     1       4.772   1.591   1.388  0.00  0.00    +0.292 HD
ENDBRANCH  37  49
BRANCH  34  51
ATOM     51  O   UNL     1       7.589   4.263   3.956  0.00  0.00    -0.507 OA
ATOM     52  H   UNL     1       7.923   5.126   4.253  0.00  0.00    +0.292 HD
ENDBRANCH  34  51
ENDBRANCH  27  28
ENDBRANCH   3  27
BRANCH   1  53
ATOM     53  C   UNL     1       2.522   2.103  -4.010  0.00  0.00    +0.197 C 
BRANCH  53  54
ATOM     54  O   UNL     1       1.163   1.836  -3.604  0.00  0.00    -0.346 OA
BRANCH  54  58
ATOM     55  C   UNL     1       1.676  -2.610  -4.069  0.00  0.00    +0.041 C 
ATOM     56  C   UNL     1       0.529  -1.734  -4.577  0.00  0.00    +0.149 C 
ATOM     57  O   UNL     1       0.890  -0.332  -4.629  0.00  0.00    -0.343 OA
ATOM     58  C   UNL     1       0.915   0.395  -3.385  0.00  0.00    +0.282 C 
ATOM     59  C   UNL     1      -0.429   0.199  -2.622  0.00  0.00    +0.201 C 
ATOM     60  C   UNL     1      -0.736  -1.299  -2.441  0.00  0.00    +0.179 C 
ATOM     61  C   UNL     1      -0.778  -2.011  -3.797  0.00  0.00    +0.174 C 
BRANCH  59  62
ATOM     62  O   UNL     1      -1.526   0.782  -3.366  0.00  0.00    -0.384 OA
ATOM     63  H   UNL     1      -1.989   1.373  -2.744  0.00  0.00    +0.210 HD
ENDBRANCH  59  62
BRANCH  60  64
ATOM     64  O   UNL     1      -2.001  -1.469  -1.783  0.00  0.00    -0.386 OA
ATOM     65  H   UNL     1      -2.675  -1.355  -2.484  0.00  0.00    +0.210 HD
ENDBRANCH  60  64
BRANCH  61  66
ATOM     66  O   UNL     1      -1.904  -1.571  -4.546  0.00  0.00    -0.387 OA
ATOM     67  H   UNL     1      -1.829  -0.597  -4.608  0.00  0.00    +0.210 HD
ENDBRANCH  61  66
ENDBRANCH  54  58
ENDBRANCH  53  54
ENDBRANCH   1  53
TORSDOF 22
