REMARK  Name = 
REMARK  14 active torsions:
REMARK  status: ('A' for Active; 'I' for Inactive)
REMARK    1  A    between atoms: C_1  and  C_2
REMARK    2  A    between atoms: C_2  and  O_4
REMARK    3  A    between atoms: O_4  and  C_5
REMARK    4  A    between atoms: C_5  and  C_6
REMARK    5  A    between atoms: C_7  and  O_39
REMARK    6  A    between atoms: C_9  and  O_38
REMARK    7  A    between atoms: C_11  and  O_37
REMARK    8  A    between atoms: C_12  and  O_15
REMARK    9  A    between atoms: O_15  and  C_16
REMARK   10  A    between atoms: C_18  and  O_36
REMARK   11  A    between atoms: C_23  and  C_28
REMARK   12  A    between atoms: C_24  and  O_27
REMARK   13  A    between atoms: C_30  and  O_35
REMARK   14  A    between atoms: C_31  and  O_34
REMARK                            x       y       z     vdW  Elec       q    Type
REMARK                         _______ _______ _______ _____ _____    ______ ____
ROOT
ATOM      1  C   UNL     1       6.174   4.805   0.701  0.00  0.00    +0.131 A 
ATOM      2  C   UNL     1       6.758   5.982   1.195  0.00  0.00    +0.093 A 
ATOM      3  C   UNL     1       7.724   5.935   2.218  0.00  0.00    +0.147 A 
ATOM      4  O   UNL     1       8.254   7.132   2.650  0.00  0.00    -0.451 OA
ATOM      5  C   UNL     1       9.153   7.133   3.720  0.00  0.00    +0.181 A 
ATOM      6  C   UNL     1       9.565   6.009   4.346  0.00  0.00    +0.208 A 
ATOM      7  C   UNL     1       9.134   4.688   3.813  0.00  0.00    +0.238 A 
ATOM      8  O   UNL     1       9.607   3.653   4.268  0.00  0.00    -0.283 OA
ATOM      9  C   UNL     1       8.121   4.706   2.744  0.00  0.00    +0.109 A 
ATOM     10  C   UNL     1       7.553   3.534   2.238  0.00  0.00    +0.135 A 
ATOM     11  C   UNL     1       6.590   3.586   1.232  0.00  0.00    +0.092 A 
ENDROOT
BRANCH   5  12
ATOM     12  C   UNL     1       9.625   8.495   4.110  0.00  0.00    +0.025 A 
ATOM     13  C   UNL     1      10.954   8.717   4.539  0.00  0.00    +0.015 A 
ATOM     14  C   UNL     1      11.387   9.975   4.968  0.00  0.00    +0.050 A 
ATOM     15  C   UNL     1      10.510  11.042   4.910  0.00  0.00    +0.158 A 
ATOM     16  C   UNL     1       9.216  10.867   4.432  0.00  0.00    +0.159 A 
ATOM     17  C   UNL     1       8.763   9.604   4.041  0.00  0.00    +0.060 A 
BRANCH  15  18
ATOM     18  O   UNL     1      10.939  12.273   5.312  0.00  0.00    -0.503 OA
ATOM     19  H   UNL     1      10.171  12.862   5.164  0.00  0.00    +0.292 HD
ENDBRANCH  15  18
BRANCH  16  20
ATOM     20  O   UNL     1       8.418  11.976   4.364  0.00  0.00    -0.503 OA
ATOM     21  H   UNL     1       7.597  11.737   3.902  0.00  0.00    +0.292 HD
ENDBRANCH  16  20
ENDBRANCH   5  12
BRANCH   6  22
ATOM     22  O   UNL     1      10.373   5.973   5.471  0.00  0.00    -0.501 OA
ATOM     23  H   UNL     1      10.276   6.805   5.958  0.00  0.00    +0.292 HD
ENDBRANCH   6  22
BRANCH  10  24
ATOM     24  O   UNL     1       7.912   2.304   2.714  0.00  0.00    -0.506 OA
ATOM     25  H   UNL     1       7.638   1.611   2.093  0.00  0.00    +0.292 HD
ENDBRANCH  10  24
BRANCH   1  26
ATOM     26  O   UNL     1       5.276   4.939  -0.329  0.00  0.00    -0.461 OA
BRANCH  26  29
ATOM     27  C   UNL     1       3.927   1.541  -0.943  0.00  0.00    +0.191 C 
ATOM     28  O   UNL     1       4.861   2.626  -0.819  0.00  0.00    -0.330 OA
ATOM     29  C   UNL     1       4.279   3.906  -0.514  0.00  0.00    +0.339 C 
ATOM     30  C   UNL     1       3.373   4.296  -1.714  0.00  0.00    +0.214 C 
ATOM     31  C   UNL     1       2.302   3.205  -1.912  0.00  0.00    +0.180 C 
ATOM     32  C   UNL     1       2.955   1.825  -2.099  0.00  0.00    +0.178 C 
BRANCH  30  33
ATOM     33  O   UNL     1       4.165   4.412  -2.916  0.00  0.00    -0.383 OA
ATOM     34  H   UNL     1       4.957   3.853  -2.802  0.00  0.00    +0.210 HD
ENDBRANCH  30  33
BRANCH  31  35
ATOM     35  O   UNL     1       1.456   3.486  -3.033  0.00  0.00    -0.386 OA
ATOM     36  H   UNL     1       0.975   2.656  -3.224  0.00  0.00    +0.210 HD
ENDBRANCH  31  35
BRANCH  32  37
ATOM     37  O   UNL     1       1.929   0.831  -2.200  0.00  0.00    -0.386 OA
ATOM     38  H   UNL     1       2.348   0.005  -2.508  0.00  0.00    +0.210 HD
ENDBRANCH  32  37
BRANCH  27  39
ATOM     39  C   UNL     1       3.193   1.192   0.375  0.00  0.00    +0.266 C 
BRANCH  39  40
ATOM     40  O   UNL     1       4.073   0.968   1.492  0.00  0.00    -0.462 OA
BRANCH  40  42
ATOM     41  C   UNL     1       5.149  -0.554   2.916  0.00  0.00    +0.136 C 
ATOM     42  C   UNL     1       4.657  -0.258   1.533  0.00  0.00    +0.304 C 
ATOM     43  O   UNL     1       4.717  -1.040   0.594  0.00  0.00    -0.251 OA
ENDBRANCH  40  42
ENDBRANCH  39  40
ENDBRANCH  27  39
ENDBRANCH  26  29
ENDBRANCH   1  26
TORSDOF 13
