REMARK  Name = 
REMARK  29 active torsions:
REMARK  status: ('A' for Active; 'I' for Inactive)
REMARK    1  A    between atoms: C_1  and  C_2
REMARK    2  A    between atoms: C_3  and  O_76
REMARK    3  A    between atoms: C_5  and  O_75
REMARK    4  A    between atoms: C_7  and  O_74
REMARK    5  A    between atoms: C_8  and  O_11
REMARK    6  A    between atoms: O_11  and  C_12
REMARK    7  A    between atoms: C_12  and  C_13
REMARK    8  A    between atoms: C_14  and  O_73
REMARK    9  A    between atoms: C_16  and  O_72
REMARK   10  A    between atoms: C_17  and  O_71
REMARK   11  A    between atoms: C_18  and  O_21
REMARK   12  A    between atoms: O_21  and  C_22
REMARK   13  A    between atoms: C_23  and  C_49
REMARK   14  A    between atoms: C_27  and  O_34
REMARK   15  A    between atoms: C_29  and  O_33
REMARK   16  A    between atoms: O_34  and  C_35
REMARK   17  A    between atoms: C_37  and  O_48
REMARK   18  A    between atoms: C_38  and  O_47
REMARK   19  A    between atoms: C_40  and  O_46
REMARK   20  A    between atoms: C_42  and  C_44
REMARK   21  A    between atoms: C_44  and  O_45
REMARK   22  A    between atoms: C_51  and  O_56
REMARK   23  A    between atoms: C_52  and  O_55
REMARK   24  A    between atoms: O_56  and  C_57
REMARK   25  A    between atoms: C_59  and  O_70
REMARK   26  A    between atoms: C_60  and  O_69
REMARK   27  A    between atoms: C_62  and  O_68
REMARK   28  A    between atoms: C_64  and  C_66
REMARK   29  A    between atoms: C_66  and  O_67
REMARK                            x       y       z     vdW  Elec       q    Type
REMARK                         _______ _______ _______ _____ _____    ______ ____
ROOT
ATOM      1  C   UNL     1       4.170   7.018  -0.999  0.00  0.00    +0.214 A 
ATOM      2  C   UNL     1       4.813   8.261  -0.427  0.00  0.00    +0.238 A 
ATOM      3  O   UNL     1       4.618   9.380  -0.898  0.00  0.00    -0.283 OA
ATOM      4  C   UNL     1       5.659   8.106   0.793  0.00  0.00    +0.109 A 
ATOM      5  C   UNL     1       5.280   7.081   1.632  0.00  0.00    +0.147 A 
ATOM      6  C   UNL     1       5.949   6.779   2.840  0.00  0.00    +0.093 A 
ATOM      7  C   UNL     1       7.022   7.558   3.260  0.00  0.00    +0.131 A 
ATOM      8  C   UNL     1       7.392   8.636   2.438  0.00  0.00    +0.092 A 
ATOM      9  O   UNL     1       4.189   6.338   1.299  0.00  0.00    -0.451 OA
ATOM     10  C   UNL     1       6.733   8.879   1.212  0.00  0.00    +0.135 A 
ATOM     11  C   UNL     1       3.993   6.041  -0.062  0.00  0.00    +0.181 A 
ENDROOT
BRANCH  11  12
ATOM     12  C   UNL     1       3.562   4.601  -0.128  0.00  0.00    +0.025 A 
ATOM     13  C   UNL     1       3.704   3.858   1.076  0.00  0.00    +0.015 A 
ATOM     14  C   UNL     1       3.458   2.500   1.177  0.00  0.00    +0.050 A 
ATOM     15  C   UNL     1       2.884   1.858   0.102  0.00  0.00    +0.159 A 
ATOM     16  C   UNL     1       2.639   2.554  -1.098  0.00  0.00    +0.166 A 
ATOM     17  C   UNL     1       3.057   3.905  -1.229  0.00  0.00    +0.061 A 
BRANCH  15  18
ATOM     18  O   UNL     1       2.520   0.546   0.255  0.00  0.00    -0.503 OA
ATOM     19  H   UNL     1       2.706   0.269   1.170  0.00  0.00    +0.292 HD
ENDBRANCH  15  18
BRANCH  16  20
ATOM     20  O   UNL     1       1.907   1.856  -2.035  0.00  0.00    -0.457 OA
BRANCH  20  21
ATOM     21  C   UNL     1       1.822   2.417  -3.349  0.00  0.00    +0.339 C 
ATOM     22  O   UNL     1       1.008   3.599  -3.395  0.00  0.00    -0.331 OA
ATOM     23  C   UNL     1      -0.400   3.383  -3.184  0.00  0.00    +0.179 C 
ATOM     24  C   UNL     1      -0.979   2.386  -4.209  0.00  0.00    +0.177 C 
ATOM     25  C   UNL     1      -0.189   1.076  -4.170  0.00  0.00    +0.180 C 
ATOM     26  C   UNL     1       1.308   1.362  -4.355  0.00  0.00    +0.214 C 
BRANCH  26  27
ATOM     27  O   UNL     1       2.064   0.146  -4.337  0.00  0.00    -0.383 OA
ATOM     28  H   UNL     1       1.518  -0.529  -3.891  0.00  0.00    +0.210 HD
ENDBRANCH  26  27
BRANCH  25  29
ATOM     29  O   UNL     1      -0.462   0.333  -2.977  0.00  0.00    -0.386 OA
ATOM     30  H   UNL     1      -0.069   0.792  -2.208  0.00  0.00    +0.210 HD
ENDBRANCH  25  29
BRANCH  24  31
ATOM     31  O   UNL     1      -0.906   2.948  -5.526  0.00  0.00    -0.386 OA
ATOM     32  H   UNL     1      -1.179   2.270  -6.169  0.00  0.00    +0.210 HD
ENDBRANCH  24  31
BRANCH  23  33
ATOM     33  C   UNL     1      -1.114   4.744  -3.293  0.00  0.00    +0.190 C 
BRANCH  33  34
ATOM     34  O   UNL     1      -0.677   5.672  -2.297  0.00  0.00    -0.392 OA
ATOM     35  H   UNL     1      -0.401   5.173  -1.511  0.00  0.00    +0.210 HD
ENDBRANCH  33  34
ENDBRANCH  23  33
ENDBRANCH  20  21
ENDBRANCH  16  20
ENDBRANCH  11  12
BRANCH  10  36
ATOM     36  O   UNL     1       7.278   9.800   0.372  0.00  0.00    -0.506 OA
ATOM     37  H   UNL     1       7.097  10.706   0.710  0.00  0.00    +0.292 HD
ENDBRANCH  10  36
BRANCH   7  38
ATOM     38  O   UNL     1       7.776   7.355   4.399  0.00  0.00    -0.461 OA
BRANCH  38  39
ATOM     39  C   UNL     1       7.305   6.349   5.330  0.00  0.00    +0.339 C 
ATOM     40  O   UNL     1       6.092   6.769   5.960  0.00  0.00    -0.331 OA
ATOM     41  C   UNL     1       6.282   7.906   6.822  0.00  0.00    +0.179 C 
ATOM     42  C   UNL     1       7.220   7.573   8.002  0.00  0.00    +0.177 C 
ATOM     43  C   UNL     1       8.565   7.034   7.480  0.00  0.00    +0.180 C 
ATOM     44  C   UNL     1       8.340   5.946   6.416  0.00  0.00    +0.214 C 
BRANCH  44  45
ATOM     45  O   UNL     1       9.581   5.514   5.847  0.00  0.00    -0.383 OA
ATOM     46  H   UNL     1       9.997   6.312   5.469  0.00  0.00    +0.210 HD
ENDBRANCH  44  45
BRANCH  43  47
ATOM     47  O   UNL     1       9.416   8.059   6.950  0.00  0.00    -0.386 OA
ATOM     48  H   UNL     1       8.955   8.915   6.948  0.00  0.00    +0.210 HD
ENDBRANCH  43  47
BRANCH  42  49
ATOM     49  O   UNL     1       6.604   6.603   8.854  0.00  0.00    -0.386 OA
ATOM     50  H   UNL     1       7.153   6.495   9.652  0.00  0.00    +0.210 HD
ENDBRANCH  42  49
BRANCH  41  51
ATOM     51  C   UNL     1       4.898   8.362   7.305  0.00  0.00    +0.190 C 
BRANCH  51  52
ATOM     52  O   UNL     1       4.076   8.798   6.217  0.00  0.00    -0.392 OA
ATOM     53  H   UNL     1       4.640   9.239   5.561  0.00  0.00    +0.210 HD
ENDBRANCH  51  52
ENDBRANCH  41  51
ENDBRANCH  38  39
ENDBRANCH   7  38
BRANCH   1  54
ATOM     54  O   UNL     1       3.819   6.916  -2.349  0.00  0.00    -0.453 OA
BRANCH  54  57
ATOM     55  C   UNL     1       3.086   9.797  -4.662  0.00  0.00    +0.179 C 
ATOM     56  O   UNL     1       3.034   8.883  -3.529  0.00  0.00    -0.331 OA
ATOM     57  C   UNL     1       4.137   7.969  -3.327  0.00  0.00    +0.340 C 
ATOM     58  C   UNL     1       4.473   7.233  -4.657  0.00  0.00    +0.214 C 
ATOM     59  C   UNL     1       4.760   8.259  -5.757  0.00  0.00    +0.180 C 
ATOM     60  C   UNL     1       3.493   9.095  -5.990  0.00  0.00    +0.177 C 
BRANCH  60  61
ATOM     61  O   UNL     1       3.711  10.020  -7.062  0.00  0.00    -0.386 OA
ATOM     62  H   UNL     1       2.846  10.347  -7.366  0.00  0.00    +0.210 HD
ENDBRANCH  60  61
BRANCH  59  63
ATOM     63  O   UNL     1       5.168   7.587  -6.958  0.00  0.00    -0.386 OA
ATOM     64  H   UNL     1       4.455   6.963  -7.186  0.00  0.00    +0.210 HD
ENDBRANCH  59  63
BRANCH  58  65
ATOM     65  O   UNL     1       3.398   6.383  -5.124  0.00  0.00    -0.383 OA
ATOM     66  H   UNL     1       2.639   6.496  -4.518  0.00  0.00    +0.210 HD
ENDBRANCH  58  65
BRANCH  55  67
ATOM     67  C   UNL     1       3.905  11.108  -4.448  0.00  0.00    +0.197 C 
BRANCH  67  68
ATOM     68  O   UNL     1       3.310  12.063  -3.580  0.00  0.00    -0.346 OA
BRANCH  68  72
ATOM     69  C   UNL     1       2.325  13.114   0.431  0.00  0.00    +0.041 C 
ATOM     70  C   UNL     1       3.371  13.817  -0.421  0.00  0.00    +0.149 C 
ATOM     71  O   UNL     1       3.236  13.471  -1.799  0.00  0.00    -0.343 OA
ATOM     72  C   UNL     1       3.690  12.157  -2.209  0.00  0.00    +0.282 C 
ATOM     73  C   UNL     1       5.200  12.028  -1.856  0.00  0.00    +0.201 C 
ATOM     74  C   UNL     1       5.360  12.262  -0.332  0.00  0.00    +0.179 C 
ATOM     75  C   UNL     1       4.791  13.608   0.099  0.00  0.00    +0.174 C 
BRANCH  75  76
ATOM     76  O   UNL     1       5.683  14.629  -0.391  0.00  0.00    -0.387 OA
ATOM     77  H   UNL     1       5.407  14.811  -1.316  0.00  0.00    +0.210 HD
ENDBRANCH  75  76
BRANCH  74  78
ATOM     78  O   UNL     1       6.748  12.241   0.073  0.00  0.00    -0.386 OA
ATOM     79  H   UNL     1       7.011  13.185   0.155  0.00  0.00    +0.210 HD
ENDBRANCH  74  78
BRANCH  73  80
ATOM     80  O   UNL     1       5.987  12.996  -2.580  0.00  0.00    -0.384 OA
ATOM     81  H   UNL     1       6.780  13.158  -2.038  0.00  0.00    +0.210 HD
ENDBRANCH  73  80
ENDBRANCH  68  72
ENDBRANCH  67  68
ENDBRANCH  55  67
ENDBRANCH  54  57
ENDBRANCH   1  54
TORSDOF 28
