REMARK  Name = 
REMARK  22 active torsions:
REMARK  status: ('A' for Active; 'I' for Inactive)
REMARK    1  A    between atoms: C_1  and  C_2
REMARK    2  A    between atoms: C_3  and  O_61
REMARK    3  A    between atoms: C_5  and  O_60
REMARK    4  A    between atoms: C_7  and  O_59
REMARK    5  A    between atoms: C_8  and  O_11
REMARK    6  A    between atoms: O_11  and  C_12
REMARK    7  A    between atoms: C_12  and  C_13
REMARK    8  A    between atoms: C_14  and  O_58
REMARK    9  A    between atoms: C_16  and  O_57
REMARK   10  A    between atoms: C_17  and  O_56
REMARK   11  A    between atoms: C_18  and  O_21
REMARK   12  A    between atoms: O_21  and  C_22
REMARK   13  A    between atoms: C_23  and  C_48
REMARK   14  A    between atoms: C_27  and  O_34
REMARK   15  A    between atoms: C_29  and  O_33
REMARK   16  A    between atoms: O_34  and  C_35
REMARK   17  A    between atoms: C_37  and  O_47
REMARK   18  A    between atoms: C_38  and  O_46
REMARK   19  A    between atoms: C_40  and  O_45
REMARK   20  A    between atoms: C_42  and  C_44
REMARK   21  A    between atoms: C_50  and  O_55
REMARK   22  A    between atoms: C_51  and  O_54
REMARK                            x       y       z     vdW  Elec       q    Type
REMARK                         _______ _______ _______ _____ _____    ______ ____
ROOT
ATOM      1  C   UNL     1       4.172   7.147  -1.051  0.00  0.00    +0.214 A 
ATOM      2  C   UNL     1       4.592   8.437  -0.414  0.00  0.00    +0.238 A 
ATOM      3  O   UNL     1       4.281   9.511  -0.884  0.00  0.00    -0.283 OA
ATOM      4  C   UNL     1       5.377   8.299   0.872  0.00  0.00    +0.109 A 
ATOM      5  C   UNL     1       5.153   7.145   1.609  0.00  0.00    +0.147 A 
ATOM      6  C   UNL     1       5.856   6.847   2.794  0.00  0.00    +0.093 A 
ATOM      7  C   UNL     1       6.832   7.716   3.280  0.00  0.00    +0.131 A 
ATOM      8  C   UNL     1       7.031   8.910   2.565  0.00  0.00    +0.092 A 
ATOM      9  O   UNL     1       4.223   6.232   1.199  0.00  0.00    -0.451 OA
ATOM     10  C   UNL     1       6.295   9.202   1.389  0.00  0.00    +0.135 A 
ATOM     11  C   UNL     1       4.031   6.116  -0.175  0.00  0.00    +0.181 A 
ENDROOT
BRANCH  11  12
ATOM     12  C   UNL     1       3.903   4.678  -0.493  0.00  0.00    +0.025 A 
ATOM     13  C   UNL     1       5.083   4.065  -0.960  0.00  0.00    +0.015 A 
ATOM     14  C   UNL     1       5.150   2.689  -1.148  0.00  0.00    +0.050 A 
ATOM     15  C   UNL     1       4.092   1.904  -0.756  0.00  0.00    +0.158 A 
ATOM     16  C   UNL     1       2.963   2.467  -0.163  0.00  0.00    +0.159 A 
ATOM     17  C   UNL     1       2.840   3.863  -0.062  0.00  0.00    +0.060 A 
BRANCH  16  18
ATOM     18  O   UNL     1       2.055   1.626   0.421  0.00  0.00    -0.503 OA
ATOM     19  H   UNL     1       1.174   1.837   0.062  0.00  0.00    +0.292 HD
ENDBRANCH  16  18
BRANCH  15  20
ATOM     20  O   UNL     1       4.239   0.557  -0.905  0.00  0.00    -0.503 OA
ATOM     21  H   UNL     1       4.292   0.212   0.001  0.00  0.00    +0.292 HD
ENDBRANCH  15  20
ENDBRANCH  11  12
BRANCH  10  22
ATOM     22  O   UNL     1       6.533  10.384   0.748  0.00  0.00    -0.506 OA
ATOM     23  H   UNL     1       6.655  11.080   1.417  0.00  0.00    +0.292 HD
ENDBRANCH  10  22
BRANCH   7  24
ATOM     24  O   UNL     1       7.636   7.495   4.388  0.00  0.00    -0.461 OA
BRANCH  24  25
ATOM     25  C   UNL     1       7.216   6.439   5.283  0.00  0.00    +0.339 C 
ATOM     26  O   UNL     1       5.992   6.777   5.941  0.00  0.00    -0.334 OA
ATOM     27  C   UNL     1       6.141   7.874   6.853  0.00  0.00    +0.150 C 
ATOM     28  C   UNL     1       4.747   8.259   7.329  0.00  0.00    +0.041 C 
ATOM     29  C   UNL     1       7.062   7.489   8.024  0.00  0.00    +0.174 C 
ATOM     30  C   UNL     1       8.434   7.024   7.500  0.00  0.00    +0.180 C 
ATOM     31  C   UNL     1       8.272   6.026   6.349  0.00  0.00    +0.214 C 
BRANCH  31  32
ATOM     32  O   UNL     1       9.522   5.650   5.775  0.00  0.00    -0.383 OA
ATOM     33  H   UNL     1       9.855   6.419   5.276  0.00  0.00    +0.210 HD
ENDBRANCH  31  32
BRANCH  30  34
ATOM     34  O   UNL     1       9.244   8.158   7.138  0.00  0.00    -0.386 OA
ATOM     35  H   UNL     1       8.772   8.687   6.482  0.00  0.00    +0.210 HD
ENDBRANCH  30  34
BRANCH  29  36
ATOM     36  O   UNL     1       7.214   8.583   8.929  0.00  0.00    -0.387 OA
ATOM     37  H   UNL     1       8.138   8.895   8.860  0.00  0.00    +0.210 HD
ENDBRANCH  29  36
ENDBRANCH  24  25
ENDBRANCH   7  24
BRANCH   1  38
ATOM     38  O   UNL     1       3.921   7.013  -2.417  0.00  0.00    -0.453 OA
BRANCH  38  41
ATOM     39  C   UNL     1       5.773   9.734  -4.382  0.00  0.00    +0.179 C 
ATOM     40  O   UNL     1       5.457   8.703  -3.383  0.00  0.00    -0.331 OA
ATOM     41  C   UNL     1       4.247   7.936  -3.512  0.00  0.00    +0.340 C 
ATOM     42  C   UNL     1       3.003   8.751  -3.967  0.00  0.00    +0.214 C 
ATOM     43  C   UNL     1       3.391   9.547  -5.224  0.00  0.00    +0.180 C 
ATOM     44  C   UNL     1       4.560  10.508  -4.917  0.00  0.00    +0.177 C 
BRANCH  44  45
ATOM     45  O   UNL     1       4.146  11.502  -3.972  0.00  0.00    -0.386 OA
ATOM     46  H   UNL     1       3.931  11.043  -3.135  0.00  0.00    +0.210 HD
ENDBRANCH  44  45
BRANCH  43  47
ATOM     47  O   UNL     1       2.265  10.292  -5.706  0.00  0.00    -0.386 OA
ATOM     48  H   UNL     1       2.085  10.967  -5.017  0.00  0.00    +0.210 HD
ENDBRANCH  43  47
BRANCH  42  49
ATOM     49  O   UNL     1       2.507   9.662  -2.971  0.00  0.00    -0.383 OA
ATOM     50  H   UNL     1       2.935   9.465  -2.117  0.00  0.00    +0.210 HD
ENDBRANCH  42  49
BRANCH  39  51
ATOM     51  C   UNL     1       6.712   9.264  -5.541  0.00  0.00    +0.197 C 
BRANCH  51  52
ATOM     52  O   UNL     1       7.215  10.284  -6.448  0.00  0.00    -0.346 OA
BRANCH  52  56
ATOM     53  C   UNL     1       9.096  12.768  -3.379  0.00  0.00    +0.041 C 
ATOM     54  C   UNL     1       8.296  13.255  -4.586  0.00  0.00    +0.149 C 
ATOM     55  O   UNL     1       7.511  12.184  -5.131  0.00  0.00    -0.343 OA
ATOM     56  C   UNL     1       8.194  11.202  -5.903  0.00  0.00    +0.282 C 
ATOM     57  C   UNL     1       8.973  11.914  -7.065  0.00  0.00    +0.201 C 
ATOM     58  C   UNL     1       9.963  12.936  -6.461  0.00  0.00    +0.179 C 
ATOM     59  C   UNL     1       9.205  13.961  -5.610  0.00  0.00    +0.174 C 
BRANCH  59  60
ATOM     60  O   UNL     1       8.446  14.825  -6.468  0.00  0.00    -0.387 OA
ATOM     61  H   UNL     1       8.012  14.250  -7.139  0.00  0.00    +0.210 HD
ENDBRANCH  59  60
BRANCH  58  62
ATOM     62  O   UNL     1      10.736  13.603  -7.468  0.00  0.00    -0.386 OA
ATOM     63  H   UNL     1      10.467  14.542  -7.462  0.00  0.00    +0.210 HD
ENDBRANCH  58  62
BRANCH  57  64
ATOM     64  O   UNL     1       8.045  12.621  -7.917  0.00  0.00    -0.384 OA
ATOM     65  H   UNL     1       7.307  12.003  -8.072  0.00  0.00    +0.210 HD
ENDBRANCH  57  64
ENDBRANCH  52  56
ENDBRANCH  51  52
ENDBRANCH  39  51
ENDBRANCH  38  41
ENDBRANCH   1  38
TORSDOF 20
