REMARK  Name = 
REMARK  10 active torsions:
REMARK  status: ('A' for Active; 'I' for Inactive)
REMARK    1  A    between atoms: C_1  and  C_2
REMARK    2  A    between atoms: C_2  and  C_3
REMARK    3  A    between atoms: C_2  and  C_4
REMARK    4  A    between atoms: C_4  and  O_6
REMARK    5  A    between atoms: O_6  and  C_7
REMARK    6  A    between atoms: C_8  and  O_27
REMARK    7  A    between atoms: C_10  and  C_13
REMARK    8  A    between atoms: C_14  and  O_26
REMARK    9  A    between atoms: C_18  and  O_25
REMARK   10  A    between atoms: C_20  and  O_24
REMARK                            x       y       z     vdW  Elec       q    Type
REMARK                         _______ _______ _______ _____ _____    ______ ____
ROOT
ATOM      1  C   UNL     1       6.693   6.599   2.082  0.00  0.00    +0.181 A 
ATOM      2  O   UNL     1       6.487   7.576   1.107  0.00  0.00    -0.451 OA
ATOM      3  C   UNL     1       7.052   8.815   1.260  0.00  0.00    +0.147 A 
ATOM      4  C   UNL     1       7.807   9.166   2.371  0.00  0.00    +0.109 A 
ATOM      5  C   UNL     1       8.348  10.454   2.471  0.00  0.00    +0.135 A 
ATOM      6  C   UNL     1       8.147  11.383   1.455  0.00  0.00    +0.091 A 
ATOM      7  C   UNL     1       7.394  11.018   0.345  0.00  0.00    +0.124 A 
ATOM      8  C   UNL     1       8.010   8.163   3.418  0.00  0.00    +0.238 A 
ATOM      9  O   UNL     1       8.633   8.461   4.434  0.00  0.00    -0.283 OA
ATOM     10  C   UNL     1       6.840   9.744   0.240  0.00  0.00    +0.092 A 
ATOM     11  C   UNL     1       7.408   6.817   3.207  0.00  0.00    +0.208 A 
ENDROOT
BRANCH   1  15
ATOM     12  C   UNL     1       4.800   2.917   0.848  0.00  0.00    +0.173 A 
ATOM     13  C   UNL     1       5.980   2.864   1.591  0.00  0.00    +0.051 A 
ATOM     14  C   UNL     1       6.593   4.050   2.022  0.00  0.00    +0.015 A 
ATOM     15  C   UNL     1       6.039   5.308   1.722  0.00  0.00    +0.025 A 
ATOM     16  C   UNL     1       4.849   5.338   0.979  0.00  0.00    +0.061 A 
ATOM     17  C   UNL     1       4.240   4.159   0.545  0.00  0.00    +0.160 A 
BRANCH  17  18
ATOM     18  O   UNL     1       3.105   4.312  -0.201  0.00  0.00    -0.503 OA
ATOM     19  H   UNL     1       2.436   3.711   0.186  0.00  0.00    +0.292 HD
ENDBRANCH  17  18
BRANCH  12  20
ATOM     20  O   UNL     1       4.358   1.700   0.285  0.00  0.00    -0.422 OA
BRANCH  20  21
ATOM     21  C   UNL     1       2.992   1.491   0.128  0.00  0.00    +0.315 C 
ATOM     22  O   UNL     1       2.120   2.101   0.737  0.00  0.00    -0.250 OA
BRANCH  21  24
ATOM     23  C   UNL     1       1.221   0.362  -1.223  0.00  0.00    +0.019 C 
ATOM     24  C   UNL     1       2.725   0.447  -0.947  0.00  0.00    +0.092 C 
ATOM     25  C   UNL     1       3.453   0.824  -2.237  0.00  0.00    +0.019 C 
ENDBRANCH  21  24
ENDBRANCH  20  21
ENDBRANCH  12  20
ENDBRANCH   1  15
BRANCH   5  26
ATOM     26  O   UNL     1       9.085  10.870   3.548  0.00  0.00    -0.506 OA
ATOM     27  H   UNL     1       9.132  10.125   4.192  0.00  0.00    +0.292 HD
ENDBRANCH   5  26
BRANCH   7  28
ATOM     28  O   UNL     1       7.172  11.890  -0.676  0.00  0.00    -0.507 OA
ATOM     29  H   UNL     1       7.634  12.726  -0.484  0.00  0.00    +0.292 HD
ENDBRANCH   7  28
BRANCH  11  30
ATOM     30  O   UNL     1       7.612   5.890   4.209  0.00  0.00    -0.501 OA
ATOM     31  H   UNL     1       6.748   5.492   4.418  0.00  0.00    +0.292 HD
ENDBRANCH  11  30
TORSDOF 8
