REMARK  Name = 
REMARK  18 active torsions:
REMARK  status: ('A' for Active; 'I' for Inactive)
REMARK    1  A    between atoms: C_1  and  O_2
REMARK    2  A    between atoms: O_2  and  C_3
REMARK    3  A    between atoms: C_4  and  C_42
REMARK    4  A    between atoms: C_8  and  O_15
REMARK    5  A    between atoms: C_10  and  O_14
REMARK    6  A    between atoms: O_15  and  C_16
REMARK    7  A    between atoms: C_18  and  O_41
REMARK    8  A    between atoms: C_19  and  O_40
REMARK    9  A    between atoms: C_21  and  O_39
REMARK   10  A    between atoms: C_23  and  C_25
REMARK   11  A    between atoms: C_25  and  O_26
REMARK   12  A    between atoms: O_26  and  C_27
REMARK   13  A    between atoms: C_29  and  O_38
REMARK   14  A    between atoms: C_31  and  O_37
REMARK   15  A    between atoms: C_32  and  C_35
REMARK   16  A    between atoms: C_35  and  O_36
REMARK   17  A    between atoms: C_44  and  O_49
REMARK   18  A    between atoms: C_45  and  O_48
REMARK                            x       y       z     vdW  Elec       q    Type
REMARK                         _______ _______ _______ _____ _____    ______ ____
ROOT
ATOM      1  O   UNL     1       6.634  -5.277  -3.662  0.00  0.00    -0.461 OA
ENDROOT
BRANCH   1   8
ATOM      2  C   UNL     1      10.451  -4.697   1.535  0.00  0.00    +0.211 A 
ATOM      3  C   UNL     1       9.688  -5.907   1.098  0.00  0.00    +0.238 A 
ATOM      4  O   UNL     1       9.763  -6.960   1.717  0.00  0.00    -0.283 OA
ATOM      5  C   UNL     1       8.831  -5.774  -0.101  0.00  0.00    +0.109 A 
ATOM      6  C   UNL     1       8.650  -4.513  -0.656  0.00  0.00    +0.147 A 
ATOM      7  C   UNL     1       7.871  -4.355  -1.827  0.00  0.00    +0.093 A 
ATOM      8  C   UNL     1       7.288  -5.469  -2.460  0.00  0.00    +0.131 A 
ATOM      9  C   UNL     1       7.473  -6.727  -1.893  0.00  0.00    +0.092 A 
ATOM     10  O   UNL     1       9.216  -3.382  -0.106  0.00  0.00    -0.451 OA
ATOM     11  C   UNL     1       8.219  -6.875  -0.716  0.00  0.00    +0.135 A 
ATOM     12  C   UNL     1      10.138  -3.526   0.940  0.00  0.00    +0.181 A 
BRANCH  12  13
ATOM     13  C   UNL     1      10.767  -2.244   1.322  0.00  0.00    +0.025 A 
ATOM     14  C   UNL     1      11.813  -1.721   0.540  0.00  0.00    +0.015 A 
ATOM     15  C   UNL     1      12.356  -0.459   0.814  0.00  0.00    +0.050 A 
ATOM     16  C   UNL     1      11.857   0.279   1.875  0.00  0.00    +0.158 A 
ATOM     17  C   UNL     1      10.860  -0.245   2.694  0.00  0.00    +0.159 A 
ATOM     18  C   UNL     1      10.310  -1.501   2.428  0.00  0.00    +0.060 A 
BRANCH  17  19
ATOM     19  O   UNL     1      10.443   0.527   3.745  0.00  0.00    -0.503 OA
ATOM     20  H   UNL     1       9.894  -0.023   4.329  0.00  0.00    +0.292 HD
ENDBRANCH  17  19
BRANCH  16  21
ATOM     21  O   UNL     1      12.345   1.535   2.103  0.00  0.00    -0.503 OA
ATOM     22  H   UNL     1      11.811   1.880   2.846  0.00  0.00    +0.292 HD
ENDBRANCH  16  21
ENDBRANCH  12  13
BRANCH   2  24
ATOM     23  C   UNL     1      12.170  -5.957   2.610  0.00  0.00    +0.277 C 
ATOM     24  O   UNL     1      11.406  -4.750   2.547  0.00  0.00    -0.488 OA
ENDBRANCH   2  24
BRANCH  11  25
ATOM     25  O   UNL     1       8.362  -8.134  -0.205  0.00  0.00    -0.506 OA
ATOM     26  H   UNL     1       7.812  -8.768  -0.691  0.00  0.00    +0.292 HD
ENDBRANCH  11  25
ENDBRANCH   1   8
BRANCH   1  27
ATOM     27  C   UNL     1       5.543  -6.191  -3.973  0.00  0.00    +0.339 C 
ATOM     28  O   UNL     1       5.892  -7.212  -4.928  0.00  0.00    -0.331 OA
ATOM     29  C   UNL     1       5.916  -6.871  -6.337  0.00  0.00    +0.179 C 
ATOM     30  C   UNL     1       4.755  -5.955  -6.796  0.00  0.00    +0.177 C 
ATOM     31  C   UNL     1       4.553  -4.798  -5.819  0.00  0.00    +0.180 C 
ATOM     32  C   UNL     1       4.312  -5.386  -4.427  0.00  0.00    +0.214 C 
BRANCH  32  33
ATOM     33  O   UNL     1       3.955  -4.363  -3.494  0.00  0.00    -0.383 OA
ATOM     34  H   UNL     1       4.452  -3.563  -3.746  0.00  0.00    +0.210 HD
ENDBRANCH  32  33
BRANCH  31  35
ATOM     35  O   UNL     1       5.645  -3.873  -5.836  0.00  0.00    -0.386 OA
ATOM     36  H   UNL     1       6.410  -4.264  -5.369  0.00  0.00    +0.210 HD
ENDBRANCH  31  35
BRANCH  30  37
ATOM     37  O   UNL     1       3.531  -6.706  -6.870  0.00  0.00    -0.386 OA
ATOM     38  H   UNL     1       2.814  -6.094  -7.115  0.00  0.00    +0.210 HD
ENDBRANCH  30  37
BRANCH  29  39
ATOM     39  C   UNL     1       5.889  -8.200  -7.146  0.00  0.00    +0.197 C 
BRANCH  39  40
ATOM     40  O   UNL     1       5.967  -7.975  -8.564  0.00  0.00    -0.346 OA
BRANCH  40  41
ATOM     41  C   UNL     1       5.647  -9.164  -9.306  0.00  0.00    +0.282 C 
ATOM     42  O   UNL     1       6.565 -10.237  -9.033  0.00  0.00    -0.341 OA
ATOM     43  C   UNL     1       6.976 -10.808 -10.300  0.00  0.00    +0.178 C 
ATOM     44  C   UNL     1       6.016 -10.263 -11.371  0.00  0.00    +0.179 C 
ATOM     45  C   UNL     1       5.716  -8.882 -10.820  0.00  0.00    +0.201 C 
BRANCH  45  46
ATOM     46  O   UNL     1       6.785  -7.982 -11.138  0.00  0.00    -0.384 OA
ATOM     47  H   UNL     1       6.756  -7.303 -10.435  0.00  0.00    +0.210 HD
ENDBRANCH  45  46
BRANCH  44  48
ATOM     48  O   UNL     1       4.784 -10.978 -11.496  0.00  0.00    -0.386 OA
ATOM     49  H   UNL     1       4.811 -11.764 -10.909  0.00  0.00    +0.210 HD
ENDBRANCH  44  48
BRANCH  43  50
ATOM     50  C   UNL     1       6.992 -12.328 -10.159  0.00  0.00    +0.190 C 
BRANCH  50  51
ATOM     51  O   UNL     1       5.699 -12.784  -9.744  0.00  0.00    -0.392 OA
ATOM     52  H   UNL     1       5.592 -12.453  -8.829  0.00  0.00    +0.210 HD
ENDBRANCH  50  51
ENDBRANCH  43  50
ENDBRANCH  40  41
ENDBRANCH  39  40
ENDBRANCH  29  39
ENDBRANCH   1  27
TORSDOF 17
