REMARK  Name = 
REMARK  21 active torsions:
REMARK  status: ('A' for Active; 'I' for Inactive)
REMARK    1  A    between atoms: C_1  and  C_2
REMARK    2  A    between atoms: C_3  and  O_61
REMARK    3  A    between atoms: C_5  and  O_60
REMARK    4  A    between atoms: C_6  and  O_59
REMARK    5  A    between atoms: C_8  and  O_11
REMARK    6  A    between atoms: O_11  and  C_12
REMARK    7  A    between atoms: C_12  and  C_13
REMARK    8  A    between atoms: C_14  and  O_58
REMARK    9  A    between atoms: C_16  and  O_57
REMARK   10  A    between atoms: C_18  and  O_44
REMARK   11  A    between atoms: C_19  and  O_22
REMARK   12  A    between atoms: O_22  and  C_23
REMARK   13  A    between atoms: C_25  and  O_43
REMARK   14  A    between atoms: C_30  and  C_35
REMARK   15  A    between atoms: C_31  and  O_34
REMARK   16  A    between atoms: C_37  and  O_42
REMARK   17  A    between atoms: C_38  and  O_41
REMARK   18  A    between atoms: O_44  and  C_45
REMARK   19  A    between atoms: C_47  and  O_56
REMARK   20  A    between atoms: C_48  and  O_55
REMARK   21  A    between atoms: C_50  and  O_54
REMARK                            x       y       z     vdW  Elec       q    Type
REMARK                         _______ _______ _______ _____ _____    ______ ____
ROOT
ATOM      1  C   UNL     1       3.097   3.960  -3.921  0.00  0.00    +0.179 C 
ATOM      2  O   UNL     1       3.579   5.103  -3.190  0.00  0.00    -0.331 OA
ATOM      3  C   UNL     1       2.553   5.892  -2.557  0.00  0.00    +0.340 C 
ATOM      4  C   UNL     1       1.541   6.414  -3.628  0.00  0.00    +0.221 C 
ATOM      5  C   UNL     1       0.959   5.177  -4.345  0.00  0.00    +0.180 C 
ATOM      6  C   UNL     1       2.090   4.388  -5.006  0.00  0.00    +0.177 C 
ENDROOT
BRANCH   6   7
ATOM      7  O   UNL     1       1.500   3.310  -5.739  0.00  0.00    -0.386 OA
ATOM      8  H   UNL     1       2.206   2.662  -5.927  0.00  0.00    +0.210 HD
ENDBRANCH   6   7
BRANCH   5   9
ATOM      9  O   UNL     1      -0.053   5.471  -5.309  0.00  0.00    -0.386 OA
ATOM     10  H   UNL     1      -0.072   4.700  -5.913  0.00  0.00    +0.210 HD
ENDBRANCH   5   9
BRANCH   4  11
ATOM     11  O   UNL     1       2.216   7.346  -4.510  0.00  0.00    -0.337 OA
BRANCH  11  12
ATOM     12  C   UNL     1       1.431   7.907  -5.579  0.00  0.00    +0.282 C 
ATOM     13  O   UNL     1       2.296   8.644  -6.463  0.00  0.00    -0.346 OA
ATOM     14  C   UNL     1       2.862   9.835  -5.906  0.00  0.00    +0.197 C 
ATOM     15  C   UNL     1       1.817  10.780  -5.293  0.00  0.00    +0.171 C 
ATOM     16  C   UNL     1       0.878  10.022  -4.356  0.00  0.00    +0.178 C 
ATOM     17  C   UNL     1       0.278   8.826  -5.106  0.00  0.00    +0.201 C 
BRANCH  17  18
ATOM     18  O   UNL     1      -0.717   8.196  -4.293  0.00  0.00    -0.384 OA
ATOM     19  H   UNL     1      -0.550   8.464  -3.372  0.00  0.00    +0.210 HD
ENDBRANCH  17  18
BRANCH  16  20
ATOM     20  O   UNL     1       1.536   9.613  -3.148  0.00  0.00    -0.386 OA
ATOM     21  H   UNL     1       2.224   8.950  -3.381  0.00  0.00    +0.210 HD
ENDBRANCH  16  20
BRANCH  15  22
ATOM     22  O   UNL     1       1.055  11.382  -6.349  0.00  0.00    -0.387 OA
ATOM     23  H   UNL     1       0.285  11.832  -5.957  0.00  0.00    +0.210 HD
ENDBRANCH  15  22
ENDBRANCH  11  12
ENDBRANCH   4  11
BRANCH   3  24
ATOM     24  O   UNL     1       3.108   6.995  -1.794  0.00  0.00    -0.461 OA
BRANCH  24  25
ATOM     25  C   UNL     1       3.831   6.691  -0.659  0.00  0.00    +0.131 A 
ATOM     26  C   UNL     1       4.251   7.767   0.147  0.00  0.00    +0.093 A 
ATOM     27  C   UNL     1       5.022   7.549   1.310  0.00  0.00    +0.147 A 
ATOM     28  O   UNL     1       5.428   8.656   2.032  0.00  0.00    -0.451 OA
ATOM     29  C   UNL     1       6.127   8.472   3.233  0.00  0.00    +0.181 A 
ATOM     30  C   UNL     1       6.440   7.251   3.729  0.00  0.00    +0.208 A 
ATOM     31  C   UNL     1       6.158   6.047   2.907  0.00  0.00    +0.238 A 
ATOM     32  O   UNL     1       6.573   4.951   3.262  0.00  0.00    -0.283 OA
ATOM     33  C   UNL     1       5.364   6.250   1.681  0.00  0.00    +0.109 A 
ATOM     34  C   UNL     1       4.946   5.181   0.881  0.00  0.00    +0.135 A 
ATOM     35  C   UNL     1       4.189   5.400  -0.273  0.00  0.00    +0.092 A 
BRANCH  29  36
ATOM     36  C   UNL     1       6.501   9.745   3.928  0.00  0.00    +0.025 A 
ATOM     37  C   UNL     1       7.711   9.862   4.655  0.00  0.00    +0.015 A 
ATOM     38  C   UNL     1       8.030  11.015   5.381  0.00  0.00    +0.050 A 
ATOM     39  C   UNL     1       7.172  12.097   5.331  0.00  0.00    +0.158 A 
ATOM     40  C   UNL     1       6.012  12.040   4.563  0.00  0.00    +0.159 A 
ATOM     41  C   UNL     1       5.665  10.875   3.868  0.00  0.00    +0.060 A 
BRANCH  40  42
ATOM     42  O   UNL     1       5.235  13.165   4.521  0.00  0.00    -0.503 OA
ATOM     43  H   UNL     1       4.540  13.032   3.856  0.00  0.00    +0.292 HD
ENDBRANCH  40  42
BRANCH  39  44
ATOM     44  O   UNL     1       7.487  13.228   6.027  0.00  0.00    -0.503 OA
ATOM     45  H   UNL     1       6.765  13.856   5.826  0.00  0.00    +0.292 HD
ENDBRANCH  39  44
ENDBRANCH  29  36
BRANCH  34  46
ATOM     46  O   UNL     1       5.249   3.890   1.211  0.00  0.00    -0.506 OA
ATOM     47  H   UNL     1       5.157   3.306   0.442  0.00  0.00    +0.292 HD
ENDBRANCH  34  46
BRANCH  30  48
ATOM     48  O   UNL     1       7.010   7.013   4.973  0.00  0.00    -0.501 OA
ATOM     49  H   UNL     1       6.785   7.759   5.559  0.00  0.00    +0.292 HD
ENDBRANCH  30  48
ENDBRANCH  24  25
ENDBRANCH   3  24
BRANCH   1  50
ATOM     50  C   UNL     1       2.570   2.877  -2.962  0.00  0.00    +0.197 C 
BRANCH  50  51
ATOM     51  O   UNL     1       2.248   1.686  -3.669  0.00  0.00    -0.346 OA
BRANCH  51  55
ATOM     52  C   UNL     1       1.001  -0.057   0.074  0.00  0.00    +0.041 C 
ATOM     53  C   UNL     1       2.106  -0.606  -0.826  0.00  0.00    +0.149 C 
ATOM     54  O   UNL     1       2.559   0.393  -1.747  0.00  0.00    -0.343 OA
ATOM     55  C   UNL     1       1.655   0.709  -2.808  0.00  0.00    +0.282 C 
ATOM     56  C   UNL     1       1.292  -0.535  -3.643  0.00  0.00    +0.201 C 
ATOM     57  C   UNL     1       0.741  -1.622  -2.714  0.00  0.00    +0.179 C 
ATOM     58  C   UNL     1       1.714  -1.898  -1.557  0.00  0.00    +0.174 C 
BRANCH  58  59
ATOM     59  O   UNL     1       2.892  -2.522  -2.103  0.00  0.00    -0.387 OA
ATOM     60  H   UNL     1       3.297  -1.865  -2.718  0.00  0.00    +0.210 HD
ENDBRANCH  58  59
BRANCH  57  61
ATOM     61  O   UNL     1       0.538  -2.825  -3.471  0.00  0.00    -0.386 OA
ATOM     62  H   UNL     1       1.346  -3.365  -3.333  0.00  0.00    +0.210 HD
ENDBRANCH  57  61
BRANCH  56  63
ATOM     63  O   UNL     1       2.453  -1.055  -4.327  0.00  0.00    -0.384 OA
ATOM     64  H   UNL     1       2.112  -1.761  -4.908  0.00  0.00    +0.210 HD
ENDBRANCH  56  63
ENDBRANCH  51  55
ENDBRANCH  50  51
ENDBRANCH   1  50
TORSDOF 20
