REMARK  Name = 
REMARK  13 active torsions:
REMARK  status: ('A' for Active; 'I' for Inactive)
REMARK    1  A    between atoms: C_1  and  C_2
REMARK    2  A    between atoms: C_3  and  O_38
REMARK    3  A    between atoms: C_5  and  O_37
REMARK    4  A    between atoms: C_6  and  O_33
REMARK    5  A    between atoms: C_8  and  O_11
REMARK    6  A    between atoms: O_11  and  C_12
REMARK    7  A    between atoms: C_13  and  C_25
REMARK    8  A    between atoms: C_17  and  O_24
REMARK    9  A    between atoms: C_19  and  O_23
REMARK   10  A    between atoms: C_27  and  O_32
REMARK   11  A    between atoms: C_28  and  O_31
REMARK   12  A    between atoms: O_33  and  C_34
REMARK   13  A    between atoms: C_34  and  C_36
REMARK                            x       y       z     vdW  Elec       q    Type
REMARK                         _______ _______ _______ _____ _____    ______ ____
ROOT
ATOM      1  C   UNL     1       2.946   3.040  -3.264  0.00  0.00    +0.214 A 
ATOM      2  C   UNL     1       1.526   3.364  -2.869  0.00  0.00    +0.238 A 
ATOM      3  O   UNL     1       0.720   2.454  -2.689  0.00  0.00    -0.283 OA
ATOM      4  C   UNL     1       1.155   4.793  -2.732  0.00  0.00    +0.109 A 
ATOM      5  C   UNL     1       2.150   5.741  -2.965  0.00  0.00    +0.147 A 
ATOM      6  C   UNL     1       1.880   7.113  -2.909  0.00  0.00    +0.092 A 
ATOM      7  C   UNL     1       0.597   7.540  -2.601  0.00  0.00    +0.124 A 
ATOM      8  C   UNL     1      -0.411   6.619  -2.348  0.00  0.00    +0.091 A 
ATOM      9  O   UNL     1       3.443   5.415  -3.256  0.00  0.00    -0.451 OA
ATOM     10  C   UNL     1      -0.134   5.249  -2.416  0.00  0.00    +0.135 A 
ATOM     11  C   UNL     1       3.786   4.091  -3.445  0.00  0.00    +0.181 A 
ENDROOT
BRANCH  11  12
ATOM     12  C   UNL     1       5.153   4.024  -3.992  0.00  0.00    +0.025 A 
ATOM     13  C   UNL     1       5.323   4.029  -5.386  0.00  0.00    +0.015 A 
ATOM     14  C   UNL     1       6.599   3.932  -5.946  0.00  0.00    +0.050 A 
ATOM     15  C   UNL     1       7.696   3.808  -5.109  0.00  0.00    +0.158 A 
ATOM     16  C   UNL     1       7.543   3.807  -3.723  0.00  0.00    +0.159 A 
ATOM     17  C   UNL     1       6.280   3.949  -3.151  0.00  0.00    +0.060 A 
BRANCH  15  18
ATOM     18  O   UNL     1       8.932   3.641  -5.662  0.00  0.00    -0.503 OA
ATOM     19  H   UNL     1       9.540   3.549  -4.902  0.00  0.00    +0.292 HD
ENDBRANCH  15  18
BRANCH  16  20
ATOM     20  O   UNL     1       8.662   3.583  -2.968  0.00  0.00    -0.503 OA
ATOM     21  H   UNL     1       8.409   3.512  -2.031  0.00  0.00    +0.292 HD
ENDBRANCH  16  20
ENDBRANCH  11  12
BRANCH   7  22
ATOM     22  O   UNL     1       0.284   8.865  -2.540  0.00  0.00    -0.507 OA
ATOM     23  H   UNL     1       1.066   9.392  -2.777  0.00  0.00    +0.292 HD
ENDBRANCH   7  22
BRANCH  10  24
ATOM     24  O   UNL     1      -1.155   4.373  -2.168  0.00  0.00    -0.506 OA
ATOM     25  H   UNL     1      -1.972   4.853  -1.953  0.00  0.00    +0.292 HD
ENDBRANCH  10  24
BRANCH   1  26
ATOM     26  O   UNL     1       3.181   1.690  -3.472  0.00  0.00    -0.452 OA
BRANCH  26  30
ATOM     27  C   UNL     1       7.047   0.217  -4.469  0.00  0.00    +0.041 C 
ATOM     28  C   UNL     1       5.962  -0.660  -3.848  0.00  0.00    +0.150 C 
ATOM     29  O   UNL     1       4.651  -0.074  -3.977  0.00  0.00    -0.333 OA
ATOM     30  C   UNL     1       4.444   1.100  -3.170  0.00  0.00    +0.352 C 
ATOM     31  C   UNL     1       4.565   0.748  -1.677  0.00  0.00    +0.275 C 
ATOM     32  C   UNL     1       5.977   0.182  -1.450  0.00  0.00    +0.192 C 
ATOM     33  C   UNL     1       6.263  -1.011  -2.380  0.00  0.00    +0.175 C 
BRANCH  32  34
ATOM     34  O   UNL     1       6.150  -0.210  -0.085  0.00  0.00    -0.385 OA
ATOM     35  H   UNL     1       5.718  -1.084  -0.003  0.00  0.00    +0.210 HD
ENDBRANCH  32  34
BRANCH  33  36
ATOM     36  O   UNL     1       5.441  -2.119  -1.974  0.00  0.00    -0.387 OA
ATOM     37  H   UNL     1       4.527  -1.901  -2.254  0.00  0.00    +0.210 HD
ENDBRANCH  33  36
BRANCH  31  38
ATOM     38  O   UNL     1       3.595  -0.286  -1.374  0.00  0.00    -0.452 OA
BRANCH  38  39
ATOM     39  C   UNL     1       2.738  -0.063  -0.345  0.00  0.00    +0.304 C 
ATOM     40  C   UNL     1       1.833  -1.250  -0.201  0.00  0.00    +0.136 C 
ATOM     41  O   UNL     1       2.717   0.928   0.368  0.00  0.00    -0.251 OA
ENDBRANCH  38  39
ENDBRANCH  31  38
ENDBRANCH  26  30
ENDBRANCH   1  26
TORSDOF 11
