REMARK  Name = 
REMARK  13 active torsions:
REMARK  status: ('A' for Active; 'I' for Inactive)
REMARK    1  A    between atoms: C_1  and  O_2
REMARK    2  A    between atoms: O_2  and  C_3
REMARK    3  A    between atoms: C_3  and  C_5
REMARK    4  A    between atoms: C_7  and  O_38
REMARK    5  A    between atoms: C_9  and  O_37
REMARK    6  A    between atoms: C_10  and  O_36
REMARK    7  A    between atoms: C_11  and  O_14
REMARK    8  A    between atoms: O_14  and  C_15
REMARK    9  A    between atoms: C_16  and  C_28
REMARK   10  A    between atoms: C_20  and  O_27
REMARK   11  A    between atoms: C_22  and  O_26
REMARK   12  A    between atoms: C_30  and  O_35
REMARK   13  A    between atoms: C_31  and  O_34
REMARK                            x       y       z     vdW  Elec       q    Type
REMARK                         _______ _______ _______ _____ _____    ______ ____
ROOT
ATOM      1  C   UNL     1       4.822   3.938  -3.772  0.00  0.00    +0.214 A 
ATOM      2  C   UNL     1       3.412   4.400  -3.540  0.00  0.00    +0.238 A 
ATOM      3  O   UNL     1       2.453   3.640  -3.626  0.00  0.00    -0.283 OA
ATOM      4  C   UNL     1       3.191   5.832  -3.315  0.00  0.00    +0.109 A 
ATOM      5  C   UNL     1       4.245   6.696  -3.586  0.00  0.00    +0.147 A 
ATOM      6  C   UNL     1       4.052   8.079  -3.510  0.00  0.00    +0.092 A 
ATOM      7  C   UNL     1       2.800   8.577  -3.154  0.00  0.00    +0.124 A 
ATOM      8  C   UNL     1       1.747   7.723  -2.851  0.00  0.00    +0.091 A 
ATOM      9  O   UNL     1       5.490   6.256  -3.956  0.00  0.00    -0.451 OA
ATOM     10  C   UNL     1       1.945   6.347  -2.923  0.00  0.00    +0.135 A 
ATOM     11  C   UNL     1       5.760   4.889  -3.987  0.00  0.00    +0.181 A 
ENDROOT
BRANCH  11  12
ATOM     12  C   UNL     1       7.192   4.602  -4.360  0.00  0.00    +0.025 A 
ATOM     13  C   UNL     1       7.895   5.519  -5.176  0.00  0.00    +0.015 A 
ATOM     14  C   UNL     1       9.229   5.306  -5.552  0.00  0.00    +0.050 A 
ATOM     15  C   UNL     1       9.879   4.166  -5.119  0.00  0.00    +0.158 A 
ATOM     16  C   UNL     1       9.218   3.245  -4.317  0.00  0.00    +0.159 A 
ATOM     17  C   UNL     1       7.893   3.461  -3.926  0.00  0.00    +0.060 A 
BRANCH  15  18
ATOM     18  O   UNL     1      11.181   3.950  -5.484  0.00  0.00    -0.503 OA
ATOM     19  H   UNL     1      11.419   3.104  -5.057  0.00  0.00    +0.292 HD
ENDBRANCH  15  18
BRANCH  16  20
ATOM     20  O   UNL     1       9.913   2.129  -3.933  0.00  0.00    -0.503 OA
ATOM     21  H   UNL     1       9.303   1.534  -3.464  0.00  0.00    +0.292 HD
ENDBRANCH  16  20
ENDBRANCH  11  12
BRANCH   7  22
ATOM     22  O   UNL     1       2.546   9.914  -3.084  0.00  0.00    -0.507 OA
ATOM     23  H   UNL     1       3.344  10.404  -3.344  0.00  0.00    +0.292 HD
ENDBRANCH   7  22
BRANCH  10  24
ATOM     24  O   UNL     1       0.912   5.518  -2.593  0.00  0.00    -0.506 OA
ATOM     25  H   UNL     1       0.093   6.027  -2.486  0.00  0.00    +0.292 HD
ENDBRANCH  10  24
BRANCH   1  26
ATOM     26  O   UNL     1       5.140   2.586  -3.837  0.00  0.00    -0.453 OA
BRANCH  26  29
ATOM     27  C   UNL     1       2.647   0.833  -1.848  0.00  0.00    +0.261 C 
ATOM     28  O   UNL     1       3.778   1.674  -2.120  0.00  0.00    -0.322 OA
ATOM     29  C   UNL     1       4.132   1.623  -3.514  0.00  0.00    +0.340 C 
ATOM     30  C   UNL     1       4.715   0.226  -3.772  0.00  0.00    +0.214 C 
ATOM     31  C   UNL     1       3.607  -0.803  -3.528  0.00  0.00    +0.180 C 
ATOM     32  C   UNL     1       3.001  -0.645  -2.121  0.00  0.00    +0.185 C 
BRANCH  27  33
ATOM     33  C   UNL     1       2.179   0.958  -0.393  0.00  0.00    +0.339 C 
ATOM     34  O   UNL     1       2.102   0.016   0.391  0.00  0.00    -0.248 OA
BRANCH  33  36
ATOM     35  C   UNL     1       1.261   2.385   1.218  0.00  0.00    +0.280 C 
ATOM     36  O   UNL     1       1.804   2.234  -0.096  0.00  0.00    -0.466 OA
ENDBRANCH  33  36
ENDBRANCH  27  33
BRANCH  30  37
ATOM     37  O   UNL     1       5.812  -0.054  -2.869  0.00  0.00    -0.383 OA
ATOM     38  H   UNL     1       5.708   0.563  -2.116  0.00  0.00    +0.210 HD
ENDBRANCH  30  37
BRANCH  31  39
ATOM     39  O   UNL     1       4.153  -2.119  -3.694  0.00  0.00    -0.386 OA
ATOM     40  H   UNL     1       5.019  -2.113  -3.243  0.00  0.00    +0.210 HD
ENDBRANCH  31  39
BRANCH  32  41
ATOM     41  O   UNL     1       1.833  -1.469  -2.019  0.00  0.00    -0.386 OA
ATOM     42  H   UNL     1       1.687  -1.624  -1.063  0.00  0.00    +0.210 HD
ENDBRANCH  32  41
ENDBRANCH  26  29
ENDBRANCH   1  26
TORSDOF 12
