REMARK  Name = 
REMARK  11 active torsions:
REMARK  status: ('A' for Active; 'I' for Inactive)
REMARK    1  A    between atoms: C_3  and  O_22
REMARK    2  A    between atoms: C_4  and  O_21
REMARK    3  A    between atoms: C_6  and  C_7
REMARK    4  A    between atoms: C_8  and  O_20
REMARK    5  A    between atoms: C_12  and  O_19
REMARK    6  A    between atoms: C_14  and  O_18
REMARK    7  A    between atoms: O_22  and  C_23
REMARK    8  A    between atoms: C_25  and  O_35
REMARK    9  A    between atoms: C_26  and  O_34
REMARK   10  A    between atoms: C_27  and  O_33
REMARK   11  A    between atoms: C_29  and  O_32
REMARK                            x       y       z     vdW  Elec       q    Type
REMARK                         _______ _______ _______ _____ _____    ______ ____
ROOT
ATOM      1  C   UNL     1      -1.410  -0.168   0.236  0.00  0.00    +0.015 A 
ATOM      2  C   UNL     1      -0.637  -1.313   0.007  0.00  0.00    +0.025 A 
ATOM      3  C   UNL     1       0.748  -1.132  -0.153  0.00  0.00    +0.060 A 
ATOM      4  C   UNL     1       1.311   0.155  -0.140  0.00  0.00    +0.159 A 
ATOM      5  C   UNL     1       0.517   1.298  -0.022  0.00  0.00    +0.165 A 
ATOM      6  C   UNL     1      -0.844   1.109   0.230  0.00  0.00    +0.050 A 
ENDROOT
BRANCH   2   7
ATOM      7  C   UNL     1      -1.347  -2.615  -0.149  0.00  0.00    +0.181 A 
ATOM      8  O   UNL     1      -2.602  -2.453  -0.744  0.00  0.00    -0.451 OA
ATOM      9  C   UNL     1      -3.435  -3.529  -0.882  0.00  0.00    +0.147 A 
ATOM     10  C   UNL     1      -3.034  -4.825  -0.583  0.00  0.00    +0.109 A 
ATOM     11  C   UNL     1      -3.929  -5.888  -0.762  0.00  0.00    +0.135 A 
ATOM     12  C   UNL     1      -5.221  -5.658  -1.227  0.00  0.00    +0.091 A 
ATOM     13  C   UNL     1      -5.614  -4.356  -1.513  0.00  0.00    +0.124 A 
ATOM     14  C   UNL     1      -1.684  -5.028  -0.059  0.00  0.00    +0.238 A 
ATOM     15  O   UNL     1      -1.290  -6.175   0.161  0.00  0.00    -0.283 OA
ATOM     16  C   UNL     1      -4.731  -3.291  -1.347  0.00  0.00    +0.092 A 
ATOM     17  C   UNL     1      -0.860  -3.817   0.228  0.00  0.00    +0.208 A 
BRANCH  11  18
ATOM     18  O   UNL     1      -3.596  -7.189  -0.497  0.00  0.00    -0.506 OA
ATOM     19  H   UNL     1      -2.658  -7.210  -0.198  0.00  0.00    +0.292 HD
ENDBRANCH  11  18
BRANCH  13  20
ATOM     20  O   UNL     1      -6.874  -4.080  -1.962  0.00  0.00    -0.507 OA
ATOM     21  H   UNL     1      -7.369  -4.914  -2.036  0.00  0.00    +0.292 HD
ENDBRANCH  13  20
BRANCH  17  22
ATOM     22  O   UNL     1       0.329  -4.022   0.899  0.00  0.00    -0.501 OA
ATOM     23  H   UNL     1       0.593  -3.196   1.335  0.00  0.00    +0.292 HD
ENDBRANCH  17  22
ENDBRANCH   2   7
BRANCH   4  24
ATOM     24  O   UNL     1       2.669   0.255  -0.278  0.00  0.00    -0.503 OA
ATOM     25  H   UNL     1       2.877   1.204  -0.191  0.00  0.00    +0.292 HD
ENDBRANCH   4  24
BRANCH   5  26
ATOM     26  O   UNL     1       1.121   2.533  -0.226  0.00  0.00    -0.457 OA
BRANCH  26  27
ATOM     27  C   UNL     1       0.171   3.592  -0.486  0.00  0.00    +0.341 C 
ATOM     28  O   UNL     1      -0.648   3.291  -1.620  0.00  0.00    -0.308 OA
ATOM     29  C   UNL     1      -0.090   3.628  -2.880  0.00  0.00    +0.283 C 
ATOM     30  C   UNL     1       0.047   5.150  -2.956  0.00  0.00    +0.201 C 
ATOM     31  C   UNL     1       1.069   5.600  -1.911  0.00  0.00    +0.182 C 
ATOM     32  C   UNL     1       0.751   5.033  -0.518  0.00  0.00    +0.214 C 
BRANCH  29  33
ATOM     33  O   UNL     1       1.107   2.927  -3.190  0.00  0.00    -0.365 OA
ATOM     34  H   UNL     1       1.847   3.254  -2.658  0.00  0.00    +0.213 HD
ENDBRANCH  29  33
BRANCH  30  35
ATOM     35  O   UNL     1       0.406   5.610  -4.257  0.00  0.00    -0.384 OA
ATOM     36  H   UNL     1       1.200   5.125  -4.546  0.00  0.00    +0.210 HD
ENDBRANCH  30  35
BRANCH  31  37
ATOM     37  O   UNL     1       1.115   7.037  -1.817  0.00  0.00    -0.386 OA
ATOM     38  H   UNL     1       0.207   7.385  -1.909  0.00  0.00    +0.210 HD
ENDBRANCH  31  37
BRANCH  32  39
ATOM     39  O   UNL     1       1.865   5.171   0.371  0.00  0.00    -0.383 OA
ATOM     40  H   UNL     1       2.496   5.799  -0.029  0.00  0.00    +0.210 HD
ENDBRANCH  32  39
ENDBRANCH  26  27
ENDBRANCH   5  26
TORSDOF 11
