REMARK  Name = 
REMARK  24 active torsions:
REMARK  status: ('A' for Active; 'I' for Inactive)
REMARK    1  A    between atoms: C_3  and  O_49
REMARK    2  A    between atoms: C_4  and  O_48
REMARK    3  A    between atoms: C_6  and  C_7
REMARK    4  A    between atoms: C_8  and  O_34
REMARK    5  A    between atoms: C_12  and  O_33
REMARK    6  A    between atoms: C_14  and  O_18
REMARK    7  A    between atoms: O_18  and  C_19
REMARK    8  A    between atoms: C_21  and  O_32
REMARK    9  A    between atoms: C_22  and  O_31
REMARK   10  A    between atoms: C_23  and  O_30
REMARK   11  A    between atoms: C_25  and  C_28
REMARK   12  A    between atoms: C_28  and  O_29
REMARK   13  A    between atoms: O_34  and  C_35
REMARK   14  A    between atoms: C_37  and  O_47
REMARK   15  A    between atoms: C_38  and  O_46
REMARK   16  A    between atoms: C_39  and  O_45
REMARK   17  A    between atoms: C_41  and  C_43
REMARK   18  A    between atoms: C_43  and  O_44
REMARK   19  A    between atoms: O_49  and  C_50
REMARK   20  A    between atoms: C_52  and  O_62
REMARK   21  A    between atoms: C_53  and  O_61
REMARK   22  A    between atoms: C_54  and  O_60
REMARK   23  A    between atoms: C_56  and  C_58
REMARK   24  A    between atoms: C_58  and  O_59
REMARK                            x       y       z     vdW  Elec       q    Type
REMARK                         _______ _______ _______ _____ _____    ______ ____
ROOT
ATOM      1  C   UNL     1      -1.171  -2.696   0.302  0.00  0.00    +0.181 A 
ATOM      2  O   UNL     1      -0.575  -3.930   0.438  0.00  0.00    -0.451 OA
ATOM      3  C   UNL     1      -1.215  -5.081   0.091  0.00  0.00    +0.147 A 
ATOM      4  C   UNL     1      -2.535  -5.116  -0.280  0.00  0.00    +0.109 A 
ATOM      5  C   UNL     1      -3.099  -6.379  -0.550  0.00  0.00    +0.135 A 
ATOM      6  C   UNL     1      -2.308  -7.555  -0.549  0.00  0.00    +0.092 A 
ATOM      7  C   UNL     1      -0.944  -7.488  -0.258  0.00  0.00    +0.131 A 
ATOM      8  C   UNL     1      -3.236  -3.798  -0.383  0.00  0.00    +0.238 A 
ATOM      9  O   UNL     1      -4.433  -3.783  -0.660  0.00  0.00    -0.283 OA
ATOM     10  C   UNL     1      -0.433  -6.247   0.130  0.00  0.00    +0.093 A 
ATOM     11  C   UNL     1      -2.436  -2.530  -0.151  0.00  0.00    +0.214 A 
ENDROOT
BRANCH   1  13
ATOM     12  C   UNL     1       1.102  -1.998   0.948  0.00  0.00    +0.015 A 
ATOM     13  C   UNL     1      -0.251  -1.621   0.812  0.00  0.00    +0.025 A 
ATOM     14  C   UNL     1      -0.580  -0.341   1.276  0.00  0.00    +0.060 A 
ATOM     15  C   UNL     1       0.384   0.461   1.935  0.00  0.00    +0.159 A 
ATOM     16  C   UNL     1       1.674  -0.003   2.206  0.00  0.00    +0.165 A 
ATOM     17  C   UNL     1       2.025  -1.212   1.628  0.00  0.00    +0.050 A 
BRANCH  15  18
ATOM     18  O   UNL     1      -0.003   1.715   2.320  0.00  0.00    -0.503 OA
ATOM     19  H   UNL     1       0.808   2.165   2.623  0.00  0.00    +0.292 HD
ENDBRANCH  15  18
BRANCH  16  20
ATOM     20  O   UNL     1       2.544   0.725   3.010  0.00  0.00    -0.457 OA
BRANCH  20  21
ATOM     21  C   UNL     1       3.370  -0.109   3.884  0.00  0.00    +0.339 C 
ATOM     22  O   UNL     1       3.339   0.324   5.262  0.00  0.00    -0.331 OA
ATOM     23  C   UNL     1       4.463   1.032   5.796  0.00  0.00    +0.179 C 
ATOM     24  C   UNL     1       5.803   0.365   5.455  0.00  0.00    +0.177 C 
ATOM     25  C   UNL     1       5.937   0.371   3.945  0.00  0.00    +0.180 C 
ATOM     26  C   UNL     1       4.795  -0.421   3.307  0.00  0.00    +0.214 C 
BRANCH  26  27
ATOM     27  O   UNL     1       4.900  -0.340   1.880  0.00  0.00    -0.383 OA
ATOM     28  H   UNL     1       5.200   0.553   1.637  0.00  0.00    +0.210 HD
ENDBRANCH  26  27
BRANCH  25  29
ATOM     29  O   UNL     1       7.208  -0.206   3.582  0.00  0.00    -0.386 OA
ATOM     30  H   UNL     1       7.115  -1.171   3.611  0.00  0.00    +0.210 HD
ENDBRANCH  25  29
BRANCH  24  31
ATOM     31  O   UNL     1       5.861  -0.997   5.902  0.00  0.00    -0.386 OA
ATOM     32  H   UNL     1       6.799  -1.189   6.091  0.00  0.00    +0.210 HD
ENDBRANCH  24  31
BRANCH  23  33
ATOM     33  C   UNL     1       4.283   1.142   7.328  0.00  0.00    +0.190 C 
BRANCH  33  34
ATOM     34  O   UNL     1       4.247  -0.125   7.980  0.00  0.00    -0.392 OA
ATOM     35  H   UNL     1       3.895  -0.763   7.329  0.00  0.00    +0.210 HD
ENDBRANCH  33  34
ENDBRANCH  23  33
ENDBRANCH  20  21
ENDBRANCH  16  20
ENDBRANCH   1  13
BRANCH   5  36
ATOM     36  O   UNL     1      -4.429  -6.546  -0.829  0.00  0.00    -0.506 OA
ATOM     37  H   UNL     1      -4.885  -5.682  -0.727  0.00  0.00    +0.292 HD
ENDBRANCH   5  36
BRANCH  11  38
ATOM     38  O   UNL     1      -3.066  -1.300  -0.121  0.00  0.00    -0.453 OA
BRANCH  38  39
ATOM     39  C   UNL     1      -3.513  -0.669  -1.343  0.00  0.00    +0.340 C 
ATOM     40  O   UNL     1      -2.919   0.636  -1.492  0.00  0.00    -0.331 OA
ATOM     41  C   UNL     1      -3.473   1.764  -0.757  0.00  0.00    +0.179 C 
ATOM     42  C   UNL     1      -4.819   1.599   0.002  0.00  0.00    +0.177 C 
ATOM     43  C   UNL     1      -5.338   0.168   0.050  0.00  0.00    +0.180 C 
ATOM     44  C   UNL     1      -5.040  -0.488  -1.304  0.00  0.00    +0.214 C 
BRANCH  44  45
ATOM     45  O   UNL     1      -5.821  -1.670  -1.458  0.00  0.00    -0.383 OA
ATOM     46  H   UNL     1      -5.232  -2.454  -1.456  0.00  0.00    +0.210 HD
ENDBRANCH  44  45
BRANCH  43  47
ATOM     47  O   UNL     1      -6.748   0.192   0.326  0.00  0.00    -0.386 OA
ATOM     48  H   UNL     1      -7.118  -0.551  -0.195  0.00  0.00    +0.210 HD
ENDBRANCH  43  47
BRANCH  42  49
ATOM     49  O   UNL     1      -5.868   2.397  -0.586  0.00  0.00    -0.386 OA
ATOM     50  H   UNL     1      -6.689   2.076  -0.149  0.00  0.00    +0.210 HD
ENDBRANCH  42  49
BRANCH  41  51
ATOM     51  C   UNL     1      -3.563   2.943  -1.763  0.00  0.00    +0.190 C 
BRANCH  51  52
ATOM     52  O   UNL     1      -2.297   3.172  -2.382  0.00  0.00    -0.392 OA
ATOM     53  H   UNL     1      -1.923   2.287  -2.540  0.00  0.00    +0.210 HD
ENDBRANCH  51  52
ENDBRANCH  41  51
ENDBRANCH  38  39
ENDBRANCH  11  38
BRANCH   7  54
ATOM     54  O   UNL     1      -0.167  -8.636  -0.428  0.00  0.00    -0.461 OA
BRANCH  54  55
ATOM     55  C   UNL     1       1.240  -8.347  -0.612  0.00  0.00    +0.339 C 
ATOM     56  O   UNL     1       1.420  -7.431  -1.695  0.00  0.00    -0.331 OA
ATOM     57  C   UNL     1       1.247  -8.046  -2.983  0.00  0.00    +0.179 C 
ATOM     58  C   UNL     1       2.438  -8.972  -3.224  0.00  0.00    +0.177 C 
ATOM     59  C   UNL     1       2.395 -10.094  -2.183  0.00  0.00    +0.180 C 
ATOM     60  C   UNL     1       2.219  -9.552  -0.751  0.00  0.00    +0.214 C 
BRANCH  60  61
ATOM     61  O   UNL     1       1.963 -10.617   0.171  0.00  0.00    -0.383 OA
ATOM     62  H   UNL     1       1.112 -11.028  -0.068  0.00  0.00    +0.210 HD
ENDBRANCH  60  61
BRANCH  59  63
ATOM     63  O   UNL     1       3.612 -10.856  -2.317  0.00  0.00    -0.386 OA
ATOM     64  H   UNL     1       4.164 -10.697  -1.528  0.00  0.00    +0.210 HD
ENDBRANCH  59  63
BRANCH  58  65
ATOM     65  O   UNL     1       3.668  -8.242  -3.091  0.00  0.00    -0.386 OA
ATOM     66  H   UNL     1       4.385  -8.896  -3.199  0.00  0.00    +0.210 HD
ENDBRANCH  58  65
BRANCH  57  67
ATOM     67  C   UNL     1       1.150  -6.939  -4.037  0.00  0.00    +0.190 C 
BRANCH  67  68
ATOM     68  O   UNL     1      -0.076  -6.208  -3.904  0.00  0.00    -0.392 OA
ATOM     69  H   UNL     1      -0.810  -6.846  -3.899  0.00  0.00    +0.210 HD
ENDBRANCH  67  68
ENDBRANCH  57  67
ENDBRANCH  54  55
ENDBRANCH   7  54
TORSDOF 24
