REMARK  Name = 
REMARK  15 active torsions:
REMARK  status: ('A' for Active; 'I' for Inactive)
REMARK    1  A    between atoms: C_1  and  C_2
REMARK    2  A    between atoms: C_3  and  O_47
REMARK    3  A    between atoms: C_5  and  O_46
REMARK    4  A    between atoms: C_6  and  O_45
REMARK    5  A    between atoms: C_8  and  O_11
REMARK    6  A    between atoms: O_11  and  C_12
REMARK    7  A    between atoms: C_13  and  C_37
REMARK    8  A    between atoms: C_17  and  O_24
REMARK    9  A    between atoms: C_19  and  O_23
REMARK   10  A    between atoms: O_24  and  C_25
REMARK   11  A    between atoms: C_27  and  O_36
REMARK   12  A    between atoms: C_28  and  O_35
REMARK   13  A    between atoms: C_30  and  O_34
REMARK   14  A    between atoms: C_39  and  O_44
REMARK   15  A    between atoms: C_40  and  O_43
REMARK                            x       y       z     vdW  Elec       q    Type
REMARK                         _______ _______ _______ _____ _____    ______ ____
ROOT
ATOM      1  C   UNL     1       2.784   2.887  -3.269  0.00  0.00    +0.214 A 
ATOM      2  C   UNL     1       1.388   3.392  -3.092  0.00  0.00    +0.238 A 
ATOM      3  O   UNL     1       0.403   2.705  -3.326  0.00  0.00    -0.283 OA
ATOM      4  C   UNL     1       1.209   4.820  -2.787  0.00  0.00    +0.109 A 
ATOM      5  C   UNL     1       2.284   5.666  -3.021  0.00  0.00    +0.147 A 
ATOM      6  C   UNL     1       2.121   7.055  -2.899  0.00  0.00    +0.093 A 
ATOM      7  C   UNL     1       0.878   7.594  -2.538  0.00  0.00    +0.131 A 
ATOM      8  C   UNL     1      -0.194   6.736  -2.289  0.00  0.00    +0.092 A 
ATOM      9  O   UNL     1       3.520   5.203  -3.405  0.00  0.00    -0.451 OA
ATOM     10  C   UNL     1      -0.025   5.357  -2.390  0.00  0.00    +0.135 A 
ATOM     11  C   UNL     1       3.734   3.829  -3.451  0.00  0.00    +0.181 A 
ENDROOT
BRANCH  11  12
ATOM     12  C   UNL     1       5.123   3.475  -3.825  0.00  0.00    +0.025 A 
ATOM     13  C   UNL     1       6.100   3.210  -2.851  0.00  0.00    +0.015 A 
ATOM     14  C   UNL     1       7.407   2.855  -3.225  0.00  0.00    +0.050 A 
ATOM     15  C   UNL     1       7.727   2.763  -4.570  0.00  0.00    +0.158 A 
ATOM     16  C   UNL     1       6.772   3.032  -5.546  0.00  0.00    +0.159 A 
ATOM     17  C   UNL     1       5.472   3.385  -5.184  0.00  0.00    +0.060 A 
BRANCH  15  18
ATOM     18  O   UNL     1       8.998   2.402  -4.939  0.00  0.00    -0.503 OA
ATOM     19  H   UNL     1       8.971   2.380  -5.915  0.00  0.00    +0.292 HD
ENDBRANCH  15  18
BRANCH  16  20
ATOM     20  O   UNL     1       7.162   2.924  -6.854  0.00  0.00    -0.503 OA
ATOM     21  H   UNL     1       6.404   3.153  -7.417  0.00  0.00    +0.292 HD
ENDBRANCH  16  20
ENDBRANCH  11  12
BRANCH  10  22
ATOM     22  O   UNL     1      -1.076   4.543  -2.076  0.00  0.00    -0.506 OA
ATOM     23  H   UNL     1      -1.884   5.063  -1.943  0.00  0.00    +0.292 HD
ENDBRANCH  10  22
BRANCH   1  24
ATOM     24  O   UNL     1       3.091   1.534  -3.355  0.00  0.00    -0.453 OA
BRANCH  24  28
ATOM     25  C   UNL     1      -0.836   0.188  -2.094  0.00  0.00    +0.041 C 
ATOM     26  C   UNL     1       0.480  -0.237  -1.443  0.00  0.00    +0.150 C 
ATOM     27  O   UNL     1       1.568   0.651  -1.752  0.00  0.00    -0.334 OA
ATOM     28  C   UNL     1       2.038   0.588  -3.106  0.00  0.00    +0.339 C 
ATOM     29  C   UNL     1       2.553  -0.828  -3.431  0.00  0.00    +0.214 C 
ATOM     30  C   UNL     1       1.415  -1.828  -3.190  0.00  0.00    +0.180 C 
ATOM     31  C   UNL     1       0.849  -1.692  -1.768  0.00  0.00    +0.174 C 
BRANCH  29  32
ATOM     32  O   UNL     1       3.677  -1.187  -2.602  0.00  0.00    -0.383 OA
ATOM     33  H   UNL     1       3.993  -2.040  -2.956  0.00  0.00    +0.210 HD
ENDBRANCH  29  32
BRANCH  30  34
ATOM     34  O   UNL     1       1.916  -3.161  -3.381  0.00  0.00    -0.386 OA
ATOM     35  H   UNL     1       2.161  -3.475  -2.485  0.00  0.00    +0.210 HD
ENDBRANCH  30  34
BRANCH  31  36
ATOM     36  O   UNL     1       1.853  -2.155  -0.843  0.00  0.00    -0.387 OA
ATOM     37  H   UNL     1       2.600  -1.518  -0.916  0.00  0.00    +0.210 HD
ENDBRANCH  31  36
ENDBRANCH  24  28
ENDBRANCH   1  24
BRANCH   7  38
ATOM     38  O   UNL     1       0.569   8.923  -2.384  0.00  0.00    -0.461 OA
BRANCH  38  39
ATOM     39  C   UNL     1       1.674   9.835  -2.317  0.00  0.00    +0.339 C 
ATOM     40  O   UNL     1       2.473   9.611  -1.149  0.00  0.00    -0.337 OA
ATOM     41  C   UNL     1       1.775   9.881   0.071  0.00  0.00    +0.198 C 
ATOM     42  C   UNL     1       1.405  11.361   0.146  0.00  0.00    +0.171 C 
ATOM     43  C   UNL     1       0.513  11.733  -1.045  0.00  0.00    +0.180 C 
ATOM     44  C   UNL     1       1.164  11.301  -2.363  0.00  0.00    +0.214 C 
BRANCH  42  45
ATOM     45  O   UNL     1       0.751  11.658   1.375  0.00  0.00    -0.387 OA
ATOM     46  H   UNL     1      -0.210  11.634   1.204  0.00  0.00    +0.210 HD
ENDBRANCH  42  45
BRANCH  43  47
ATOM     47  O   UNL     1      -0.794  11.142  -0.897  0.00  0.00    -0.386 OA
ATOM     48  H   UNL     1      -0.732  10.185  -1.085  0.00  0.00    +0.210 HD
ENDBRANCH  43  47
BRANCH  44  49
ATOM     49  O   UNL     1       0.266  11.524  -3.456  0.00  0.00    -0.383 OA
ATOM     50  H   UNL     1      -0.634  11.340  -3.120  0.00  0.00    +0.210 HD
ENDBRANCH  44  49
ENDBRANCH  38  39
ENDBRANCH   7  38
TORSDOF 14
