REMARK  Name = 
REMARK  17 active torsions:
REMARK  status: ('A' for Active; 'I' for Inactive)
REMARK    1  A    between atoms: C_1  and  O_2
REMARK    2  A    between atoms: O_2  and  C_3
REMARK    3  A    between atoms: C_4  and  O_48
REMARK    4  A    between atoms: C_7  and  C_9
REMARK    5  A    between atoms: C_10  and  O_22
REMARK    6  A    between atoms: C_14  and  O_21
REMARK    7  A    between atoms: C_16  and  O_20
REMARK    8  A    between atoms: O_22  and  C_23
REMARK    9  A    between atoms: C_25  and  O_35
REMARK   10  A    between atoms: C_26  and  O_34
REMARK   11  A    between atoms: C_27  and  O_33
REMARK   12  A    between atoms: C_29  and  C_31
REMARK   13  A    between atoms: C_31  and  O_32
REMARK   14  A    between atoms: O_35  and  C_36
REMARK   15  A    between atoms: C_38  and  O_47
REMARK   16  A    between atoms: C_40  and  O_46
REMARK   17  A    between atoms: C_41  and  O_45
REMARK                            x       y       z     vdW  Elec       q    Type
REMARK                         _______ _______ _______ _____ _____    ______ ____
ROOT
ATOM      1  O   UNL     1       3.417  -1.242  -4.464  0.00  0.00    -0.453 OA
ENDROOT
BRANCH   1  12
ATOM      2  C   UNL     1       4.039  -3.333  -5.644  0.00  0.00    +0.181 A 
ATOM      3  O   UNL     1       4.785  -3.778  -6.788  0.00  0.00    -0.451 OA
ATOM      4  C   UNL     1       5.530  -2.855  -7.518  0.00  0.00    +0.147 A 
ATOM      5  C   UNL     1       5.321  -1.496  -7.423  0.00  0.00    +0.109 A 
ATOM      6  C   UNL     1       6.107  -0.530  -8.096  0.00  0.00    +0.135 A 
ATOM      7  C   UNL     1       7.119  -0.954  -8.938  0.00  0.00    +0.091 A 
ATOM      8  C   UNL     1       7.302  -2.326  -9.106  0.00  0.00    +0.124 A 
ATOM      9  C   UNL     1       4.256  -1.066  -6.550  0.00  0.00    +0.238 A 
ATOM     10  O   UNL     1       3.814   0.076  -6.637  0.00  0.00    -0.283 OA
ATOM     11  C   UNL     1       6.523  -3.276  -8.413  0.00  0.00    +0.092 A 
ATOM     12  C   UNL     1       3.859  -2.000  -5.457  0.00  0.00    +0.214 A 
BRANCH   2  15
ATOM     13  C   UNL     1       2.620  -5.211  -2.544  0.00  0.00    +0.162 A 
ATOM     14  C   UNL     1       2.774  -4.249  -3.555  0.00  0.00    +0.061 A 
ATOM     15  C   UNL     1       3.560  -4.457  -4.719  0.00  0.00    +0.025 A 
ATOM     16  C   UNL     1       3.884  -5.804  -4.967  0.00  0.00    +0.015 A 
ATOM     17  C   UNL     1       3.616  -6.822  -4.024  0.00  0.00    +0.050 A 
ATOM     18  C   UNL     1       3.065  -6.498  -2.794  0.00  0.00    +0.158 A 
BRANCH  18  19
ATOM     19  O   UNL     1       2.941  -7.465  -1.832  0.00  0.00    -0.503 OA
ATOM     20  H   UNL     1       2.602  -6.999  -1.044  0.00  0.00    +0.292 HD
ENDBRANCH  18  19
BRANCH  13  22
ATOM     21  C   UNL     1       1.364  -3.867  -0.975  0.00  0.00    +0.277 C 
ATOM     22  O   UNL     1       2.115  -5.032  -1.282  0.00  0.00    -0.491 OA
ENDBRANCH  13  22
ENDBRANCH   2  15
BRANCH   8  23
ATOM     23  O   UNL     1       8.264  -2.766  -9.969  0.00  0.00    -0.507 OA
ATOM     24  H   UNL     1       8.716  -1.995 -10.356  0.00  0.00    +0.292 HD
ENDBRANCH   8  23
BRANCH   6  25
ATOM     25  O   UNL     1       5.953   0.818  -7.958  0.00  0.00    -0.506 OA
ATOM     26  H   UNL     1       5.178   0.971  -7.364  0.00  0.00    +0.292 HD
ENDBRANCH   6  25
ENDBRANCH   1  12
BRANCH   1  27
ATOM     27  C   UNL     1       3.109  -1.183  -3.105  0.00  0.00    +0.340 C 
ATOM     28  O   UNL     1       1.676  -1.116  -2.995  0.00  0.00    -0.331 OA
ATOM     29  C   UNL     1       1.096  -0.095  -3.850  0.00  0.00    +0.179 C 
ATOM     30  C   UNL     1       1.702   1.298  -3.593  0.00  0.00    +0.177 C 
ATOM     31  C   UNL     1       3.243   1.250  -3.531  0.00  0.00    +0.180 C 
ATOM     32  C   UNL     1       3.694   0.129  -2.551  0.00  0.00    +0.221 C 
BRANCH  31  33
ATOM     33  O   UNL     1       3.727   2.546  -3.179  0.00  0.00    -0.386 OA
ATOM     34  H   UNL     1       3.912   3.017  -4.014  0.00  0.00    +0.210 HD
ENDBRANCH  31  33
BRANCH  30  35
ATOM     35  O   UNL     1       1.214   1.843  -2.361  0.00  0.00    -0.386 OA
ATOM     36  H   UNL     1       1.720   2.668  -2.217  0.00  0.00    +0.210 HD
ENDBRANCH  30  35
BRANCH  32  37
ATOM     37  O   UNL     1       5.086   0.021  -2.162  0.00  0.00    -0.337 OA
BRANCH  37  38
ATOM     38  C   UNL     1       6.128  -0.221  -3.098  0.00  0.00    +0.282 C 
ATOM     39  O   UNL     1       7.341  -0.597  -2.411  0.00  0.00    -0.346 OA
ATOM     40  C   UNL     1       7.867   0.391  -1.510  0.00  0.00    +0.197 C 
ATOM     41  C   UNL     1       7.974   1.806  -2.098  0.00  0.00    +0.171 C 
ATOM     42  C   UNL     1       6.751   2.157  -2.941  0.00  0.00    +0.178 C 
ATOM     43  C   UNL     1       6.438   1.022  -3.929  0.00  0.00    +0.201 C 
BRANCH  43  44
ATOM     44  O   UNL     1       7.515   0.816  -4.854  0.00  0.00    -0.384 OA
ATOM     45  H   UNL     1       8.332   0.694  -4.319  0.00  0.00    +0.210 HD
ENDBRANCH  43  44
BRANCH  42  46
ATOM     46  O   UNL     1       6.985   3.387  -3.645  0.00  0.00    -0.386 OA
ATOM     47  H   UNL     1       6.910   3.189  -4.597  0.00  0.00    +0.210 HD
ENDBRANCH  42  46
BRANCH  41  48
ATOM     48  O   UNL     1       9.128   1.904  -2.951  0.00  0.00    -0.387 OA
ATOM     49  H   UNL     1       9.049   2.796  -3.355  0.00  0.00    +0.210 HD
ENDBRANCH  41  48
ENDBRANCH  37  38
ENDBRANCH  32  37
BRANCH  29  50
ATOM     50  C   UNL     1      -0.425  -0.119  -3.653  0.00  0.00    +0.190 C 
BRANCH  50  51
ATOM     51  O   UNL     1      -0.984  -1.372  -4.065  0.00  0.00    -0.392 OA
ATOM     52  H   UNL     1      -0.252  -1.970  -4.294  0.00  0.00    +0.210 HD
ENDBRANCH  50  51
ENDBRANCH  29  50
ENDBRANCH   1  27
TORSDOF 16
