REMARK  Name = 
REMARK  12 active torsions:
REMARK  status: ('A' for Active; 'I' for Inactive)
REMARK    1  A    between atoms: C_3  and  O_36
REMARK    2  A    between atoms: C_4  and  O_35
REMARK    3  A    between atoms: C_6  and  C_7
REMARK    4  A    between atoms: C_8  and  O_34
REMARK    5  A    between atoms: C_12  and  O_33
REMARK    6  A    between atoms: C_14  and  O_18
REMARK    7  A    between atoms: O_18  and  C_19
REMARK    8  A    between atoms: C_21  and  O_32
REMARK    9  A    between atoms: C_22  and  O_31
REMARK   10  A    between atoms: C_24  and  O_30
REMARK   11  A    between atoms: C_26  and  C_28
REMARK   12  A    between atoms: C_28  and  O_29
REMARK                            x       y       z     vdW  Elec       q    Type
REMARK                         _______ _______ _______ _____ _____    ______ ____
ROOT
ATOM      1  C   UNL     1      -1.396  -2.564  -0.184  0.00  0.00    +0.181 A 
ATOM      2  O   UNL     1      -0.663  -3.747   0.029  0.00  0.00    -0.451 OA
ATOM      3  C   UNL     1      -1.296  -4.971  -0.147  0.00  0.00    +0.147 A 
ATOM      4  C   UNL     1      -2.648  -5.050  -0.451  0.00  0.00    +0.109 A 
ATOM      5  C   UNL     1      -3.269  -6.284  -0.604  0.00  0.00    +0.135 A 
ATOM      6  C   UNL     1      -2.545  -7.451  -0.441  0.00  0.00    +0.092 A 
ATOM      7  C   UNL     1      -1.183  -7.422  -0.105  0.00  0.00    +0.131 A 
ATOM      8  C   UNL     1      -3.425  -3.827  -0.631  0.00  0.00    +0.238 A 
ATOM      9  O   UNL     1      -4.629  -3.891  -0.863  0.00  0.00    -0.283 OA
ATOM     10  C   UNL     1      -0.552  -6.164   0.014  0.00  0.00    +0.093 A 
ATOM     11  C   UNL     1      -2.696  -2.551  -0.556  0.00  0.00    +0.208 A 
ENDROOT
BRANCH   1  13
ATOM     12  C   UNL     1      -1.249  -0.104   0.439  0.00  0.00    +0.015 A 
ATOM     13  C   UNL     1      -0.624  -1.294  -0.013  0.00  0.00    +0.025 A 
ATOM     14  C   UNL     1       0.738  -1.223  -0.332  0.00  0.00    +0.060 A 
ATOM     15  C   UNL     1       1.400   0.005  -0.293  0.00  0.00    +0.159 A 
ATOM     16  C   UNL     1       0.737   1.179   0.054  0.00  0.00    +0.158 A 
ATOM     17  C   UNL     1      -0.591   1.132   0.439  0.00  0.00    +0.050 A 
BRANCH  15  18
ATOM     18  O   UNL     1       2.724   0.060  -0.628  0.00  0.00    -0.503 OA
ATOM     19  H   UNL     1       2.967   1.002  -0.526  0.00  0.00    +0.292 HD
ENDBRANCH  15  18
BRANCH  16  20
ATOM     20  O   UNL     1       1.432   2.354  -0.001  0.00  0.00    -0.503 OA
ATOM     21  H   UNL     1       0.813   3.087   0.162  0.00  0.00    +0.292 HD
ENDBRANCH  16  20
ENDBRANCH   1  13
BRANCH   5  22
ATOM     22  O   UNL     1      -4.598  -6.438  -0.900  0.00  0.00    -0.506 OA
ATOM     23  H   UNL     1      -5.007  -5.544  -0.954  0.00  0.00    +0.292 HD
ENDBRANCH   5  22
BRANCH  11  24
ATOM     24  O   UNL     1      -3.427  -1.429  -0.907  0.00  0.00    -0.501 OA
ATOM     25  H   UNL     1      -2.832  -0.811  -1.359  0.00  0.00    +0.292 HD
ENDBRANCH  11  24
BRANCH   7  26
ATOM     26  O   UNL     1      -0.439  -8.572   0.148  0.00  0.00    -0.461 OA
BRANCH  26  27
ATOM     27  C   UNL     1      -1.259  -9.740   0.406  0.00  0.00    +0.339 C 
ATOM     28  O   UNL     1      -2.063  -9.531   1.578  0.00  0.00    -0.331 OA
ATOM     29  C   UNL     1      -1.281  -9.568   2.780  0.00  0.00    +0.179 C 
ATOM     30  C   UNL     1      -0.886 -11.031   3.007  0.00  0.00    +0.177 C 
ATOM     31  C   UNL     1       0.032 -11.480   1.859  0.00  0.00    +0.180 C 
ATOM     32  C   UNL     1      -0.541 -11.117   0.483  0.00  0.00    +0.214 C 
BRANCH  30  33
ATOM     33  O   UNL     1      -0.244 -11.231   4.269  0.00  0.00    -0.386 OA
ATOM     34  H   UNL     1       0.722 -11.199   4.091  0.00  0.00    +0.210 HD
ENDBRANCH  30  33
BRANCH  31  35
ATOM     35  O   UNL     1       1.351 -10.928   2.034  0.00  0.00    -0.386 OA
ATOM     36  H   UNL     1       1.364 -10.029   1.669  0.00  0.00    +0.210 HD
ENDBRANCH  31  35
BRANCH  32  37
ATOM     37  O   UNL     1       0.420 -11.296  -0.557  0.00  0.00    -0.383 OA
ATOM     38  H   UNL     1       1.271 -11.534  -0.141  0.00  0.00    +0.210 HD
ENDBRANCH  32  37
BRANCH  29  39
ATOM     39  C   UNL     1      -2.101  -8.969   3.930  0.00  0.00    +0.190 C 
BRANCH  39  40
ATOM     40  O   UNL     1      -1.410  -9.011   5.172  0.00  0.00    -0.392 OA
ATOM     41  H   UNL     1      -1.103  -9.935   5.293  0.00  0.00    +0.210 HD
ENDBRANCH  39  40
ENDBRANCH  29  39
ENDBRANCH  26  27
ENDBRANCH   7  26
TORSDOF 12
