REMARK  Name = 
REMARK  17 active torsions:
REMARK  status: ('A' for Active; 'I' for Inactive)
REMARK    1  A    between atoms: C_1  and  O_2
REMARK    2  A    between atoms: O_2  and  C_3
REMARK    3  A    between atoms: C_4  and  O_48
REMARK    4  A    between atoms: C_7  and  C_9
REMARK    5  A    between atoms: C_10  and  O_22
REMARK    6  A    between atoms: C_14  and  O_21
REMARK    7  A    between atoms: C_16  and  O_20
REMARK    8  A    between atoms: O_22  and  C_23
REMARK    9  A    between atoms: C_25  and  O_47
REMARK   10  A    between atoms: C_26  and  O_46
REMARK   11  A    between atoms: C_27  and  O_45
REMARK   12  A    between atoms: C_29  and  C_31
REMARK   13  A    between atoms: C_31  and  O_32
REMARK   14  A    between atoms: O_32  and  C_33
REMARK   15  A    between atoms: C_35  and  O_44
REMARK   16  A    between atoms: C_36  and  O_43
REMARK   17  A    between atoms: C_38  and  O_42
REMARK                            x       y       z     vdW  Elec       q    Type
REMARK                         _______ _______ _______ _____ _____    ______ ____
ROOT
ATOM      1  O   UNL     1       4.508  -3.270   2.581  0.00  0.00    -0.453 OA
ENDROOT
BRANCH   1  12
ATOM      2  C   UNL     1       6.444  -4.689   2.553  0.00  0.00    +0.181 A 
ATOM      3  O   UNL     1       7.294  -5.663   2.043  0.00  0.00    -0.451 OA
ATOM      4  C   UNL     1       6.976  -6.265   0.858  0.00  0.00    +0.147 A 
ATOM      5  C   UNL     1       5.721  -6.153   0.287  0.00  0.00    +0.109 A 
ATOM      6  C   UNL     1       5.428  -6.914  -0.855  0.00  0.00    +0.135 A 
ATOM      7  C   UNL     1       6.403  -7.720  -1.450  0.00  0.00    +0.091 A 
ATOM      8  C   UNL     1       7.679  -7.758  -0.900  0.00  0.00    +0.124 A 
ATOM      9  C   UNL     1       4.756  -5.218   0.907  0.00  0.00    +0.238 A 
ATOM     10  O   UNL     1       3.607  -5.216   0.480  0.00  0.00    -0.283 OA
ATOM     11  C   UNL     1       7.971  -7.045   0.257  0.00  0.00    +0.092 A 
ATOM     12  C   UNL     1       5.234  -4.334   2.026  0.00  0.00    +0.214 A 
BRANCH   2  15
ATOM     13  C   UNL     1       8.049  -1.977   4.605  0.00  0.00    +0.162 A 
ATOM     14  C   UNL     1       7.279  -2.637   3.653  0.00  0.00    +0.061 A 
ATOM     15  C   UNL     1       7.103  -4.022   3.703  0.00  0.00    +0.025 A 
ATOM     16  C   UNL     1       7.710  -4.751   4.744  0.00  0.00    +0.015 A 
ATOM     17  C   UNL     1       8.458  -4.095   5.726  0.00  0.00    +0.050 A 
ATOM     18  C   UNL     1       8.626  -2.719   5.640  0.00  0.00    +0.158 A 
BRANCH  18  19
ATOM     19  O   UNL     1       9.399  -2.094   6.580  0.00  0.00    -0.503 OA
ATOM     20  H   UNL     1       9.432  -1.158   6.300  0.00  0.00    +0.292 HD
ENDBRANCH  18  19
BRANCH  13  22
ATOM     21  C   UNL     1       7.721   0.159   3.604  0.00  0.00    +0.277 C 
ATOM     22  O   UNL     1       8.362  -0.644   4.588  0.00  0.00    -0.491 OA
ENDBRANCH  13  22
ENDBRANCH   2  15
BRANCH   8  23
ATOM     23  O   UNL     1       8.679  -8.494  -1.463  0.00  0.00    -0.507 OA
ATOM     24  H   UNL     1       8.338  -8.946  -2.254  0.00  0.00    +0.292 HD
ENDBRANCH   8  23
BRANCH   6  25
ATOM     25  O   UNL     1       4.196  -6.923  -1.452  0.00  0.00    -0.506 OA
ATOM     26  H   UNL     1       3.592  -6.368  -0.910  0.00  0.00    +0.292 HD
ENDBRANCH   6  25
ENDBRANCH   1  12
BRANCH   1  27
ATOM     27  C   UNL     1       3.436  -2.600   1.860  0.00  0.00    +0.340 C 
ATOM     28  O   UNL     1       3.801  -1.298   1.341  0.00  0.00    -0.331 OA
ATOM     29  C   UNL     1       4.104  -0.284   2.313  0.00  0.00    +0.179 C 
ATOM     30  C   UNL     1       3.072  -0.159   3.449  0.00  0.00    +0.177 C 
ATOM     31  C   UNL     1       2.494  -1.500   3.939  0.00  0.00    +0.180 C 
ATOM     32  C   UNL     1       2.191  -2.440   2.765  0.00  0.00    +0.214 C 
BRANCH  32  33
ATOM     33  O   UNL     1       1.701  -3.708   3.221  0.00  0.00    -0.383 OA
ATOM     34  H   UNL     1       2.202  -3.964   4.013  0.00  0.00    +0.210 HD
ENDBRANCH  32  33
BRANCH  31  35
ATOM     35  O   UNL     1       1.275  -1.265   4.678  0.00  0.00    -0.386 OA
ATOM     36  H   UNL     1       1.321  -0.412   5.142  0.00  0.00    +0.210 HD
ENDBRANCH  31  35
BRANCH  30  37
ATOM     37  O   UNL     1       3.663   0.556   4.547  0.00  0.00    -0.386 OA
ATOM     38  H   UNL     1       3.431   0.122   5.387  0.00  0.00    +0.210 HD
ENDBRANCH  30  37
BRANCH  29  39
ATOM     39  C   UNL     1       4.513   1.064   1.574  0.00  0.00    +0.197 C 
BRANCH  39  40
ATOM     40  O   UNL     1       3.525   1.907   0.913  0.00  0.00    -0.346 OA
BRANCH  40  41
ATOM     41  C   UNL     1       3.175   3.076   1.684  0.00  0.00    +0.281 C 
ATOM     42  O   UNL     1       2.225   2.682   2.669  0.00  0.00    -0.346 OA
ATOM     43  C   UNL     1       1.031   2.199   2.043  0.00  0.00    +0.197 C 
ATOM     44  C   UNL     1       0.253   3.345   1.433  0.00  0.00    +0.171 C 
ATOM     45  C   UNL     1       1.120   4.116   0.431  0.00  0.00    +0.178 C 
ATOM     46  C   UNL     1       2.571   4.305   0.915  0.00  0.00    +0.201 C 
BRANCH  46  47
ATOM     47  O   UNL     1       3.407   4.776  -0.145  0.00  0.00    -0.384 OA
ATOM     48  H   UNL     1       2.974   4.527  -0.985  0.00  0.00    +0.210 HD
ENDBRANCH  46  47
BRANCH  45  49
ATOM     49  O   UNL     1       1.090   3.471  -0.859  0.00  0.00    -0.386 OA
ATOM     50  H   UNL     1       1.639   2.657  -0.785  0.00  0.00    +0.210 HD
ENDBRANCH  45  49
BRANCH  44  51
ATOM     51  O   UNL     1      -0.929   2.846   0.808  0.00  0.00    -0.387 OA
ATOM     52  H   UNL     1      -0.742   2.803  -0.151  0.00  0.00    +0.210 HD
ENDBRANCH  44  51
ENDBRANCH  40  41
ENDBRANCH  39  40
ENDBRANCH  29  39
ENDBRANCH   1  27
TORSDOF 16
