REMARK  Name = 
REMARK  40 active torsions:
REMARK  status: ('A' for Active; 'I' for Inactive)
REMARK    1  A    between atoms: C_1  and  O_2
REMARK    2  A    between atoms: O_2  and  C_3
REMARK    3  A    between atoms: C_5  and  C_12
REMARK    4  A    between atoms: C_7  and  O_10
REMARK    5  A    between atoms: C_8  and  O_9
REMARK    6  A    between atoms: O_10  and  C_11
REMARK    7  A    between atoms: C_13  and  C_14
REMARK    8  A    between atoms: C_14  and  O_16
REMARK    9  A    between atoms: O_16  and  C_17
REMARK   10  A    between atoms: C_17  and  C_18
REMARK   11  A    between atoms: C_20  and  O_94
REMARK   12  A    between atoms: C_22  and  O_93
REMARK   13  A    between atoms: C_23  and  O_92
REMARK   14  A    between atoms: C_24  and  O_27
REMARK   15  A    between atoms: O_27  and  C_28
REMARK   16  A    between atoms: C_29  and  O_77
REMARK   17  A    between atoms: C_32  and  C_34
REMARK   18  A    between atoms: C_35  and  O_47
REMARK   19  A    between atoms: C_39  and  O_46
REMARK   20  A    between atoms: C_41  and  O_45
REMARK   21  A    between atoms: O_47  and  C_48
REMARK   22  A    between atoms: C_50  and  O_61
REMARK   23  A    between atoms: C_51  and  O_60
REMARK   24  A    between atoms: C_53  and  O_59
REMARK   25  A    between atoms: C_55  and  C_57
REMARK   26  A    between atoms: C_57  and  O_58
REMARK   27  A    between atoms: O_61  and  C_62
REMARK   28  A    between atoms: C_62  and  C_64
REMARK   29  A    between atoms: C_65  and  C_66
REMARK   30  A    between atoms: C_68  and  O_75
REMARK   31  A    between atoms: C_69  and  O_74
REMARK   32  A    between atoms: C_70  and  O_72
REMARK   33  A    between atoms: O_72  and  C_73
REMARK   34  A    between atoms: O_75  and  C_76
REMARK   35  A    between atoms: O_77  and  C_78
REMARK   36  A    between atoms: C_80  and  O_91
REMARK   37  A    between atoms: C_81  and  O_90
REMARK   38  A    between atoms: C_82  and  O_89
REMARK   39  A    between atoms: C_84  and  C_87
REMARK   40  A    between atoms: C_87  and  O_88
REMARK                            x       y       z     vdW  Elec       q    Type
REMARK                         _______ _______ _______ _____ _____    ______ ____
ROOT
ATOM      1  C   UNL     1       3.009  10.633  -7.805  0.00  0.00    +0.166 A 
ATOM      2  C   UNL     1       3.782  10.593  -6.568  0.00  0.00    +0.061 A 
ATOM      3  C   UNL     1       4.525  11.684  -6.110  0.00  0.00    +0.025 A 
ATOM      4  C   UNL     1       4.456  12.760  -7.019  0.00  0.00    +0.015 A 
ATOM      5  C   UNL     1       3.461  12.907  -8.046  0.00  0.00    +0.050 A 
ATOM      6  C   UNL     1       2.663  11.851  -8.448  0.00  0.00    +0.166 A 
ENDROOT
BRANCH   3   7
ATOM      7  C   UNL     1       5.392  11.764  -4.800  0.00  0.00    +0.181 A 
ATOM      8  O   UNL     1       5.563  10.556  -4.037  0.00  0.00    -0.451 OA
ATOM      9  C   UNL     1       6.138  10.656  -2.750  0.00  0.00    +0.147 A 
ATOM     10  C   UNL     1       6.965  11.718  -2.410  0.00  0.00    +0.109 A 
ATOM     11  C   UNL     1       7.644  11.804  -1.180  0.00  0.00    +0.135 A 
ATOM     12  C   UNL     1       7.446  10.835  -0.217  0.00  0.00    +0.091 A 
ATOM     13  C   UNL     1       6.565   9.798  -0.496  0.00  0.00    +0.124 A 
ATOM     14  C   UNL     1       7.019  12.831  -3.337  0.00  0.00    +0.238 A 
ATOM     15  O   UNL     1       7.904  13.680  -3.272  0.00  0.00    -0.283 OA
ATOM     16  C   UNL     1       5.918   9.692  -1.756  0.00  0.00    +0.092 A 
ATOM     17  C   UNL     1       5.838  12.927  -4.234  0.00  0.00    +0.214 A 
BRANCH  11  18
ATOM     18  O   UNL     1       8.475  12.835  -0.831  0.00  0.00    -0.506 OA
ATOM     19  H   UNL     1       8.502  13.473  -1.602  0.00  0.00    +0.292 HD
ENDBRANCH  11  18
BRANCH  13  20
ATOM     20  O   UNL     1       6.323   8.850   0.472  0.00  0.00    -0.507 OA
ATOM     21  H   UNL     1       6.866   9.066   1.271  0.00  0.00    +0.292 HD
ENDBRANCH  13  20
BRANCH  17  22
ATOM     22  O   UNL     1       5.229  14.165  -4.162  0.00  0.00    -0.452 OA
BRANCH  22  23
ATOM     23  C   UNL     1       3.846  14.157  -4.432  0.00  0.00    +0.352 C 
ATOM     24  O   UNL     1       3.703  14.844  -5.668  0.00  0.00    -0.330 OA
ATOM     25  C   UNL     1       3.619  16.262  -5.670  0.00  0.00    +0.179 C 
ATOM     26  C   UNL     1       2.355  16.563  -4.861  0.00  0.00    +0.178 C 
ATOM     27  C   UNL     1       2.570  16.079  -3.383  0.00  0.00    +0.192 C 
ATOM     28  C   UNL     1       2.831  14.561  -3.337  0.00  0.00    +0.276 C 
BRANCH  26  29
ATOM     29  O   UNL     1       1.274  15.840  -5.484  0.00  0.00    -0.386 OA
ATOM     30  H   UNL     1       0.425  16.150  -5.135  0.00  0.00    +0.210 HD
ENDBRANCH  26  29
BRANCH  27  31
ATOM     31  O   UNL     1       3.614  16.834  -2.769  0.00  0.00    -0.385 OA
ATOM     32  H   UNL     1       4.461  16.350  -2.856  0.00  0.00    +0.210 HD
ENDBRANCH  27  31
BRANCH  28  33
ATOM     33  O   UNL     1       2.785  13.865  -2.013  0.00  0.00    -0.449 OA
BRANCH  33  34
ATOM     34  C   UNL     1       3.811  13.759  -1.126  0.00  0.00    +0.332 C 
ATOM     35  O   UNL     1       4.935  14.202  -1.326  0.00  0.00    -0.246 OA
BRANCH  34  36
ATOM     36  C   UNL     1       3.398  13.088   0.184  0.00  0.00    +0.092 C 
ATOM     37  C   UNL     1       4.228  13.075   1.259  0.00  0.00    +0.015 C 
BRANCH  37  38
ATOM     38  C   UNL     1       3.940  12.871   2.724  0.00  0.00    -0.018 A 
ATOM     39  C   UNL     1       3.635  14.053   3.414  0.00  0.00    +0.057 A 
ATOM     40  C   UNL     1       3.639  14.125   4.817  0.00  0.00    +0.166 A 
ATOM     41  C   UNL     1       3.941  12.987   5.582  0.00  0.00    +0.201 A 
ATOM     42  C   UNL     1       4.170  11.763   4.944  0.00  0.00    +0.166 A 
ATOM     43  C   UNL     1       4.178  11.718   3.505  0.00  0.00    +0.057 A 
BRANCH  42  44
ATOM     44  O   UNL     1       4.451  10.546   5.528  0.00  0.00    -0.491 OA
ATOM     45  C   UNL     1       4.474  10.386   6.947  0.00  0.00    +0.277 C 
ENDBRANCH  42  44
BRANCH  41  46
ATOM     46  O   UNL     1       4.071  13.190   6.935  0.00  0.00    -0.501 OA
ATOM     47  H   UNL     1       3.560  12.528   7.416  0.00  0.00    +0.292 HD
ENDBRANCH  41  46
BRANCH  40  48
ATOM     48  O   UNL     1       3.447  15.300   5.506  0.00  0.00    -0.491 OA
ATOM     49  C   UNL     1       2.622  16.270   4.874  0.00  0.00    +0.277 C 
ENDBRANCH  40  48
ENDBRANCH  37  38
ENDBRANCH  34  36
ENDBRANCH  33  34
ENDBRANCH  28  33
BRANCH  25  50
ATOM     50  C   UNL     1       3.527  16.678  -7.161  0.00  0.00    +0.190 C 
BRANCH  50  51
ATOM     51  O   UNL     1       4.762  16.431  -7.853  0.00  0.00    -0.392 OA
ATOM     52  H   UNL     1       5.242  17.272  -7.937  0.00  0.00    +0.210 HD
ENDBRANCH  50  51
ENDBRANCH  25  50
ENDBRANCH  22  23
ENDBRANCH  17  22
ENDBRANCH   3   7
BRANCH   6  53
ATOM     53  O   UNL     1       1.677  11.919  -9.452  0.00  0.00    -0.457 OA
BRANCH  53  54
ATOM     54  C   UNL     1       1.198  13.243  -9.886  0.00  0.00    +0.339 C 
ATOM     55  O   UNL     1       0.399  13.922  -8.906  0.00  0.00    -0.331 OA
ATOM     56  C   UNL     1      -1.028  13.698  -8.870  0.00  0.00    +0.179 C 
ATOM     57  C   UNL     1      -1.773  13.542 -10.204  0.00  0.00    +0.177 C 
ATOM     58  C   UNL     1      -0.957  12.881 -11.310  0.00  0.00    +0.180 C 
ATOM     59  C   UNL     1       0.493  13.364 -11.288  0.00  0.00    +0.214 C 
BRANCH  57  60
ATOM     60  O   UNL     1      -2.163  14.859 -10.655  0.00  0.00    -0.386 OA
ATOM     61  H   UNL     1      -2.478  14.726 -11.576  0.00  0.00    +0.210 HD
ENDBRANCH  57  60
BRANCH  58  62
ATOM     62  O   UNL     1      -1.594  13.238 -12.567  0.00  0.00    -0.386 OA
ATOM     63  H   UNL     1      -0.886  13.291 -13.240  0.00  0.00    +0.210 HD
ENDBRANCH  58  62
BRANCH  59  64
ATOM     64  O   UNL     1       1.202  12.780 -12.388  0.00  0.00    -0.383 OA
ATOM     65  H   UNL     1       1.522  11.903 -12.111  0.00  0.00    +0.210 HD
ENDBRANCH  59  64
BRANCH  56  66
ATOM     66  C   UNL     1      -1.367  12.589  -7.873  0.00  0.00    +0.190 C 
BRANCH  66  67
ATOM     67  O   UNL     1      -0.792  12.897  -6.600  0.00  0.00    -0.392 OA
ATOM     68  H   UNL     1      -0.065  13.531  -6.771  0.00  0.00    +0.210 HD
ENDBRANCH  66  67
ENDBRANCH  56  66
ENDBRANCH  53  54
ENDBRANCH   6  53
BRANCH   1  69
ATOM     69  O   UNL     1       2.736   9.489  -8.527  0.00  0.00    -0.457 OA
BRANCH  69  72
ATOM     70  C   UNL     1       4.971   6.964  -6.986  0.00  0.00    +0.191 C 
ATOM     71  O   UNL     1       4.665   8.206  -7.665  0.00  0.00    -0.330 OA
ATOM     72  C   UNL     1       3.262   8.234  -8.057  0.00  0.00    +0.339 C 
ATOM     73  C   UNL     1       3.116   7.212  -9.200  0.00  0.00    +0.214 C 
ATOM     74  C   UNL     1       3.375   5.825  -8.611  0.00  0.00    +0.180 C 
ATOM     75  C   UNL     1       4.756   5.758  -7.917  0.00  0.00    +0.178 C 
BRANCH  73  76
ATOM     76  O   UNL     1       4.082   7.429 -10.257  0.00  0.00    -0.383 OA
ATOM     77  H   UNL     1       4.454   8.323 -10.122  0.00  0.00    +0.210 HD
ENDBRANCH  73  76
BRANCH  74  78
ATOM     78  O   UNL     1       3.290   4.851  -9.661  0.00  0.00    -0.386 OA
ATOM     79  H   UNL     1       3.793   5.228 -10.409  0.00  0.00    +0.210 HD
ENDBRANCH  74  78
BRANCH  75  80
ATOM     80  O   UNL     1       4.818   4.554  -7.147  0.00  0.00    -0.386 OA
ATOM     81  H   UNL     1       5.739   4.228  -7.222  0.00  0.00    +0.210 HD
ENDBRANCH  75  80
BRANCH  70  82
ATOM     82  C   UNL     1       6.348   6.982  -6.242  0.00  0.00    +0.266 C 
BRANCH  82  83
ATOM     83  O   UNL     1       7.588   7.059  -7.007  0.00  0.00    -0.459 OA
BRANCH  83  84
ATOM     84  C   UNL     1       8.160   5.873  -7.353  0.00  0.00    +0.332 C 
ATOM     85  O   UNL     1       7.572   4.797  -7.310  0.00  0.00    -0.246 OA
BRANCH  84  87
ATOM     86  C   UNL     1      10.533   6.831  -7.507  0.00  0.00    +0.015 C 
ATOM     87  C   UNL     1       9.575   5.943  -7.835  0.00  0.00    +0.092 C 
BRANCH  86  92
ATOM     88  C   UNL     1      13.909   8.249  -8.515  0.00  0.00    +0.166 A 
ATOM     89  C   UNL     1      14.672   7.113  -8.834  0.00  0.00    +0.201 A 
ATOM     90  C   UNL     1      14.098   5.840  -8.757  0.00  0.00    +0.166 A 
ATOM     91  C   UNL     1      12.745   5.735  -8.326  0.00  0.00    +0.057 A 
ATOM     92  C   UNL     1      11.951   6.852  -8.002  0.00  0.00    -0.018 A 
ATOM     93  C   UNL     1      12.560   8.105  -8.113  0.00  0.00    +0.057 A 
BRANCH  88  95
ATOM     94  C   UNL     1      14.032  10.534  -7.878  0.00  0.00    +0.277 C 
ATOM     95  O   UNL     1      14.510   9.472  -8.697  0.00  0.00    -0.491 OA
ENDBRANCH  88  95
BRANCH  89  96
ATOM     96  O   UNL     1      15.989   7.349  -9.138  0.00  0.00    -0.501 OA
ATOM     97  H   UNL     1      16.257   6.787  -9.875  0.00  0.00    +0.292 HD
ENDBRANCH  89  96
BRANCH  90  98
ATOM     98  O   UNL     1      14.669   4.618  -9.005  0.00  0.00    -0.491 OA
ATOM     99  C   UNL     1      16.032   4.506  -9.404  0.00  0.00    +0.277 C 
ENDBRANCH  90  98
ENDBRANCH  86  92
ENDBRANCH  84  87
ENDBRANCH  83  84
ENDBRANCH  82  83
ENDBRANCH  70  82
ENDBRANCH  69  72
ENDBRANCH   1  69
TORSDOF 36
