REMARK  Name = 
REMARK  28 active torsions:
REMARK  status: ('A' for Active; 'I' for Inactive)
REMARK    1  A    between atoms: C_1  and  C_2
REMARK    2  A    between atoms: C_3  and  O_75
REMARK    3  A    between atoms: C_5  and  O_74
REMARK    4  A    between atoms: C_6  and  O_73
REMARK    5  A    between atoms: C_8  and  O_11
REMARK    6  A    between atoms: O_11  and  C_12
REMARK    7  A    between atoms: C_14  and  O_72
REMARK    8  A    between atoms: C_19  and  C_64
REMARK    9  A    between atoms: C_20  and  O_23
REMARK   10  A    between atoms: O_23  and  C_24
REMARK   11  A    between atoms: C_26  and  O_49
REMARK   12  A    between atoms: C_27  and  O_48
REMARK   13  A    between atoms: C_29  and  O_47
REMARK   14  A    between atoms: C_31  and  C_33
REMARK   15  A    between atoms: C_33  and  O_34
REMARK   16  A    between atoms: O_34  and  C_35
REMARK   17  A    between atoms: C_35  and  C_37
REMARK   18  A    between atoms: C_38  and  C_39
REMARK   19  A    between atoms: C_41  and  O_46
REMARK   20  A    between atoms: C_42  and  O_45
REMARK   21  A    between atoms: O_49  and  C_50
REMARK   22  A    between atoms: C_52  and  O_63
REMARK   23  A    between atoms: C_53  and  O_62
REMARK   24  A    between atoms: C_55  and  O_61
REMARK   25  A    between atoms: C_57  and  C_59
REMARK   26  A    between atoms: C_59  and  O_60
REMARK   27  A    between atoms: C_66  and  O_71
REMARK   28  A    between atoms: C_67  and  O_70
REMARK                            x       y       z     vdW  Elec       q    Type
REMARK                         _______ _______ _______ _____ _____    ______ ____
ROOT
ATOM      1  C   UNL     1       1.147  10.006  -2.516  0.00  0.00    +0.340 C 
ATOM      2  O   UNL     1       1.563  10.767  -1.360  0.00  0.00    -0.330 OA
ATOM      3  C   UNL     1       0.707  11.874  -1.012  0.00  0.00    +0.191 C 
ATOM      4  C   UNL     1       0.641  12.875  -2.169  0.00  0.00    +0.178 C 
ATOM      5  C   UNL     1       0.006  12.167  -3.365  0.00  0.00    +0.180 C 
ATOM      6  C   UNL     1       0.820  10.921  -3.758  0.00  0.00    +0.221 C 
ENDROOT
BRANCH   5   7
ATOM      7  O   UNL     1      -1.360  11.848  -3.092  0.00  0.00    -0.386 OA
ATOM      8  H   UNL     1      -1.670  11.237  -3.786  0.00  0.00    +0.210 HD
ENDBRANCH   5   7
BRANCH   4   9
ATOM      9  O   UNL     1       1.957  13.355  -2.490  0.00  0.00    -0.386 OA
ATOM     10  H   UNL     1       1.896  13.878  -3.311  0.00  0.00    +0.210 HD
ENDBRANCH   4   9
BRANCH   6  11
ATOM     11  O   UNL     1       0.328  10.223  -4.958  0.00  0.00    -0.337 OA
BRANCH  11  12
ATOM     12  C   UNL     1       0.204  11.052  -6.161  0.00  0.00    +0.282 C 
ATOM     13  O   UNL     1      -0.213  10.281  -7.334  0.00  0.00    -0.341 OA
ATOM     14  C   UNL     1       0.787   9.447  -7.983  0.00  0.00    +0.178 C 
ATOM     15  C   UNL     1       2.146  10.153  -8.190  0.00  0.00    +0.177 C 
ATOM     16  C   UNL     1       2.577  10.836  -6.901  0.00  0.00    +0.179 C 
ATOM     17  C   UNL     1       1.483  11.851  -6.535  0.00  0.00    +0.201 C 
BRANCH  17  18
ATOM     18  O   UNL     1       1.929  12.787  -5.545  0.00  0.00    -0.384 OA
ATOM     19  H   UNL     1       2.892  12.672  -5.439  0.00  0.00    +0.210 HD
ENDBRANCH  17  18
BRANCH  16  20
ATOM     20  O   UNL     1       2.830   9.881  -5.871  0.00  0.00    -0.386 OA
ATOM     21  H   UNL     1       1.983   9.476  -5.579  0.00  0.00    +0.210 HD
ENDBRANCH  16  20
BRANCH  15  22
ATOM     22  O   UNL     1       2.063  11.135  -9.237  0.00  0.00    -0.386 OA
ATOM     23  H   UNL     1       2.920  11.594  -9.307  0.00  0.00    +0.210 HD
ENDBRANCH  15  22
BRANCH  14  24
ATOM     24  C   UNL     1       0.341   8.926  -9.377  0.00  0.00    +0.190 C 
BRANCH  24  25
ATOM     25  O   UNL     1      -0.872   8.183  -9.355  0.00  0.00    -0.392 OA
ATOM     26  H   UNL     1      -0.686   7.323  -8.948  0.00  0.00    +0.210 HD
ENDBRANCH  24  25
ENDBRANCH  14  24
ENDBRANCH  11  12
ENDBRANCH   6  11
BRANCH   3  27
ATOM     27  C   UNL     1       1.252  12.546   0.267  0.00  0.00    +0.266 C 
BRANCH  27  28
ATOM     28  O   UNL     1       1.053  11.681   1.406  0.00  0.00    -0.459 OA
BRANCH  28  29
ATOM     29  C   UNL     1      -0.222  11.644   1.863  0.00  0.00    +0.332 C 
ATOM     30  O   UNL     1      -1.147  12.350   1.486  0.00  0.00    -0.246 OA
BRANCH  29  31
ATOM     31  C   UNL     1      -0.332  10.568   2.865  0.00  0.00    +0.092 C 
ATOM     32  C   UNL     1      -1.566  10.158   3.222  0.00  0.00    +0.015 C 
BRANCH  32  33
ATOM     33  C   UNL     1      -1.888   9.065   4.146  0.00  0.00    -0.021 A 
ATOM     34  C   UNL     1      -3.143   8.450   4.009  0.00  0.00    +0.012 A 
ATOM     35  C   UNL     1      -3.484   7.317   4.752  0.00  0.00    +0.050 A 
ATOM     36  C   UNL     1      -2.594   6.849   5.701  0.00  0.00    +0.158 A 
ATOM     37  C   UNL     1      -1.399   7.517   5.924  0.00  0.00    +0.159 A 
ATOM     38  C   UNL     1      -1.029   8.612   5.154  0.00  0.00    +0.057 A 
BRANCH  37  39
ATOM     39  O   UNL     1      -0.604   7.050   6.944  0.00  0.00    -0.503 OA
ATOM     40  H   UNL     1       0.069   7.728   7.125  0.00  0.00    +0.292 HD
ENDBRANCH  37  39
BRANCH  36  41
ATOM     41  O   UNL     1      -2.907   5.715   6.395  0.00  0.00    -0.503 OA
ATOM     42  H   UNL     1      -2.151   5.583   7.000  0.00  0.00    +0.292 HD
ENDBRANCH  36  41
ENDBRANCH  32  33
ENDBRANCH  29  31
ENDBRANCH  28  29
ENDBRANCH  27  28
ENDBRANCH   3  27
BRANCH   1  43
ATOM     43  O   UNL     1       0.113   9.082  -2.167  0.00  0.00    -0.453 OA
BRANCH  43  49
ATOM     44  C   UNL     1       1.282   3.067  -3.933  0.00  0.00    +0.131 A 
ATOM     45  C   UNL     1       0.362   3.640  -3.051  0.00  0.00    +0.093 A 
ATOM     46  C   UNL     1       0.539   4.945  -2.585  0.00  0.00    +0.147 A 
ATOM     47  O   UNL     1      -0.397   5.446  -1.720  0.00  0.00    -0.451 OA
ATOM     48  C   UNL     1      -0.553   6.828  -1.702  0.00  0.00    +0.181 A 
ATOM     49  C   UNL     1       0.392   7.714  -2.095  0.00  0.00    +0.214 A 
ATOM     50  C   UNL     1       1.712   7.070  -2.435  0.00  0.00    +0.238 A 
ATOM     51  O   UNL     1       2.797   7.588  -2.210  0.00  0.00    -0.283 OA
ATOM     52  C   UNL     1       1.623   5.705  -2.995  0.00  0.00    +0.109 A 
ATOM     53  C   UNL     1       2.534   5.154  -3.898  0.00  0.00    +0.135 A 
ATOM     54  C   UNL     1       2.373   3.836  -4.353  0.00  0.00    +0.092 A 
BRANCH  48  55
ATOM     55  C   UNL     1      -1.888   7.225  -1.240  0.00  0.00    +0.025 A 
ATOM     56  C   UNL     1      -2.799   7.778  -2.153  0.00  0.00    +0.015 A 
ATOM     57  C   UNL     1      -4.065   8.181  -1.735  0.00  0.00    +0.050 A 
ATOM     58  C   UNL     1      -4.436   7.976  -0.418  0.00  0.00    +0.158 A 
ATOM     59  C   UNL     1      -3.577   7.333   0.464  0.00  0.00    +0.159 A 
ATOM     60  C   UNL     1      -2.285   6.988   0.084  0.00  0.00    +0.060 A 
BRANCH  59  61
ATOM     61  O   UNL     1      -4.070   7.013   1.695  0.00  0.00    -0.503 OA
ATOM     62  H   UNL     1      -3.374   6.536   2.184  0.00  0.00    +0.292 HD
ENDBRANCH  59  61
BRANCH  58  63
ATOM     63  O   UNL     1      -5.647   8.426   0.014  0.00  0.00    -0.503 OA
ATOM     64  H   UNL     1      -5.641   8.267   0.978  0.00  0.00    +0.292 HD
ENDBRANCH  58  63
ENDBRANCH  48  55
BRANCH  53  65
ATOM     65  O   UNL     1       3.556   5.912  -4.392  0.00  0.00    -0.506 OA
ATOM     66  H   UNL     1       4.071   5.397  -5.034  0.00  0.00    +0.292 HD
ENDBRANCH  53  65
BRANCH  44  67
ATOM     67  O   UNL     1       1.224   1.795  -4.454  0.00  0.00    -0.461 OA
BRANCH  67  71
ATOM     68  C   UNL     1      -2.314   0.935  -2.254  0.00  0.00    +0.041 C 
ATOM     69  C   UNL     1      -1.069   0.061  -2.166  0.00  0.00    +0.150 C 
ATOM     70  O   UNL     1       0.087   0.749  -2.656  0.00  0.00    -0.334 OA
ATOM     71  C   UNL     1       0.101   0.983  -4.071  0.00  0.00    +0.339 C 
ATOM     72  C   UNL     1       0.107  -0.374  -4.821  0.00  0.00    +0.214 C 
ATOM     73  C   UNL     1      -1.136  -1.171  -4.391  0.00  0.00    +0.180 C 
ATOM     74  C   UNL     1      -1.222  -1.298  -2.861  0.00  0.00    +0.174 C 
BRANCH  74  75
ATOM     75  O   UNL     1      -0.169  -2.183  -2.434  0.00  0.00    -0.387 OA
ATOM     76  H   UNL     1       0.677  -1.721  -2.631  0.00  0.00    +0.210 HD
ENDBRANCH  74  75
BRANCH  73  77
ATOM     77  O   UNL     1      -1.081  -2.484  -4.973  0.00  0.00    -0.386 OA
ATOM     78  H   UNL     1      -0.770  -3.080  -4.258  0.00  0.00    +0.210 HD
ENDBRANCH  73  77
BRANCH  72  79
ATOM     79  O   UNL     1       1.282  -1.152  -4.511  0.00  0.00    -0.383 OA
ATOM     80  H   UNL     1       1.185  -1.977  -5.026  0.00  0.00    +0.210 HD
ENDBRANCH  72  79
ENDBRANCH  67  71
ENDBRANCH  44  67
ENDBRANCH  43  49
ENDBRANCH   1  43
TORSDOF 27
