REMARK  Name = 
REMARK  32 active torsions:
REMARK  status: ('A' for Active; 'I' for Inactive)
REMARK    1  A    between atoms: C_1  and  O_2
REMARK    2  A    between atoms: O_2  and  C_3
REMARK    3  A    between atoms: C_5  and  C_12
REMARK    4  A    between atoms: C_7  and  O_10
REMARK    5  A    between atoms: C_8  and  O_9
REMARK    6  A    between atoms: O_10  and  C_11
REMARK    7  A    between atoms: C_13  and  C_14
REMARK    8  A    between atoms: C_14  and  O_16
REMARK    9  A    between atoms: O_16  and  C_17
REMARK   10  A    between atoms: C_17  and  C_18
REMARK   11  A    between atoms: C_19  and  O_78
REMARK   12  A    between atoms: C_21  and  O_77
REMARK   13  A    between atoms: C_22  and  O_76
REMARK   14  A    between atoms: C_24  and  O_27
REMARK   15  A    between atoms: O_27  and  C_28
REMARK   16  A    between atoms: C_29  and  O_40
REMARK   17  A    between atoms: C_32  and  C_38
REMARK   18  A    between atoms: C_33  and  O_37
REMARK   19  A    between atoms: C_35  and  O_36
REMARK   20  A    between atoms: C_38  and  O_39
REMARK   21  A    between atoms: O_40  and  C_41
REMARK   22  A    between atoms: C_42  and  O_75
REMARK   23  A    between atoms: C_44  and  O_74
REMARK   24  A    between atoms: C_46  and  C_72
REMARK   25  A    between atoms: C_48  and  O_50
REMARK   26  A    between atoms: O_50  and  C_51
REMARK   27  A    between atoms: C_52  and  C_64
REMARK   28  A    between atoms: C_56  and  O_63
REMARK   29  A    between atoms: C_58  and  O_62
REMARK   30  A    between atoms: C_66  and  O_71
REMARK   31  A    between atoms: C_67  and  O_70
REMARK   32  A    between atoms: C_72  and  O_73
REMARK                            x       y       z     vdW  Elec       q    Type
REMARK                         _______ _______ _______ _____ _____    ______ ____
ROOT
ATOM      1  C   UNL     1      12.957  -3.609   1.844  0.00  0.00    +0.208 C 
ATOM      2  C   UNL     1      12.434  -2.341   1.147  0.00  0.00    +0.179 C 
ATOM      3  C   UNL     1      12.731  -2.377  -0.361  0.00  0.00    +0.177 C 
ATOM      4  C   UNL     1      14.192  -2.710  -0.683  0.00  0.00    +0.178 C 
ATOM      5  O   UNL     1      14.618  -3.881   0.020  0.00  0.00    -0.341 OA
ATOM      6  C   UNL     1      14.445  -3.852   1.448  0.00  0.00    +0.283 C 
ENDROOT
BRANCH   3   7
ATOM      7  O   UNL     1      12.299  -1.175  -0.992  0.00  0.00    -0.386 OA
ATOM      8  H   UNL     1      12.433  -1.272  -1.952  0.00  0.00    +0.210 HD
ENDBRANCH   3   7
BRANCH   2   9
ATOM      9  O   UNL     1      12.916  -1.180   1.825  0.00  0.00    -0.386 OA
ATOM     10  H   UNL     1      13.746  -0.864   1.440  0.00  0.00    +0.210 HD
ENDBRANCH   2   9
BRANCH   6  11
ATOM     11  O   UNL     1      15.393  -2.939   1.987  0.00  0.00    -0.337 OA
BRANCH  11  12
ATOM     12  C   UNL     1      15.481  -2.836   3.415  0.00  0.00    +0.221 C 
ATOM     13  C   UNL     1      16.605  -1.842   3.791  0.00  0.00    +0.340 C 
ATOM     14  O   UNL     1      17.858  -2.276   3.228  0.00  0.00    -0.331 OA
ATOM     15  C   UNL     1      18.339  -3.522   3.780  0.00  0.00    +0.179 C 
ATOM     16  C   UNL     1      17.265  -4.628   3.682  0.00  0.00    +0.177 C 
ATOM     17  C   UNL     1      15.878  -4.145   4.135  0.00  0.00    +0.180 C 
BRANCH  17  18
ATOM     18  O   UNL     1      14.934  -5.211   3.955  0.00  0.00    -0.386 OA
ATOM     19  H   UNL     1      14.083  -4.938   4.340  0.00  0.00    +0.210 HD
ENDBRANCH  17  18
BRANCH  16  20
ATOM     20  O   UNL     1      17.598  -5.802   4.423  0.00  0.00    -0.386 OA
ATOM     21  H   UNL     1      16.806  -6.371   4.383  0.00  0.00    +0.210 HD
ENDBRANCH  16  20
BRANCH  13  22
ATOM     22  O   UNL     1      16.312  -0.473   3.429  0.00  0.00    -0.453 OA
BRANCH  22  23
ATOM     23  C   UNL     1      17.268   0.397   3.981  0.00  0.00    +0.214 A 
ATOM     24  C   UNL     1      17.848   0.167   5.333  0.00  0.00    +0.238 A 
ATOM     25  O   UNL     1      17.244  -0.421   6.222  0.00  0.00    -0.283 OA
ATOM     26  C   UNL     1      19.172   0.744   5.556  0.00  0.00    +0.109 A 
ATOM     27  C   UNL     1      19.464   1.898   4.837  0.00  0.00    +0.147 A 
ATOM     28  C   UNL     1      20.680   2.549   5.015  0.00  0.00    +0.092 A 
ATOM     29  C   UNL     1      21.623   1.984   5.867  0.00  0.00    +0.124 A 
ATOM     30  C   UNL     1      21.353   0.812   6.570  0.00  0.00    +0.091 A 
ATOM     31  O   UNL     1      18.584   2.425   3.927  0.00  0.00    -0.451 OA
ATOM     32  C   UNL     1      20.115   0.197   6.429  0.00  0.00    +0.135 A 
ATOM     33  C   UNL     1      17.619   1.563   3.403  0.00  0.00    +0.181 A 
BRANCH  33  34
ATOM     34  C   UNL     1      16.846   2.223   2.338  0.00  0.00    +0.025 A 
ATOM     35  C   UNL     1      15.793   3.015   2.794  0.00  0.00    +0.015 A 
ATOM     36  C   UNL     1      15.016   3.726   1.899  0.00  0.00    +0.050 A 
ATOM     37  C   UNL     1      15.251   3.648   0.547  0.00  0.00    +0.158 A 
ATOM     38  C   UNL     1      16.324   2.907   0.086  0.00  0.00    +0.159 A 
ATOM     39  C   UNL     1      17.135   2.200   0.970  0.00  0.00    +0.060 A 
BRANCH  38  40
ATOM     40  O   UNL     1      16.542   2.955  -1.262  0.00  0.00    -0.503 OA
ATOM     41  H   UNL     1      17.450   2.657  -1.428  0.00  0.00    +0.292 HD
ENDBRANCH  38  40
BRANCH  37  42
ATOM     42  O   UNL     1      14.434   4.328  -0.306  0.00  0.00    -0.503 OA
ATOM     43  H   UNL     1      14.739   4.084  -1.200  0.00  0.00    +0.292 HD
ENDBRANCH  37  42
ENDBRANCH  33  34
BRANCH  32  44
ATOM     44  O   UNL     1      19.863  -0.959   7.111  0.00  0.00    -0.506 OA
ATOM     45  H   UNL     1      20.650  -1.211   7.622  0.00  0.00    +0.292 HD
ENDBRANCH  32  44
BRANCH  29  46
ATOM     46  O   UNL     1      22.852   2.545   6.038  0.00  0.00    -0.507 OA
ATOM     47  H   UNL     1      22.949   3.292   5.424  0.00  0.00    +0.292 HD
ENDBRANCH  29  46
ENDBRANCH  22  23
ENDBRANCH  13  22
BRANCH  15  48
ATOM     48  C   UNL     1      18.954  -3.268   5.173  0.00  0.00    +0.190 C 
BRANCH  48  49
ATOM     49  O   UNL     1      19.718  -4.358   5.666  0.00  0.00    -0.392 OA
ATOM     50  H   UNL     1      19.750  -4.261   6.633  0.00  0.00    +0.210 HD
ENDBRANCH  48  49
ENDBRANCH  15  48
ENDBRANCH  11  12
ENDBRANCH   6  11
BRANCH   4  51
ATOM     51  C   UNL     1      15.192  -1.547  -0.555  0.00  0.00    +0.190 C 
BRANCH  51  52
ATOM     52  O   UNL     1      16.482  -1.975  -0.995  0.00  0.00    -0.392 OA
ATOM     53  H   UNL     1      16.710  -2.727  -0.413  0.00  0.00    +0.210 HD
ENDBRANCH  51  52
ENDBRANCH   4  51
BRANCH   1  54
ATOM     54  O   UNL     1      12.241  -4.807   1.496  0.00  0.00    -0.338 OA
BRANCH  54  57
ATOM     55  C   UNL     1       9.176  -4.464   3.470  0.00  0.00    +0.190 C 
ATOM     56  O   UNL     1      10.583  -4.556   3.161  0.00  0.00    -0.339 OA
ATOM     57  C   UNL     1      10.847  -4.821   1.787  0.00  0.00    +0.282 C 
ATOM     58  C   UNL     1      10.303  -6.216   1.424  0.00  0.00    +0.201 C 
ATOM     59  C   UNL     1       8.784  -6.222   1.639  0.00  0.00    +0.179 C 
ATOM     60  C   UNL     1       8.417  -5.742   3.053  0.00  0.00    +0.178 C 
BRANCH  60  61
ATOM     61  O   UNL     1       7.007  -5.521   3.127  0.00  0.00    -0.386 OA
ATOM     62  H   UNL     1       6.666  -6.012   3.896  0.00  0.00    +0.210 HD
ENDBRANCH  60  61
BRANCH  58  63
ATOM     63  O   UNL     1      10.598  -6.600   0.074  0.00  0.00    -0.384 OA
ATOM     64  H   UNL     1      10.531  -5.817  -0.498  0.00  0.00    +0.210 HD
ENDBRANCH  58  63
BRANCH  59  65
ATOM     65  O   UNL     1       8.241  -7.539   1.437  0.00  0.00    -0.386 OA
ATOM     66  H   UNL     1       8.965  -8.187   1.508  0.00  0.00    +0.210 HD
ENDBRANCH  59  65
BRANCH  55  67
ATOM     67  C   UNL     1       8.553  -3.165   2.919  0.00  0.00    +0.266 C 
BRANCH  67  68
ATOM     68  O   UNL     1       9.333  -2.021   3.322  0.00  0.00    -0.459 OA
BRANCH  68  69
ATOM     69  C   UNL     1       9.016  -1.471   4.521  0.00  0.00    +0.332 C 
ATOM     70  O   UNL     1       8.171  -1.888   5.298  0.00  0.00    -0.246 OA
BRANCH  69  72
ATOM     71  C   UNL     1      10.908   0.076   4.113  0.00  0.00    +0.015 C 
ATOM     72  C   UNL     1       9.770  -0.219   4.758  0.00  0.00    +0.092 C 
BRANCH  71  77
ATOM     73  C   UNL     1      13.248   2.758   5.379  0.00  0.00    +0.166 A 
ATOM     74  C   UNL     1      12.877   3.835   4.559  0.00  0.00    +0.201 A 
ATOM     75  C   UNL     1      11.886   3.674   3.574  0.00  0.00    +0.166 A 
ATOM     76  C   UNL     1      11.269   2.430   3.410  0.00  0.00    +0.057 A 
ATOM     77  C   UNL     1      11.606   1.358   4.248  0.00  0.00    -0.018 A 
ATOM     78  C   UNL     1      12.597   1.526   5.221  0.00  0.00    +0.057 A 
BRANCH  73  80
ATOM     79  C   UNL     1      14.766   3.962   6.789  0.00  0.00    +0.277 C 
ATOM     80  O   UNL     1      14.221   2.728   6.344  0.00  0.00    -0.491 OA
ENDBRANCH  73  80
BRANCH  75  81
ATOM     81  O   UNL     1      11.350   4.765   2.928  0.00  0.00    -0.491 OA
ATOM     82  C   UNL     1      11.995   5.154   1.715  0.00  0.00    +0.277 C 
ENDBRANCH  75  81
BRANCH  74  83
ATOM     83  O   UNL     1      13.514   5.043   4.678  0.00  0.00    -0.501 OA
ATOM     84  H   UNL     1      13.198   5.612   3.959  0.00  0.00    +0.292 HD
ENDBRANCH  74  83
ENDBRANCH  71  77
ENDBRANCH  69  72
ENDBRANCH  68  69
ENDBRANCH  67  68
ENDBRANCH  55  67
ENDBRANCH  54  57
ENDBRANCH   1  54
TORSDOF 30
