REMARK  Name = 
REMARK  17 active torsions:
REMARK  status: ('A' for Active; 'I' for Inactive)
REMARK    1  A    between atoms: C_3  and  O_49
REMARK    2  A    between atoms: C_4  and  O_48
REMARK    3  A    between atoms: C_6  and  C_7
REMARK    4  A    between atoms: C_8  and  C_9
REMARK    5  A    between atoms: C_9  and  O_11
REMARK    6  A    between atoms: O_11  and  C_12
REMARK    7  A    between atoms: C_14  and  O_26
REMARK    8  A    between atoms: C_17  and  C_23
REMARK    9  A    between atoms: C_18  and  O_22
REMARK   10  A    between atoms: C_20  and  O_21
REMARK   11  A    between atoms: C_23  and  O_25
REMARK   12  A    between atoms: O_26  and  C_27
REMARK   13  A    between atoms: C_28  and  C_40
REMARK   14  A    between atoms: C_32  and  O_39
REMARK   15  A    between atoms: C_34  and  O_38
REMARK   16  A    between atoms: C_42  and  O_47
REMARK   17  A    between atoms: C_43  and  O_46
REMARK                            x       y       z     vdW  Elec       q    Type
REMARK                         _______ _______ _______ _____ _____    ______ ____
ROOT
ATOM      1  C   UNL     1      -5.722  -5.111  -0.420  0.00  0.00    +0.276 C 
ATOM      2  C   UNL     1      -6.196  -5.142   1.038  0.00  0.00    +0.193 C 
ATOM      3  C   UNL     1      -5.536  -6.265   1.863  0.00  0.00    +0.186 C 
ATOM      4  C   UNL     1      -5.533  -7.608   1.135  0.00  0.00    +0.261 C 
ATOM      5  O   UNL     1      -4.943  -7.463  -0.150  0.00  0.00    -0.321 OA
ATOM      6  C   UNL     1      -5.610  -6.532  -1.024  0.00  0.00    +0.352 C 
ENDROOT
BRANCH   4   7
ATOM      7  C   UNL     1      -6.880  -8.328   1.166  0.00  0.00    +0.337 C 
ATOM      8  O   UNL     1      -7.929  -7.819   1.532  0.00  0.00    -0.248 OA
BRANCH   7   9
ATOM      9  O   UNL     1      -6.806  -9.596   0.694  0.00  0.00    -0.479 OA
ATOM     10  H   UNL     1      -5.914  -9.819   0.355  0.00  0.00    +0.295 HD
ENDBRANCH   7   9
ENDBRANCH   4   7
BRANCH   3  11
ATOM     11  O   UNL     1      -4.158  -5.925   2.127  0.00  0.00    -0.386 OA
ATOM     12  H   UNL     1      -3.655  -6.072   1.301  0.00  0.00    +0.210 HD
ENDBRANCH   3  11
BRANCH   2  13
ATOM     13  O   UNL     1      -7.626  -5.178   1.074  0.00  0.00    -0.385 OA
ATOM     14  H   UNL     1      -7.957  -6.096   0.982  0.00  0.00    +0.210 HD
ENDBRANCH   2  13
BRANCH   6  15
ATOM     15  O   UNL     1      -6.873  -7.023  -1.478  0.00  0.00    -0.452 OA
BRANCH  15  16
ATOM     16  C   UNL     1      -6.869  -8.247  -2.153  0.00  0.00    +0.214 A 
ATOM     17  C   UNL     1      -5.621  -8.792  -2.807  0.00  0.00    +0.238 A 
ATOM     18  O   UNL     1      -4.583  -8.147  -2.877  0.00  0.00    -0.283 OA
ATOM     19  C   UNL     1      -5.669 -10.144  -3.375  0.00  0.00    +0.109 A 
ATOM     20  C   UNL     1      -6.863 -10.840  -3.275  0.00  0.00    +0.147 A 
ATOM     21  C   UNL     1      -6.959 -12.153  -3.743  0.00  0.00    +0.092 A 
ATOM     22  C   UNL     1      -5.854 -12.744  -4.343  0.00  0.00    +0.124 A 
ATOM     23  C   UNL     1      -4.658 -12.052  -4.489  0.00  0.00    +0.091 A 
ATOM     24  O   UNL     1      -8.001 -10.294  -2.753  0.00  0.00    -0.451 OA
ATOM     25  C   UNL     1      -4.565 -10.750  -3.998  0.00  0.00    +0.135 A 
ATOM     26  C   UNL     1      -7.988  -9.006  -2.225  0.00  0.00    +0.181 A 
BRANCH  26  27
ATOM     27  C   UNL     1      -9.359  -8.596  -1.768  0.00  0.00    +0.025 A 
ATOM     28  C   UNL     1     -10.338  -9.594  -1.548  0.00  0.00    +0.015 A 
ATOM     29  C   UNL     1     -11.684  -9.277  -1.330  0.00  0.00    +0.050 A 
ATOM     30  C   UNL     1     -12.064  -7.950  -1.289  0.00  0.00    +0.158 A 
ATOM     31  C   UNL     1     -11.114  -6.945  -1.417  0.00  0.00    +0.159 A 
ATOM     32  C   UNL     1      -9.777  -7.254  -1.675  0.00  0.00    +0.060 A 
BRANCH  31  33
ATOM     33  O   UNL     1     -11.545  -5.651  -1.306  0.00  0.00    -0.503 OA
ATOM     34  H   UNL     1     -10.771  -5.097  -1.099  0.00  0.00    +0.292 HD
ENDBRANCH  31  33
BRANCH  30  35
ATOM     35  O   UNL     1     -13.382  -7.634  -1.136  0.00  0.00    -0.503 OA
ATOM     36  H   UNL     1     -13.406  -6.658  -1.193  0.00  0.00    +0.292 HD
ENDBRANCH  30  35
ENDBRANCH  26  27
BRANCH  25  37
ATOM     37  O   UNL     1      -3.381 -10.086  -4.140  0.00  0.00    -0.506 OA
ATOM     38  H   UNL     1      -2.756 -10.606  -4.671  0.00  0.00    +0.292 HD
ENDBRANCH  25  37
BRANCH  22  39
ATOM     39  O   UNL     1      -5.894 -14.019  -4.821  0.00  0.00    -0.507 OA
ATOM     40  H   UNL     1      -6.782 -14.389  -4.678  0.00  0.00    +0.292 HD
ENDBRANCH  22  39
ENDBRANCH  15  16
ENDBRANCH   6  15
BRANCH   1  41
ATOM     41  O   UNL     1      -4.398  -4.517  -0.459  0.00  0.00    -0.449 OA
BRANCH  41  42
ATOM     42  C   UNL     1      -4.045  -4.012  -1.673  0.00  0.00    +0.332 C 
ATOM     43  O   UNL     1      -4.787  -3.739  -2.595  0.00  0.00    -0.246 OA
BRANCH  42  45
ATOM     44  C   UNL     1      -1.958  -4.222  -2.923  0.00  0.00    +0.015 C 
ATOM     45  C   UNL     1      -2.567  -4.098  -1.737  0.00  0.00    +0.092 C 
BRANCH  44  47
ATOM     46  C   UNL     1       0.442  -4.287  -2.120  0.00  0.00    +0.012 A 
ATOM     47  C   UNL     1      -0.538  -4.583  -3.084  0.00  0.00    -0.021 A 
ATOM     48  C   UNL     1      -0.153  -5.267  -4.247  0.00  0.00    +0.057 A 
ATOM     49  C   UNL     1       1.172  -5.653  -4.418  0.00  0.00    +0.159 A 
ATOM     50  C   UNL     1       2.130  -5.365  -3.452  0.00  0.00    +0.158 A 
ATOM     51  C   UNL     1       1.774  -4.684  -2.297  0.00  0.00    +0.050 A 
BRANCH  50  52
ATOM     52  O   UNL     1       3.414  -5.772  -3.687  0.00  0.00    -0.503 OA
ATOM     53  H   UNL     1       3.968  -5.465  -2.949  0.00  0.00    +0.292 HD
ENDBRANCH  50  52
BRANCH  49  54
ATOM     54  O   UNL     1       1.530  -6.326  -5.552  0.00  0.00    -0.503 OA
ATOM     55  H   UNL     1       2.490  -6.481  -5.451  0.00  0.00    +0.292 HD
ENDBRANCH  49  54
ENDBRANCH  44  47
ENDBRANCH  42  45
ENDBRANCH  41  42
ENDBRANCH   1  41
TORSDOF 17
