REMARK  Name = 
REMARK  17 active torsions:
REMARK  status: ('A' for Active; 'I' for Inactive)
REMARK    1  A    between atoms: C_3  and  O_47
REMARK    2  A    between atoms: C_4  and  O_46
REMARK    3  A    between atoms: C_6  and  C_7
REMARK    4  A    between atoms: C_8  and  O_20
REMARK    5  A    between atoms: C_12  and  O_19
REMARK    6  A    between atoms: C_14  and  O_18
REMARK    7  A    between atoms: O_20  and  C_21
REMARK    8  A    between atoms: C_23  and  O_34
REMARK    9  A    between atoms: C_25  and  O_33
REMARK   10  A    between atoms: C_26  and  O_32
REMARK   11  A    between atoms: C_28  and  C_30
REMARK   12  A    between atoms: C_30  and  O_31
REMARK   13  A    between atoms: O_34  and  C_35
REMARK   14  A    between atoms: C_35  and  C_37
REMARK   15  A    between atoms: C_39  and  O_45
REMARK   16  A    between atoms: C_40  and  O_44
REMARK   17  A    between atoms: C_41  and  O_43
REMARK                            x       y       z     vdW  Elec       q    Type
REMARK                         _______ _______ _______ _____ _____    ______ ____
ROOT
ATOM      1  C   UNL     1      -2.664  -0.522  -0.936  0.00  0.00    +0.352 C 
ATOM      2  O   UNL     1      -2.923   0.294  -2.110  0.00  0.00    -0.330 OA
ATOM      3  C   UNL     1      -2.680  -0.210  -3.430  0.00  0.00    +0.179 C 
ATOM      4  C   UNL     1      -1.488  -1.181  -3.524  0.00  0.00    +0.178 C 
ATOM      5  C   UNL     1      -1.237  -1.982  -2.248  0.00  0.00    +0.192 C 
ATOM      6  C   UNL     1      -1.261  -1.192  -0.912  0.00  0.00    +0.276 C 
ENDROOT
BRANCH   5   7
ATOM      7  O   UNL     1      -0.053  -2.768  -2.384  0.00  0.00    -0.385 OA
ATOM      8  H   UNL     1       0.000  -3.314  -1.578  0.00  0.00    +0.210 HD
ENDBRANCH   5   7
BRANCH   4   9
ATOM      9  O   UNL     1      -0.263  -0.535  -3.870  0.00  0.00    -0.386 OA
ATOM     10  H   UNL     1       0.414  -1.235  -3.768  0.00  0.00    +0.210 HD
ENDBRANCH   4   9
BRANCH   6  11
ATOM     11  O   UNL     1      -0.095  -0.357  -0.447  0.00  0.00    -0.449 OA
BRANCH  11  12
ATOM     12  C   UNL     1       0.539  -0.763   0.743  0.00  0.00    +0.340 C 
ATOM     13  O   UNL     1       0.212  -1.806   1.316  0.00  0.00    -0.245 OA
BRANCH  12  14
ATOM     14  C   UNL     1       1.664   0.070   1.419  0.00  0.00    +0.066 A 
ATOM     15  C   UNL     1       2.090   1.327   0.998  0.00  0.00    +0.064 A 
ATOM     16  C   UNL     1       3.097   2.020   1.718  0.00  0.00    +0.163 A 
ATOM     17  C   UNL     1       3.688   1.504   2.862  0.00  0.00    +0.201 A 
ATOM     18  C   UNL     1       3.292   0.274   3.308  0.00  0.00    +0.163 A 
ATOM     19  C   UNL     1       2.306  -0.454   2.604  0.00  0.00    +0.064 A 
BRANCH  18  20
ATOM     20  O   UNL     1       3.899  -0.180   4.459  0.00  0.00    -0.503 OA
ATOM     21  H   UNL     1       3.368  -0.892   4.852  0.00  0.00    +0.292 HD
ENDBRANCH  18  20
BRANCH  17  22
ATOM     22  O   UNL     1       4.641   2.252   3.517  0.00  0.00    -0.501 OA
ATOM     23  H   UNL     1       4.901   1.711   4.301  0.00  0.00    +0.292 HD
ENDBRANCH  17  22
BRANCH  16  24
ATOM     24  O   UNL     1       3.521   3.259   1.299  0.00  0.00    -0.503 OA
ATOM     25  H   UNL     1       4.195   3.530   1.958  0.00  0.00    +0.292 HD
ENDBRANCH  16  24
ENDBRANCH  12  14
ENDBRANCH  11  12
ENDBRANCH   6  11
BRANCH   3  26
ATOM     26  C   UNL     1      -2.442   0.990  -4.405  0.00  0.00    +0.190 C 
BRANCH  26  27
ATOM     27  O   UNL     1      -3.523   1.917  -4.517  0.00  0.00    -0.392 OA
ATOM     28  H   UNL     1      -4.312   1.534  -4.105  0.00  0.00    +0.210 HD
ENDBRANCH  26  27
ENDBRANCH   3  26
BRANCH   1  29
ATOM     29  O   UNL     1      -3.664  -1.597  -0.741  0.00  0.00    -0.452 OA
BRANCH  29  40
ATOM     30  C   UNL     1      -3.569  -3.656   0.612  0.00  0.00    +0.181 A 
ATOM     31  O   UNL     1      -3.431  -4.323   1.846  0.00  0.00    -0.451 OA
ATOM     32  C   UNL     1      -3.204  -3.609   2.994  0.00  0.00    +0.147 A 
ATOM     33  C   UNL     1      -3.086  -2.230   2.999  0.00  0.00    +0.109 A 
ATOM     34  C   UNL     1      -2.780  -1.538   4.185  0.00  0.00    +0.135 A 
ATOM     35  C   UNL     1      -2.636  -2.215   5.389  0.00  0.00    +0.091 A 
ATOM     36  C   UNL     1      -2.806  -3.598   5.387  0.00  0.00    +0.124 A 
ATOM     37  C   UNL     1      -3.320  -1.518   1.749  0.00  0.00    +0.238 A 
ATOM     38  O   UNL     1      -3.269  -0.291   1.785  0.00  0.00    -0.283 OA
ATOM     39  C   UNL     1      -3.073  -4.302   4.208  0.00  0.00    +0.092 A 
ATOM     40  C   UNL     1      -3.563  -2.295   0.486  0.00  0.00    +0.214 A 
BRANCH  30  42
ATOM     41  C   UNL     1      -2.700  -5.748  -0.534  0.00  0.00    +0.015 A 
ATOM     42  C   UNL     1      -3.599  -4.647  -0.520  0.00  0.00    +0.025 A 
ATOM     43  C   UNL     1      -4.512  -4.558  -1.579  0.00  0.00    +0.060 A 
ATOM     44  C   UNL     1      -4.465  -5.479  -2.633  0.00  0.00    +0.159 A 
ATOM     45  C   UNL     1      -3.523  -6.504  -2.663  0.00  0.00    +0.158 A 
ATOM     46  C   UNL     1      -2.652  -6.664  -1.604  0.00  0.00    +0.050 A 
BRANCH  45  47
ATOM     47  O   UNL     1      -3.512  -7.329  -3.758  0.00  0.00    -0.503 OA
ATOM     48  H   UNL     1      -2.696  -7.864  -3.739  0.00  0.00    +0.292 HD
ENDBRANCH  45  47
BRANCH  44  49
ATOM     49  O   UNL     1      -5.360  -5.366  -3.662  0.00  0.00    -0.503 OA
ATOM     50  H   UNL     1      -5.161  -6.124  -4.249  0.00  0.00    +0.292 HD
ENDBRANCH  44  49
ENDBRANCH  30  42
BRANCH  36  51
ATOM     51  O   UNL     1      -2.708  -4.294   6.556  0.00  0.00    -0.507 OA
ATOM     52  H   UNL     1      -2.590  -3.673   7.291  0.00  0.00    +0.292 HD
ENDBRANCH  36  51
BRANCH  34  53
ATOM     53  O   UNL     1      -2.583  -0.185   4.237  0.00  0.00    -0.506 OA
ATOM     54  H   UNL     1      -2.738   0.182   3.335  0.00  0.00    +0.292 HD
ENDBRANCH  34  53
ENDBRANCH  29  40
ENDBRANCH   1  29
TORSDOF 17
