REMARK  Name = 
REMARK  9 active torsions:
REMARK  status: ('A' for Active; 'I' for Inactive)
REMARK    1  A    between atoms: C_1  and  O_2
REMARK    2  A    between atoms: O_2  and  C_3
REMARK    3  A    between atoms: C_5  and  O_27
REMARK    4  A    between atoms: C_10  and  C_19
REMARK    5  A    between atoms: C_11  and  O_14
REMARK    6  A    between atoms: O_14  and  S_15
REMARK    7  A    between atoms: S_15  and  O_18
REMARK    8  A    between atoms: C_21  and  O_26
REMARK    9  A    between atoms: C_22  and  O_25
REMARK                            x       y       z     vdW  Elec       q    Type
REMARK                         _______ _______ _______ _____ _____    ______ ____
ROOT
ATOM      1  C   UNL     1       3.195   0.125   1.269  0.00  0.00    +0.127 A 
ATOM      2  C   UNL     1       3.678   1.196   2.019  0.00  0.00    +0.092 A 
ATOM      3  C   UNL     1       4.336   0.963   3.228  0.00  0.00    +0.147 A 
ATOM      4  O   UNL     1       4.754   2.078   3.907  0.00  0.00    -0.451 OA
ATOM      5  C   UNL     1       5.416   1.914   5.108  0.00  0.00    +0.184 A 
ATOM      6  C   UNL     1       5.673   0.728   5.689  0.00  0.00    +0.248 A 
ATOM      7  C   UNL     1       5.163  -0.501   5.014  0.00  0.00    +0.241 A 
ATOM      8  O   UNL     1       5.218  -1.585   5.586  0.00  0.00    -0.283 OA
ATOM      9  C   UNL     1       4.524  -0.335   3.695  0.00  0.00    +0.109 A 
ATOM     10  C   UNL     1       4.068  -1.411   2.923  0.00  0.00    +0.135 A 
ATOM     11  C   UNL     1       3.414  -1.181   1.711  0.00  0.00    +0.092 A 
ENDROOT
BRANCH   5  12
ATOM     12  C   UNL     1       5.810   3.200   5.709  0.00  0.00    +0.025 A 
ATOM     13  C   UNL     1       7.052   3.779   5.395  0.00  0.00    +0.015 A 
ATOM     14  C   UNL     1       7.413   5.022   5.927  0.00  0.00    +0.050 A 
ATOM     15  C   UNL     1       6.528   5.686   6.762  0.00  0.00    +0.158 A 
ATOM     16  C   UNL     1       5.290   5.128   7.074  0.00  0.00    +0.159 A 
ATOM     17  C   UNL     1       4.924   3.886   6.556  0.00  0.00    +0.060 A 
BRANCH  15  18
ATOM     18  O   UNL     1       6.877   6.903   7.274  0.00  0.00    -0.503 OA
ATOM     19  H   UNL     1       6.115   7.168   7.827  0.00  0.00    +0.292 HD
ENDBRANCH  15  18
BRANCH  16  20
ATOM     20  O   UNL     1       4.462   5.849   7.889  0.00  0.00    -0.503 OA
ATOM     21  H   UNL     1       3.633   5.355   8.002  0.00  0.00    +0.292 HD
ENDBRANCH  16  20
ENDBRANCH   5  12
BRANCH   1  23
ATOM     22  C   UNL     1       1.779   1.440  -0.083  0.00  0.00    +0.277 C 
ATOM     23  O   UNL     1       2.530   0.239   0.080  0.00  0.00    -0.495 OA
ENDBRANCH   1  23
BRANCH  10  24
ATOM     24  O   UNL     1       4.251  -2.699   3.340  0.00  0.00    -0.506 OA
ATOM     25  H   UNL     1       3.894  -3.322   2.684  0.00  0.00    +0.292 HD
ENDBRANCH  10  24
BRANCH   6  26
ATOM     26  O   UNL     1       6.304   0.644   6.923  0.00  0.00    -0.317 OA
BRANCH  26  27
ATOM     27  S   UNL     1       7.289  -0.589   7.346  0.00  0.00    +0.252 S 
ATOM     28  O   UNL     1       7.985  -0.195   8.550  0.00  0.00    -0.108 OA
ATOM     29  O   UNL     1       8.026  -1.020   6.175  0.00  0.00    -0.108 OA
BRANCH  27  30
ATOM     30  O   UNL     1       6.283  -1.786   7.752  0.00  0.00    -0.222 OA
ATOM     31  H   UNL     1       5.816  -2.070   6.923  0.00  0.00    +0.248 HD
ENDBRANCH  27  30
ENDBRANCH  26  27
ENDBRANCH   6  26
TORSDOF 8
