REMARK  Name = 
REMARK  30 active torsions:
REMARK  status: ('A' for Active; 'I' for Inactive)
REMARK    1  A    between atoms: C_1  and  C_2
REMARK    2  A    between atoms: C_3  and  O_78
REMARK    3  A    between atoms: C_5  and  O_77
REMARK    4  A    between atoms: C_6  and  O_76
REMARK    5  A    between atoms: C_8  and  O_11
REMARK    6  A    between atoms: O_11  and  C_12
REMARK    7  A    between atoms: C_13  and  O_75
REMARK    8  A    between atoms: C_15  and  O_74
REMARK    9  A    between atoms: C_17  and  C_58
REMARK   10  A    between atoms: C_19  and  O_21
REMARK   11  A    between atoms: O_21  and  C_22
REMARK   12  A    between atoms: C_22  and  C_23
REMARK   13  A    between atoms: C_24  and  O_57
REMARK   14  A    between atoms: C_26  and  O_56
REMARK   15  A    between atoms: C_28  and  O_55
REMARK   16  A    between atoms: C_29  and  O_32
REMARK   17  A    between atoms: O_32  and  C_33
REMARK   18  A    between atoms: C_34  and  C_46
REMARK   19  A    between atoms: C_38  and  O_45
REMARK   20  A    between atoms: C_40  and  O_44
REMARK   21  A    between atoms: C_48  and  O_53
REMARK   22  A    between atoms: C_49  and  O_52
REMARK   23  A    between atoms: O_53  and  C_54
REMARK   24  A    between atoms: C_58  and  O_59
REMARK   25  A    between atoms: O_59  and  C_60
REMARK   26  A    between atoms: C_62  and  O_73
REMARK   27  A    between atoms: C_63  and  O_72
REMARK   28  A    between atoms: C_65  and  O_71
REMARK   29  A    between atoms: C_67  and  C_69
REMARK   30  A    between atoms: C_69  and  O_70
REMARK                            x       y       z     vdW  Elec       q    Type
REMARK                         _______ _______ _______ _____ _____    ______ ____
ROOT
ATOM      1  C   UNL     1       2.761   2.756  -2.784  0.00  0.00    +0.208 C 
ATOM      2  C   UNL     1       1.399   2.420  -3.523  0.00  0.00    +0.282 C 
ATOM      3  O   UNL     1       1.565   2.354  -4.950  0.00  0.00    -0.341 OA
ATOM      4  C   UNL     1       2.081   3.555  -5.579  0.00  0.00    +0.178 C 
ATOM      5  C   UNL     1       3.397   4.022  -4.921  0.00  0.00    +0.177 C 
ATOM      6  C   UNL     1       3.245   4.090  -3.395  0.00  0.00    +0.179 C 
ENDROOT
BRANCH   6   7
ATOM      7  O   UNL     1       4.466   4.556  -2.804  0.00  0.00    -0.386 OA
ATOM      8  H   UNL     1       4.220   5.023  -1.983  0.00  0.00    +0.210 HD
ENDBRANCH   6   7
BRANCH   5   9
ATOM      9  O   UNL     1       3.800   5.300  -5.424  0.00  0.00    -0.386 OA
ATOM     10  H   UNL     1       4.415   5.692  -4.776  0.00  0.00    +0.210 HD
ENDBRANCH   5   9
BRANCH   4  11
ATOM     11  C   UNL     1       1.001   4.663  -5.668  0.00  0.00    +0.197 C 
BRANCH  11  12
ATOM     12  O   UNL     1       1.300   5.837  -6.431  0.00  0.00    -0.346 OA
BRANCH  12  13
ATOM     13  C   UNL     1       1.667   5.666  -7.812  0.00  0.00    +0.282 C 
ATOM     14  O   UNL     1       2.188   6.915  -8.316  0.00  0.00    -0.341 OA
ATOM     15  C   UNL     1       1.237   7.995  -8.225  0.00  0.00    +0.178 C 
ATOM     16  C   UNL     1      -0.044   7.677  -9.034  0.00  0.00    +0.177 C 
ATOM     17  C   UNL     1      -0.623   6.316  -8.616  0.00  0.00    +0.179 C 
ATOM     18  C   UNL     1       0.475   5.238  -8.695  0.00  0.00    +0.201 C 
BRANCH  18  19
ATOM     19  O   UNL     1      -0.037   3.949  -8.343  0.00  0.00    -0.384 OA
ATOM     20  H   UNL     1      -0.878   4.092  -7.869  0.00  0.00    +0.210 HD
ENDBRANCH  18  19
BRANCH  17  21
ATOM     21  O   UNL     1      -1.210   6.369  -7.308  0.00  0.00    -0.386 OA
ATOM     22  H   UNL     1      -0.486   6.502  -6.664  0.00  0.00    +0.210 HD
ENDBRANCH  17  21
BRANCH  16  23
ATOM     23  O   UNL     1       0.238   7.611 -10.436  0.00  0.00    -0.386 OA
ATOM     24  H   UNL     1      -0.609   7.503 -10.906  0.00  0.00    +0.210 HD
ENDBRANCH  16  23
BRANCH  15  25
ATOM     25  C   UNL     1       1.939   9.304  -8.634  0.00  0.00    +0.190 C 
BRANCH  25  26
ATOM     26  O   UNL     1       2.372   9.339  -9.988  0.00  0.00    -0.392 OA
ATOM     27  H   UNL     1       2.596   8.419 -10.226  0.00  0.00    +0.210 HD
ENDBRANCH  25  26
ENDBRANCH  15  25
ENDBRANCH  12  13
ENDBRANCH  11  12
ENDBRANCH   4  11
BRANCH   2  28
ATOM     28  O   UNL     1       0.606   1.325  -3.003  0.00  0.00    -0.346 OA
BRANCH  28  29
ATOM     29  C   UNL     1       0.985  -0.033  -3.325  0.00  0.00    +0.197 C 
BRANCH  29  30
ATOM     30  C   UNL     1      -0.139  -1.047  -2.865  0.00  0.00    +0.179 C 
ATOM     31  O   UNL     1       0.242  -2.436  -2.755  0.00  0.00    -0.331 OA
ATOM     32  C   UNL     1       0.262  -3.241  -3.959  0.00  0.00    +0.340 C 
ATOM     33  C   UNL     1      -0.991  -3.079  -4.866  0.00  0.00    +0.214 C 
ATOM     34  C   UNL     1      -1.425  -1.610  -4.965  0.00  0.00    +0.180 C 
ATOM     35  C   UNL     1      -1.493  -0.949  -3.588  0.00  0.00    +0.177 C 
BRANCH  34  36
ATOM     36  O   UNL     1      -2.730  -1.515  -5.568  0.00  0.00    -0.386 OA
ATOM     37  H   UNL     1      -2.998  -0.581  -5.433  0.00  0.00    +0.210 HD
ENDBRANCH  34  36
BRANCH  35  38
ATOM     38  O   UNL     1      -1.992   0.382  -3.746  0.00  0.00    -0.386 OA
ATOM     39  H   UNL     1      -1.871   0.834  -2.891  0.00  0.00    +0.210 HD
ENDBRANCH  35  38
BRANCH  33  40
ATOM     40  O   UNL     1      -2.063  -3.917  -4.379  0.00  0.00    -0.383 OA
ATOM     41  H   UNL     1      -2.842  -3.356  -4.234  0.00  0.00    +0.210 HD
ENDBRANCH  33  40
BRANCH  32  42
ATOM     42  O   UNL     1       0.363  -4.665  -3.583  0.00  0.00    -0.453 OA
BRANCH  42  43
ATOM     43  C   UNL     1       1.450  -5.365  -4.074  0.00  0.00    +0.214 A 
ATOM     44  C   UNL     1       2.150  -4.868  -5.286  0.00  0.00    +0.238 A 
ATOM     45  O   UNL     1       1.534  -4.375  -6.227  0.00  0.00    -0.283 OA
ATOM     46  C   UNL     1       3.590  -5.101  -5.310  0.00  0.00    +0.109 A 
ATOM     47  C   UNL     1       4.037  -6.260  -4.684  0.00  0.00    +0.147 A 
ATOM     48  C   UNL     1       5.395  -6.553  -4.755  0.00  0.00    +0.092 A 
ATOM     49  C   UNL     1       6.248  -5.671  -5.442  0.00  0.00    +0.124 A 
ATOM     50  C   UNL     1       5.781  -4.500  -6.031  0.00  0.00    +0.091 A 
ATOM     51  O   UNL     1       3.159  -7.100  -4.032  0.00  0.00    -0.451 OA
ATOM     52  C   UNL     1       4.439  -4.212  -5.945  0.00  0.00    +0.135 A 
ATOM     53  C   UNL     1       1.913  -6.588  -3.654  0.00  0.00    +0.181 A 
BRANCH  53  54
ATOM     54  C   UNL     1       1.094  -7.559  -2.851  0.00  0.00    +0.025 A 
ATOM     55  C   UNL     1      -0.226  -7.855  -3.247  0.00  0.00    +0.015 A 
ATOM     56  C   UNL     1      -0.955  -8.898  -2.656  0.00  0.00    +0.050 A 
ATOM     57  C   UNL     1      -0.367  -9.660  -1.660  0.00  0.00    +0.158 A 
ATOM     58  C   UNL     1       0.944  -9.408  -1.242  0.00  0.00    +0.162 A 
ATOM     59  C   UNL     1       1.671  -8.362  -1.843  0.00  0.00    +0.061 A 
BRANCH  58  60
ATOM     60  O   UNL     1       1.400 -10.265  -0.270  0.00  0.00    -0.491 OA
ATOM     61  C   UNL     1       2.734 -10.077   0.179  0.00  0.00    +0.277 C 
ENDBRANCH  58  60
BRANCH  57  62
ATOM     62  O   UNL     1      -1.090 -10.688  -1.111  0.00  0.00    -0.503 OA
ATOM     63  H   UNL     1      -0.493 -11.093  -0.451  0.00  0.00    +0.292 HD
ENDBRANCH  57  62
ENDBRANCH  53  54
BRANCH  52  64
ATOM     64  O   UNL     1       3.942  -3.043  -6.446  0.00  0.00    -0.506 OA
ATOM     65  H   UNL     1       4.603  -2.623  -7.020  0.00  0.00    +0.292 HD
ENDBRANCH  52  64
BRANCH  49  66
ATOM     66  O   UNL     1       7.587  -5.908  -5.565  0.00  0.00    -0.507 OA
ATOM     67  H   UNL     1       7.794  -6.782  -5.195  0.00  0.00    +0.292 HD
ENDBRANCH  49  66
ENDBRANCH  42  43
ENDBRANCH  32  42
ENDBRANCH  29  30
ENDBRANCH  28  29
ENDBRANCH   2  28
BRANCH   1  68
ATOM     68  O   UNL     1       3.612   1.630  -2.933  0.00  0.00    -0.338 OA
BRANCH  68  72
ATOM     69  C   UNL     1       7.452  -0.557  -3.777  0.00  0.00    +0.041 C 
ATOM     70  C   UNL     1       6.314  -0.633  -2.764  0.00  0.00    +0.149 C 
ATOM     71  O   UNL     1       5.227   0.181  -3.173  0.00  0.00    -0.343 OA
ATOM     72  C   UNL     1       5.023   1.530  -2.728  0.00  0.00    +0.282 C 
ATOM     73  C   UNL     1       5.576   1.832  -1.300  0.00  0.00    +0.201 C 
ATOM     74  C   UNL     1       6.894   1.074  -1.018  0.00  0.00    +0.179 C 
ATOM     75  C   UNL     1       6.764  -0.419  -1.320  0.00  0.00    +0.174 C 
BRANCH  75  76
ATOM     76  O   UNL     1       5.824  -1.014  -0.409  0.00  0.00    -0.387 OA
ATOM     77  H   UNL     1       4.961  -0.574  -0.555  0.00  0.00    +0.210 HD
ENDBRANCH  75  76
BRANCH  74  78
ATOM     78  O   UNL     1       7.256   1.249   0.364  0.00  0.00    -0.386 OA
ATOM     79  H   UNL     1       6.635   0.680   0.866  0.00  0.00    +0.210 HD
ENDBRANCH  74  78
BRANCH  73  80
ATOM     80  O   UNL     1       4.620   1.508  -0.271  0.00  0.00    -0.384 OA
ATOM     81  H   UNL     1       4.736   2.188   0.421  0.00  0.00    +0.210 HD
ENDBRANCH  73  80
ENDBRANCH  68  72
ENDBRANCH   1  68
TORSDOF 28
