REMARK  Name = 
REMARK  27 active torsions:
REMARK  status: ('A' for Active; 'I' for Inactive)
REMARK    1  A    between atoms: C_2  and  O_73
REMARK    2  A    between atoms: C_4  and  O_72
REMARK    3  A    between atoms: C_5  and  O_59
REMARK    4  A    between atoms: C_6  and  O_9
REMARK    5  A    between atoms: O_9  and  C_10
REMARK    6  A    between atoms: C_11  and  O_58
REMARK    7  A    between atoms: C_13  and  O_57
REMARK    8  A    between atoms: C_15  and  C_55
REMARK    9  A    between atoms: C_17  and  O_19
REMARK   10  A    between atoms: O_19  and  C_20
REMARK   11  A    between atoms: C_21  and  C_47
REMARK   12  A    between atoms: C_25  and  O_32
REMARK   13  A    between atoms: C_27  and  O_31
REMARK   14  A    between atoms: O_32  and  C_33
REMARK   15  A    between atoms: C_35  and  O_46
REMARK   16  A    between atoms: C_36  and  O_45
REMARK   17  A    between atoms: C_37  and  O_44
REMARK   18  A    between atoms: C_39  and  C_42
REMARK   19  A    between atoms: C_42  and  O_43
REMARK   20  A    between atoms: C_49  and  O_54
REMARK   21  A    between atoms: C_50  and  O_53
REMARK   22  A    between atoms: C_55  and  O_56
REMARK   23  A    between atoms: O_59  and  C_60
REMARK   24  A    between atoms: C_60  and  C_62
REMARK   25  A    between atoms: C_63  and  C_64
REMARK   26  A    between atoms: C_66  and  O_71
REMARK   27  A    between atoms: C_67  and  O_70
REMARK                            x       y       z     vdW  Elec       q    Type
REMARK                         _______ _______ _______ _____ _____    ______ ____
ROOT
ATOM      1  O   UNL     1       2.678  -0.239  -1.469  0.00  0.00    -0.453 OA
ENDROOT
BRANCH   1   2
ATOM      2  C   UNL     1       3.623   0.429  -0.672  0.00  0.00    +0.214 A 
ATOM      3  C   UNL     1       4.956  -0.195  -0.272  0.00  0.00    +0.238 A 
ATOM      4  O   UNL     1       5.221  -1.370  -0.493  0.00  0.00    -0.283 OA
ATOM      5  C   UNL     1       5.905   0.634   0.512  0.00  0.00    +0.109 A 
ATOM      6  C   UNL     1       5.463   1.869   0.931  0.00  0.00    +0.147 A 
ATOM      7  C   UNL     1       6.241   2.686   1.759  0.00  0.00    +0.093 A 
ATOM      8  C   UNL     1       7.488   2.262   2.212  0.00  0.00    +0.131 A 
ATOM      9  C   UNL     1       7.975   1.036   1.750  0.00  0.00    +0.092 A 
ATOM     10  O   UNL     1       4.242   2.378   0.611  0.00  0.00    -0.451 OA
ATOM     11  C   UNL     1       7.195   0.234   0.894  0.00  0.00    +0.135 A 
ATOM     12  C   UNL     1       3.348   1.653  -0.164  0.00  0.00    +0.181 A 
BRANCH  12  13
ATOM     13  C   UNL     1       2.052   2.395  -0.237  0.00  0.00    +0.025 A 
ATOM     14  C   UNL     1       2.073   3.806  -0.065  0.00  0.00    +0.015 A 
ATOM     15  C   UNL     1       0.903   4.535   0.166  0.00  0.00    +0.050 A 
ATOM     16  C   UNL     1      -0.298   3.865   0.221  0.00  0.00    +0.158 A 
ATOM     17  C   UNL     1      -0.356   2.489   0.008  0.00  0.00    +0.159 A 
ATOM     18  C   UNL     1       0.808   1.750  -0.223  0.00  0.00    +0.060 A 
BRANCH  16  19
ATOM     19  O   UNL     1      -1.441   4.550   0.521  0.00  0.00    -0.503 OA
ATOM     20  H   UNL     1      -2.147   3.881   0.452  0.00  0.00    +0.292 HD
ENDBRANCH  16  19
BRANCH  17  21
ATOM     21  O   UNL     1      -1.586   1.887   0.102  0.00  0.00    -0.503 OA
ATOM     22  H   UNL     1      -1.475   0.961  -0.173  0.00  0.00    +0.292 HD
ENDBRANCH  17  21
ENDBRANCH  12  13
BRANCH  11  23
ATOM     23  O   UNL     1       7.721  -0.943   0.437  0.00  0.00    -0.506 OA
ATOM     24  H   UNL     1       8.658  -1.015   0.679  0.00  0.00    +0.292 HD
ENDBRANCH  11  23
BRANCH   8  25
ATOM     25  O   UNL     1       8.291   2.965   3.084  0.00  0.00    -0.461 OA
BRANCH  25  26
ATOM     26  C   UNL     1       7.692   4.113   3.722  0.00  0.00    +0.339 C 
ATOM     27  O   UNL     1       7.458   5.187   2.813  0.00  0.00    -0.331 OA
ATOM     28  C   UNL     1       8.659   5.722   2.229  0.00  0.00    +0.179 C 
ATOM     29  C   UNL     1       9.618   6.261   3.303  0.00  0.00    +0.177 C 
ATOM     30  C   UNL     1       9.858   5.226   4.402  0.00  0.00    +0.180 C 
ATOM     31  C   UNL     1       8.534   4.642   4.904  0.00  0.00    +0.214 C 
BRANCH  31  32
ATOM     32  O   UNL     1       8.827   3.660   5.909  0.00  0.00    -0.383 OA
ATOM     33  H   UNL     1       8.035   3.106   6.031  0.00  0.00    +0.210 HD
ENDBRANCH  31  32
BRANCH  30  34
ATOM     34  O   UNL     1      10.541   5.889   5.487  0.00  0.00    -0.386 OA
ATOM     35  H   UNL     1      10.304   5.390   6.295  0.00  0.00    +0.210 HD
ENDBRANCH  30  34
BRANCH  29  36
ATOM     36  O   UNL     1       9.080   7.444   3.915  0.00  0.00    -0.386 OA
ATOM     37  H   UNL     1       9.666   7.619   4.681  0.00  0.00    +0.210 HD
ENDBRANCH  29  36
BRANCH  28  38
ATOM     38  C   UNL     1       8.246   6.829   1.249  0.00  0.00    +0.190 C 
BRANCH  38  39
ATOM     39  O   UNL     1       7.419   6.328   0.197  0.00  0.00    -0.392 OA
ATOM     40  H   UNL     1       7.777   5.472  -0.089  0.00  0.00    +0.210 HD
ENDBRANCH  38  39
ENDBRANCH  28  38
ENDBRANCH  25  26
ENDBRANCH   8  25
ENDBRANCH   1   2
BRANCH   1  42
ATOM     41  C   UNL     1       2.496  -2.455  -0.410  0.00  0.00    +0.221 C 
ATOM     42  C   UNL     1       2.849  -1.649  -1.695  0.00  0.00    +0.340 C 
ATOM     43  O   UNL     1       2.032  -2.129  -2.790  0.00  0.00    -0.331 OA
ATOM     44  C   UNL     1       2.276  -3.524  -3.113  0.00  0.00    +0.179 C 
ATOM     45  C   UNL     1       2.038  -4.425  -1.884  0.00  0.00    +0.177 C 
ATOM     46  C   UNL     1       2.880  -3.915  -0.708  0.00  0.00    +0.180 C 
BRANCH  46  47
ATOM     47  O   UNL     1       2.742  -4.793   0.422  0.00  0.00    -0.386 OA
ATOM     48  H   UNL     1       3.453  -4.560   1.050  0.00  0.00    +0.210 HD
ENDBRANCH  46  47
BRANCH  45  49
ATOM     49  O   UNL     1       2.367  -5.790  -2.148  0.00  0.00    -0.386 OA
ATOM     50  H   UNL     1       2.350  -6.233  -1.275  0.00  0.00    +0.210 HD
ENDBRANCH  45  49
BRANCH  44  51
ATOM     51  C   UNL     1       3.669  -3.773  -3.747  0.00  0.00    +0.190 C 
BRANCH  51  52
ATOM     52  O   UNL     1       3.901  -2.931  -4.872  0.00  0.00    -0.392 OA
ATOM     53  H   UNL     1       3.131  -3.008  -5.459  0.00  0.00    +0.210 HD
ENDBRANCH  51  52
ENDBRANCH  44  51
BRANCH  41  54
ATOM     54  O   UNL     1       1.088  -2.262  -0.059  0.00  0.00    -0.336 OA
BRANCH  54  57
ATOM     55  C   UNL     1      -1.176  -3.849   2.297  0.00  0.00    +0.197 C 
ATOM     56  O   UNL     1      -0.760  -2.882   1.318  0.00  0.00    -0.345 OA
ATOM     57  C   UNL     1       0.664  -2.986   1.102  0.00  0.00    +0.294 C 
ATOM     58  C   UNL     1       1.379  -2.535   2.387  0.00  0.00    +0.263 C 
ATOM     59  C   UNL     1       1.039  -3.541   3.482  0.00  0.00    +0.191 C 
ATOM     60  C   UNL     1      -0.482  -3.664   3.658  0.00  0.00    +0.172 C 
BRANCH  60  61
ATOM     61  O   UNL     1      -0.754  -4.778   4.512  0.00  0.00    -0.387 OA
ATOM     62  H   UNL     1      -1.717  -4.871   4.604  0.00  0.00    +0.210 HD
ENDBRANCH  60  61
BRANCH  59  63
ATOM     63  O   UNL     1       1.696  -3.161   4.697  0.00  0.00    -0.385 OA
ATOM     64  H   UNL     1       1.262  -2.358   5.033  0.00  0.00    +0.210 HD
ENDBRANCH  59  63
BRANCH  58  65
ATOM     65  O   UNL     1       0.879  -1.231   2.796  0.00  0.00    -0.450 OA
BRANCH  65  66
ATOM     66  C   UNL     1       1.744  -0.193   2.740  0.00  0.00    +0.332 C 
ATOM     67  O   UNL     1       2.910  -0.234   2.391  0.00  0.00    -0.246 OA
BRANCH  66  68
ATOM     68  C   UNL     1       1.034   1.008   3.231  0.00  0.00    +0.092 C 
ATOM     69  C   UNL     1       1.700   2.160   3.403  0.00  0.00    +0.015 C 
BRANCH  69  70
ATOM     70  C   UNL     1       1.110   3.418   3.894  0.00  0.00    -0.021 A 
ATOM     71  C   UNL     1       1.965   4.367   4.484  0.00  0.00    +0.012 A 
ATOM     72  C   UNL     1       1.474   5.595   4.938  0.00  0.00    +0.050 A 
ATOM     73  C   UNL     1       0.128   5.880   4.788  0.00  0.00    +0.158 A 
ATOM     74  C   UNL     1      -0.730   4.961   4.197  0.00  0.00    +0.159 A 
ATOM     75  C   UNL     1      -0.250   3.732   3.749  0.00  0.00    +0.057 A 
BRANCH  74  76
ATOM     76  O   UNL     1      -2.045   5.315   4.066  0.00  0.00    -0.503 OA
ATOM     77  H   UNL     1      -2.472   4.659   3.489  0.00  0.00    +0.292 HD
ENDBRANCH  74  76
BRANCH  73  78
ATOM     78  O   UNL     1      -0.350   7.089   5.208  0.00  0.00    -0.503 OA
ATOM     79  H   UNL     1      -1.292   7.081   4.943  0.00  0.00    +0.292 HD
ENDBRANCH  73  78
ENDBRANCH  69  70
ENDBRANCH  66  68
ENDBRANCH  65  66
ENDBRANCH  58  65
ENDBRANCH  54  57
ENDBRANCH  41  54
ENDBRANCH   1  42
TORSDOF 27
