REMARK  Name = 
REMARK  21 active torsions:
REMARK  status: ('A' for Active; 'I' for Inactive)
REMARK    1  A    between atoms: C_1  and  C_2
REMARK    2  A    between atoms: C_3  and  O_35
REMARK    3  A    between atoms: C_5  and  O_34
REMARK    4  A    between atoms: C_6  and  O_33
REMARK    5  A    between atoms: C_8  and  O_11
REMARK    6  A    between atoms: O_11  and  C_12
REMARK    7  A    between atoms: C_13  and  C_25
REMARK    8  A    between atoms: C_17  and  O_24
REMARK    9  A    between atoms: C_19  and  O_23
REMARK   10  A    between atoms: C_27  and  O_32
REMARK   11  A    between atoms: C_28  and  O_31
REMARK   12  A    between atoms: O_35  and  C_36
REMARK   13  A    between atoms: C_38  and  O_61
REMARK   14  A    between atoms: C_39  and  O_60
REMARK   15  A    between atoms: C_41  and  O_45
REMARK   16  A    between atoms: O_45  and  C_46
REMARK   17  A    between atoms: C_48  and  O_59
REMARK   18  A    between atoms: C_49  and  O_58
REMARK   19  A    between atoms: C_51  and  O_57
REMARK   20  A    between atoms: C_53  and  C_55
REMARK   21  A    between atoms: C_55  and  O_56
REMARK                            x       y       z     vdW  Elec       q    Type
REMARK                         _______ _______ _______ _____ _____    ______ ____
ROOT
ATOM      1  C   UNL     1       0.622   0.289   0.027  0.00  0.00    +0.041 C 
ATOM      2  C   UNL     1       2.143   0.261  -0.088  0.00  0.00    +0.151 C 
ATOM      3  O   UNL     1       2.622   1.156  -1.116  0.00  0.00    -0.334 OA
ATOM      4  C   UNL     1       2.391   0.689  -2.450  0.00  0.00    +0.339 C 
ATOM      5  C   UNL     1       3.056  -0.694  -2.697  0.00  0.00    +0.214 C 
ATOM      6  C   UNL     1       2.486  -1.670  -1.665  0.00  0.00    +0.180 C 
ATOM      7  C   UNL     1       2.741  -1.164  -0.224  0.00  0.00    +0.181 C 
ENDROOT
BRANCH   6   8
ATOM      8  O   UNL     1       3.037  -2.977  -1.875  0.00  0.00    -0.386 OA
ATOM      9  H   UNL     1       3.984  -2.911  -1.657  0.00  0.00    +0.210 HD
ENDBRANCH   6   8
BRANCH   5  10
ATOM     10  O   UNL     1       4.502  -0.651  -2.647  0.00  0.00    -0.383 OA
ATOM     11  H   UNL     1       4.808  -1.409  -3.180  0.00  0.00    +0.210 HD
ENDBRANCH   5  10
BRANCH   7  12
ATOM     12  O   UNL     1       4.171  -1.200  -0.020  0.00  0.00    -0.340 OA
BRANCH  12  13
ATOM     13  C   UNL     1       4.658  -0.872   1.291  0.00  0.00    +0.282 C 
ATOM     14  O   UNL     1       4.503   0.509   1.618  0.00  0.00    -0.346 OA
ATOM     15  C   UNL     1       5.091   1.383   0.651  0.00  0.00    +0.197 C 
ATOM     16  C   UNL     1       6.572   1.134   0.358  0.00  0.00    +0.178 C 
ATOM     17  C   UNL     1       6.889  -0.366   0.286  0.00  0.00    +0.179 C 
ATOM     18  C   UNL     1       6.162  -1.160   1.381  0.00  0.00    +0.201 C 
BRANCH  17  19
ATOM     19  O   UNL     1       6.605  -0.920  -1.008  0.00  0.00    -0.386 OA
ATOM     20  H   UNL     1       5.641  -0.798  -1.185  0.00  0.00    +0.210 HD
ENDBRANCH  17  19
BRANCH  18  21
ATOM     21  O   UNL     1       6.466  -2.552   1.259  0.00  0.00    -0.384 OA
ATOM     22  H   UNL     1       6.764  -2.682   0.338  0.00  0.00    +0.210 HD
ENDBRANCH  18  21
BRANCH  16  23
ATOM     23  O   UNL     1       7.336   1.806   1.378  0.00  0.00    -0.341 OA
BRANCH  23  24
ATOM     24  C   UNL     1       8.585   2.264   0.841  0.00  0.00    +0.282 C 
ATOM     25  O   UNL     1       9.445   1.171   0.551  0.00  0.00    -0.341 OA
ATOM     26  C   UNL     1       9.918   0.513   1.747  0.00  0.00    +0.178 C 
ATOM     27  C   UNL     1      10.815   1.492   2.518  0.00  0.00    +0.177 C 
ATOM     28  C   UNL     1       9.958   2.683   2.973  0.00  0.00    +0.179 C 
ATOM     29  C   UNL     1       9.232   3.314   1.770  0.00  0.00    +0.201 C 
BRANCH  28  30
ATOM     30  O   UNL     1       9.073   2.245   4.011  0.00  0.00    -0.386 OA
ATOM     31  H   UNL     1       8.161   2.283   3.667  0.00  0.00    +0.210 HD
ENDBRANCH  28  30
BRANCH  27  32
ATOM     32  O   UNL     1      11.862   1.974   1.670  0.00  0.00    -0.386 OA
ATOM     33  H   UNL     1      12.468   2.497   2.223  0.00  0.00    +0.210 HD
ENDBRANCH  27  32
BRANCH  29  34
ATOM     34  O   UNL     1       8.298   4.304   2.223  0.00  0.00    -0.384 OA
ATOM     35  H   UNL     1       7.519   4.282   1.639  0.00  0.00    +0.210 HD
ENDBRANCH  29  34
BRANCH  26  36
ATOM     36  C   UNL     1      10.611  -0.791   1.323  0.00  0.00    +0.190 C 
BRANCH  36  37
ATOM     37  O   UNL     1      11.670  -0.577   0.398  0.00  0.00    -0.392 OA
ATOM     38  H   UNL     1      11.418   0.218  -0.110  0.00  0.00    +0.210 HD
ENDBRANCH  36  37
ENDBRANCH  26  36
ENDBRANCH  23  24
ENDBRANCH  16  23
ENDBRANCH  12  13
ENDBRANCH   7  12
BRANCH   4  39
ATOM     39  O   UNL     1       2.851   1.638  -3.431  0.00  0.00    -0.453 OA
BRANCH  39  40
ATOM     40  C   UNL     1       2.158   1.623  -4.646  0.00  0.00    +0.214 A 
ATOM     41  C   UNL     1       1.013   0.688  -4.873  0.00  0.00    +0.238 A 
ATOM     42  O   UNL     1       0.867  -0.361  -4.257  0.00  0.00    -0.283 OA
ATOM     43  C   UNL     1       0.090   0.988  -5.947  0.00  0.00    +0.109 A 
ATOM     44  C   UNL     1       0.578   1.767  -6.979  0.00  0.00    +0.147 A 
ATOM     45  C   UNL     1      -0.177   1.862  -8.149  0.00  0.00    +0.092 A 
ATOM     46  C   UNL     1      -1.386   1.151  -8.249  0.00  0.00    +0.124 A 
ATOM     47  C   UNL     1      -1.893   0.415  -7.185  0.00  0.00    +0.091 A 
ATOM     48  O   UNL     1       1.784   2.431  -6.907  0.00  0.00    -0.451 OA
ATOM     49  C   UNL     1      -1.153   0.342  -6.023  0.00  0.00    +0.135 A 
ATOM     50  C   UNL     1       2.501   2.408  -5.698  0.00  0.00    +0.181 A 
BRANCH  50  51
ATOM     51  C   UNL     1       3.697   3.311  -5.699  0.00  0.00    +0.025 A 
ATOM     52  C   UNL     1       3.661   4.549  -6.374  0.00  0.00    +0.015 A 
ATOM     53  C   UNL     1       4.768   5.413  -6.381  0.00  0.00    +0.050 A 
ATOM     54  C   UNL     1       5.924   5.045  -5.715  0.00  0.00    +0.158 A 
ATOM     55  C   UNL     1       5.999   3.817  -5.069  0.00  0.00    +0.159 A 
ATOM     56  C   UNL     1       4.906   2.948  -5.071  0.00  0.00    +0.060 A 
BRANCH  55  57
ATOM     57  O   UNL     1       7.172   3.502  -4.437  0.00  0.00    -0.503 OA
ATOM     58  H   UNL     1       7.088   2.602  -4.076  0.00  0.00    +0.292 HD
ENDBRANCH  55  57
BRANCH  54  59
ATOM     59  O   UNL     1       6.993   5.895  -5.700  0.00  0.00    -0.503 OA
ATOM     60  H   UNL     1       7.669   5.437  -5.160  0.00  0.00    +0.292 HD
ENDBRANCH  54  59
ENDBRANCH  50  51
BRANCH  49  61
ATOM     61  O   UNL     1      -1.652  -0.340  -4.946  0.00  0.00    -0.506 OA
ATOM     62  H   UNL     1      -2.370  -0.931  -5.226  0.00  0.00    +0.292 HD
ENDBRANCH  49  61
BRANCH  46  63
ATOM     63  O   UNL     1      -2.141   1.171  -9.383  0.00  0.00    -0.507 OA
ATOM     64  H   UNL     1      -1.674   1.669 -10.070  0.00  0.00    +0.292 HD
ENDBRANCH  46  63
ENDBRANCH  39  40
ENDBRANCH   4  39
TORSDOF 20
