REMARK  Name = 
REMARK  22 active torsions:
REMARK  status: ('A' for Active; 'I' for Inactive)
REMARK    1  A    between atoms: C_1  and  C_2
REMARK    2  A    between atoms: C_3  and  O_62
REMARK    3  A    between atoms: C_5  and  O_61
REMARK    4  A    between atoms: C_6  and  O_60
REMARK    5  A    between atoms: C_8  and  O_11
REMARK    6  A    between atoms: O_11  and  C_12
REMARK    7  A    between atoms: C_14  and  C_59
REMARK    8  A    between atoms: C_16  and  O_23
REMARK    9  A    between atoms: C_18  and  O_22
REMARK   10  A    between atoms: C_20  and  O_21
REMARK   11  A    between atoms: O_23  and  C_24
REMARK   12  A    between atoms: C_25  and  C_51
REMARK   13  A    between atoms: C_29  and  O_36
REMARK   14  A    between atoms: C_31  and  O_35
REMARK   15  A    between atoms: O_36  and  C_37
REMARK   16  A    between atoms: C_39  and  O_50
REMARK   17  A    between atoms: C_40  and  O_49
REMARK   18  A    between atoms: C_42  and  O_48
REMARK   19  A    between atoms: C_44  and  C_46
REMARK   20  A    between atoms: C_46  and  O_47
REMARK   21  A    between atoms: C_53  and  O_58
REMARK   22  A    between atoms: C_54  and  O_57
REMARK                            x       y       z     vdW  Elec       q    Type
REMARK                         _______ _______ _______ _____ _____    ______ ____
ROOT
ATOM      1  C   UNL     1       2.118   2.533  -7.924  0.00  0.00    +0.214 A 
ATOM      2  C   UNL     1       2.575   2.799  -9.356  0.00  0.00    +0.238 A 
ATOM      3  O   UNL     1       3.201   3.806  -9.649  0.00  0.00    -0.283 OA
ATOM      4  C   UNL     1       2.190   1.787 -10.382  0.00  0.00    +0.109 A 
ATOM      5  C   UNL     1       1.347   0.783  -9.962  0.00  0.00    +0.147 A 
ATOM      6  C   UNL     1       1.053  -0.336 -10.735  0.00  0.00    +0.093 A 
ATOM      7  C   UNL     1       1.553  -0.449 -12.018  0.00  0.00    +0.131 A 
ATOM      8  C   UNL     1       2.271   0.637 -12.535  0.00  0.00    +0.092 A 
ATOM      9  O   UNL     1       0.673   0.830  -8.795  0.00  0.00    -0.451 OA
ATOM     10  C   UNL     1       2.604   1.742 -11.716  0.00  0.00    +0.135 A 
ATOM     11  C   UNL     1       1.105   1.646  -7.773  0.00  0.00    +0.181 A 
ENDROOT
BRANCH  11  12
ATOM     12  C   UNL     1       0.297   1.272  -6.571  0.00  0.00    +0.025 A 
ATOM     13  C   UNL     1       0.806   1.196  -5.272  0.00  0.00    +0.015 A 
ATOM     14  C   UNL     1       0.089   0.516  -4.272  0.00  0.00    +0.050 A 
ATOM     15  C   UNL     1      -1.130  -0.085  -4.568  0.00  0.00    +0.158 A 
ATOM     16  C   UNL     1      -1.698   0.060  -5.823  0.00  0.00    +0.159 A 
ATOM     17  C   UNL     1      -1.010   0.752  -6.807  0.00  0.00    +0.060 A 
BRANCH  16  18
ATOM     18  O   UNL     1      -2.903  -0.540  -6.061  0.00  0.00    -0.503 OA
ATOM     19  H   UNL     1      -3.240  -0.226  -6.918  0.00  0.00    +0.292 HD
ENDBRANCH  16  18
BRANCH  15  20
ATOM     20  O   UNL     1      -1.757  -0.854  -3.629  0.00  0.00    -0.503 OA
ATOM     21  H   UNL     1      -2.504  -1.266  -4.112  0.00  0.00    +0.292 HD
ENDBRANCH  15  20
ENDBRANCH  11  12
BRANCH  10  22
ATOM     22  O   UNL     1       3.326   2.770 -12.251  0.00  0.00    -0.506 OA
ATOM     23  H   UNL     1       3.540   2.590 -13.180  0.00  0.00    +0.292 HD
ENDBRANCH  10  22
BRANCH   7  24
ATOM     24  O   UNL     1       1.378  -1.549 -12.817  0.00  0.00    -0.461 OA
BRANCH  24  25
ATOM     25  C   UNL     1       0.794  -2.721 -12.199  0.00  0.00    +0.339 C 
ATOM     26  O   UNL     1       1.614  -3.347 -11.206  0.00  0.00    -0.331 OA
ATOM     27  C   UNL     1       2.810  -3.956 -11.714  0.00  0.00    +0.179 C 
ATOM     28  C   UNL     1       2.518  -4.981 -12.830  0.00  0.00    +0.177 C 
ATOM     29  C   UNL     1       1.587  -4.423 -13.904  0.00  0.00    +0.180 C 
ATOM     30  C   UNL     1       0.376  -3.748 -13.270  0.00  0.00    +0.214 C 
BRANCH  30  31
ATOM     31  O   UNL     1      -0.434  -3.161 -14.296  0.00  0.00    -0.383 OA
ATOM     32  H   UNL     1      -0.204  -2.213 -14.338  0.00  0.00    +0.210 HD
ENDBRANCH  30  31
BRANCH  29  33
ATOM     33  O   UNL     1       2.320  -3.507 -14.732  0.00  0.00    -0.386 OA
ATOM     34  H   UNL     1       1.668  -3.156 -15.369  0.00  0.00    +0.210 HD
ENDBRANCH  29  33
BRANCH  28  35
ATOM     35  O   UNL     1       3.743  -5.411 -13.440  0.00  0.00    -0.386 OA
ATOM     36  H   UNL     1       3.913  -4.757 -14.154  0.00  0.00    +0.210 HD
ENDBRANCH  28  35
BRANCH  27  37
ATOM     37  C   UNL     1       3.507  -4.680 -10.540  0.00  0.00    +0.190 C 
BRANCH  37  38
ATOM     38  O   UNL     1       4.783  -5.205 -10.889  0.00  0.00    -0.392 OA
ATOM     39  H   UNL     1       4.694  -5.641 -11.763  0.00  0.00    +0.210 HD
ENDBRANCH  37  38
ENDBRANCH  27  37
ENDBRANCH  24  25
ENDBRANCH   7  24
BRANCH   1  40
ATOM     40  O   UNL     1       2.644   3.210  -6.840  0.00  0.00    -0.453 OA
BRANCH  40  44
ATOM     41  C   UNL     1       6.732   4.237  -6.105  0.00  0.00    +0.181 C 
ATOM     42  C   UNL     1       5.618   5.103  -5.456  0.00  0.00    +0.180 C 
ATOM     43  C   UNL     1       4.266   4.353  -5.484  0.00  0.00    +0.214 C 
ATOM     44  C   UNL     1       3.921   3.880  -6.926  0.00  0.00    +0.339 C 
ATOM     45  O   UNL     1       5.009   3.057  -7.415  0.00  0.00    -0.334 OA
ATOM     46  C   UNL     1       6.215   3.845  -7.521  0.00  0.00    +0.151 C 
ATOM     47  C   UNL     1       7.229   3.143  -8.423  0.00  0.00    +0.041 C 
BRANCH  43  48
ATOM     48  O   UNL     1       4.307   3.231  -4.577  0.00  0.00    -0.383 OA
ATOM     49  H   UNL     1       5.072   2.681  -4.850  0.00  0.00    +0.210 HD
ENDBRANCH  43  48
BRANCH  42  50
ATOM     50  O   UNL     1       5.492   6.352  -6.145  0.00  0.00    -0.386 OA
ATOM     51  H   UNL     1       6.082   6.991  -5.704  0.00  0.00    +0.210 HD
ENDBRANCH  42  50
BRANCH  41  52
ATOM     52  O   UNL     1       6.951   3.161  -5.181  0.00  0.00    -0.340 OA
BRANCH  52  56
ATOM     53  C   UNL     1       8.190  -0.780  -5.920  0.00  0.00    +0.041 C 
ATOM     54  C   UNL     1       8.676   0.013  -4.703  0.00  0.00    +0.149 C 
ATOM     55  O   UNL     1       7.862   1.171  -4.454  0.00  0.00    -0.343 OA
ATOM     56  C   UNL     1       7.934   2.178  -5.474  0.00  0.00    +0.282 C 
ATOM     57  C   UNL     1       9.379   2.717  -5.614  0.00  0.00    +0.201 C 
ATOM     58  C   UNL     1      10.344   1.543  -5.847  0.00  0.00    +0.179 C 
ATOM     59  C   UNL     1      10.149   0.431  -4.805  0.00  0.00    +0.174 C 
BRANCH  59  60
ATOM     60  O   UNL     1      10.603   0.934  -3.535  0.00  0.00    -0.387 OA
ATOM     61  H   UNL     1       9.950   1.617  -3.260  0.00  0.00    +0.210 HD
ENDBRANCH  59  60
BRANCH  58  62
ATOM     62  O   UNL     1      11.693   2.033  -5.784  0.00  0.00    -0.386 OA
ATOM     63  H   UNL     1      12.005   1.823  -4.877  0.00  0.00    +0.210 HD
ENDBRANCH  58  62
BRANCH  57  64
ATOM     64  O   UNL     1       9.796   3.445  -4.444  0.00  0.00    -0.384 OA
ATOM     65  H   UNL     1      10.730   3.691  -4.607  0.00  0.00    +0.210 HD
ENDBRANCH  57  64
ENDBRANCH  52  56
ENDBRANCH  41  52
ENDBRANCH  40  44
ENDBRANCH   1  40
TORSDOF 20
