REMARK  Name = 
REMARK  24 active torsions:
REMARK  status: ('A' for Active; 'I' for Inactive)
REMARK    1  A    between atoms: C_3  and  O_64
REMARK    2  A    between atoms: C_4  and  O_63
REMARK    3  A    between atoms: C_6  and  C_7
REMARK    4  A    between atoms: C_8  and  O_20
REMARK    5  A    between atoms: C_12  and  O_19
REMARK    6  A    between atoms: C_14  and  O_18
REMARK    7  A    between atoms: O_20  and  C_21
REMARK    8  A    between atoms: C_23  and  O_34
REMARK    9  A    between atoms: C_24  and  O_33
REMARK   10  A    between atoms: C_26  and  O_32
REMARK   11  A    between atoms: C_28  and  C_30
REMARK   12  A    between atoms: C_30  and  O_31
REMARK   13  A    between atoms: O_34  and  C_35
REMARK   14  A    between atoms: C_37  and  O_48
REMARK   15  A    between atoms: C_38  and  O_47
REMARK   16  A    between atoms: C_40  and  O_46
REMARK   17  A    between atoms: C_42  and  C_44
REMARK   18  A    between atoms: C_44  and  O_45
REMARK   19  A    between atoms: O_48  and  C_49
REMARK   20  A    between atoms: C_51  and  O_62
REMARK   21  A    between atoms: C_52  and  O_61
REMARK   22  A    between atoms: C_54  and  O_60
REMARK   23  A    between atoms: C_56  and  C_58
REMARK   24  A    between atoms: C_58  and  O_59
REMARK                            x       y       z     vdW  Elec       q    Type
REMARK                         _______ _______ _______ _____ _____    ______ ____
ROOT
ATOM      1  C   UNL     1      -4.141  -0.559  -1.352  0.00  0.00    +0.340 C 
ATOM      2  O   UNL     1      -3.840   0.418  -2.405  0.00  0.00    -0.331 OA
ATOM      3  C   UNL     1      -3.273  -0.088  -3.650  0.00  0.00    +0.179 C 
ATOM      4  C   UNL     1      -2.194  -1.202  -3.518  0.00  0.00    +0.177 C 
ATOM      5  C   UNL     1      -2.504  -2.163  -2.367  0.00  0.00    +0.180 C 
ATOM      6  C   UNL     1      -2.841  -1.321  -1.080  0.00  0.00    +0.221 C 
ENDROOT
BRANCH   5   7
ATOM      7  O   UNL     1      -3.504  -3.018  -2.929  0.00  0.00    -0.386 OA
ATOM      8  H   UNL     1      -4.364  -2.785  -2.545  0.00  0.00    +0.210 HD
ENDBRANCH   5   7
BRANCH   4   9
ATOM      9  O   UNL     1      -0.874  -0.682  -3.340  0.00  0.00    -0.386 OA
ATOM     10  H   UNL     1      -0.264  -1.422  -3.530  0.00  0.00    +0.210 HD
ENDBRANCH   4   9
BRANCH   6  11
ATOM     11  O   UNL     1      -2.683  -2.008   0.200  0.00  0.00    -0.337 OA
BRANCH  11  12
ATOM     12  C   UNL     1      -2.906  -1.248   1.418  0.00  0.00    +0.283 C 
ATOM     13  O   UNL     1      -2.362   0.075   1.380  0.00  0.00    -0.341 OA
ATOM     14  C   UNL     1      -0.928   0.117   1.279  0.00  0.00    +0.178 C 
ATOM     15  C   UNL     1      -0.173  -0.723   2.331  0.00  0.00    +0.177 C 
ATOM     16  C   UNL     1      -0.878  -2.037   2.745  0.00  0.00    +0.179 C 
ATOM     17  C   UNL     1      -2.403  -1.905   2.781  0.00  0.00    +0.208 C 
BRANCH  16  18
ATOM     18  O   UNL     1      -0.491  -3.094   1.851  0.00  0.00    -0.386 OA
ATOM     19  H   UNL     1      -1.188  -3.778   1.912  0.00  0.00    +0.210 HD
ENDBRANCH  16  18
BRANCH  15  20
ATOM     20  O   UNL     1       1.118  -1.062   1.790  0.00  0.00    -0.386 OA
ATOM     21  H   UNL     1       0.975  -1.927   1.345  0.00  0.00    +0.210 HD
ENDBRANCH  15  20
BRANCH  14  22
ATOM     22  C   UNL     1      -0.524   1.611   1.261  0.00  0.00    +0.190 C 
BRANCH  22  23
ATOM     23  O   UNL     1      -0.418   2.160   2.574  0.00  0.00    -0.392 OA
ATOM     24  H   UNL     1      -0.655   3.102   2.514  0.00  0.00    +0.210 HD
ENDBRANCH  22  23
ENDBRANCH  14  22
BRANCH  17  25
ATOM     25  O   UNL     1      -3.115  -3.127   3.127  0.00  0.00    -0.338 OA
BRANCH  25  26
ATOM     26  C   UNL     1      -2.786  -3.827   4.363  0.00  0.00    +0.282 C 
ATOM     27  O   UNL     1      -3.621  -5.002   4.496  0.00  0.00    -0.341 OA
ATOM     28  C   UNL     1      -5.026  -4.729   4.692  0.00  0.00    +0.178 C 
ATOM     29  C   UNL     1      -5.340  -3.723   5.839  0.00  0.00    +0.177 C 
ATOM     30  C   UNL     1      -4.378  -2.529   5.812  0.00  0.00    +0.179 C 
ATOM     31  C   UNL     1      -2.937  -3.052   5.696  0.00  0.00    +0.201 C 
BRANCH  31  32
ATOM     32  O   UNL     1      -1.947  -2.044   5.867  0.00  0.00    -0.384 OA
ATOM     33  H   UNL     1      -2.313  -1.193   5.576  0.00  0.00    +0.210 HD
ENDBRANCH  31  32
BRANCH  30  34
ATOM     34  O   UNL     1      -4.715  -1.649   4.733  0.00  0.00    -0.386 OA
ATOM     35  H   UNL     1      -4.705  -2.177   3.910  0.00  0.00    +0.210 HD
ENDBRANCH  30  34
BRANCH  29  36
ATOM     36  O   UNL     1      -5.268  -4.352   7.126  0.00  0.00    -0.386 OA
ATOM     37  H   UNL     1      -5.551  -3.710   7.785  0.00  0.00    +0.210 HD
ENDBRANCH  29  36
BRANCH  28  38
ATOM     38  C   UNL     1      -5.780  -6.054   4.917  0.00  0.00    +0.190 C 
BRANCH  38  39
ATOM     39  O   UNL     1      -7.191  -5.845   4.857  0.00  0.00    -0.392 OA
ATOM     40  H   UNL     1      -7.470  -5.528   5.734  0.00  0.00    +0.210 HD
ENDBRANCH  38  39
ENDBRANCH  28  38
ENDBRANCH  25  26
ENDBRANCH  17  25
ENDBRANCH  11  12
ENDBRANCH   6  11
BRANCH   3  41
ATOM     41  C   UNL     1      -2.663   1.108  -4.427  0.00  0.00    +0.190 C 
BRANCH  41  42
ATOM     42  O   UNL     1      -3.624   2.137  -4.660  0.00  0.00    -0.392 OA
ATOM     43  H   UNL     1      -4.281   2.064  -3.946  0.00  0.00    +0.210 HD
ENDBRANCH  41  42
ENDBRANCH   3  41
BRANCH   1  44
ATOM     44  O   UNL     1      -5.309  -1.321  -1.721  0.00  0.00    -0.453 OA
BRANCH  44  55
ATOM     45  C   UNL     1      -7.300  -1.868  -0.439  0.00  0.00    +0.181 A 
ATOM     46  O   UNL     1      -8.161  -2.910   0.013  0.00  0.00    -0.451 OA
ATOM     47  C   UNL     1      -7.783  -4.237  -0.133  0.00  0.00    +0.147 A 
ATOM     48  C   UNL     1      -6.473  -4.605  -0.370  0.00  0.00    +0.109 A 
ATOM     49  C   UNL     1      -6.102  -5.970  -0.444  0.00  0.00    +0.135 A 
ATOM     50  C   UNL     1      -7.045  -6.977  -0.320  0.00  0.00    +0.091 A 
ATOM     51  C   UNL     1      -8.375  -6.611  -0.139  0.00  0.00    +0.124 A 
ATOM     52  C   UNL     1      -5.525  -3.531  -0.603  0.00  0.00    +0.238 A 
ATOM     53  O   UNL     1      -4.344  -3.844  -0.701  0.00  0.00    -0.283 OA
ATOM     54  C   UNL     1      -8.745  -5.256  -0.023  0.00  0.00    +0.092 A 
ATOM     55  C   UNL     1      -6.020  -2.122  -0.822  0.00  0.00    +0.214 A 
BRANCH  45  57
ATOM     56  C   UNL     1      -7.288   0.720  -0.656  0.00  0.00    +0.015 A 
ATOM     57  C   UNL     1      -7.989  -0.495  -0.478  0.00  0.00    +0.025 A 
ATOM     58  C   UNL     1      -9.376  -0.345  -0.260  0.00  0.00    +0.060 A 
ATOM     59  C   UNL     1      -9.997   0.910  -0.289  0.00  0.00    +0.159 A 
ATOM     60  C   UNL     1      -9.278   2.085  -0.533  0.00  0.00    +0.158 A 
ATOM     61  C   UNL     1      -7.914   1.989  -0.695  0.00  0.00    +0.050 A 
BRANCH  60  62
ATOM     62  O   UNL     1      -9.947   3.270  -0.575  0.00  0.00    -0.503 OA
ATOM     63  H   UNL     1      -9.324   3.974  -0.851  0.00  0.00    +0.292 HD
ENDBRANCH  60  62
BRANCH  59  64
ATOM     64  O   UNL     1     -11.346   1.022  -0.104  0.00  0.00    -0.503 OA
ATOM     65  H   UNL     1     -11.526   1.984  -0.186  0.00  0.00    +0.292 HD
ENDBRANCH  59  64
ENDBRANCH  45  57
BRANCH  51  66
ATOM     66  O   UNL     1      -9.350  -7.569  -0.097  0.00  0.00    -0.507 OA
ATOM     67  H   UNL     1      -8.948  -8.447  -0.265  0.00  0.00    +0.292 HD
ENDBRANCH  51  66
BRANCH  49  68
ATOM     68  O   UNL     1      -4.818  -6.404  -0.662  0.00  0.00    -0.506 OA
ATOM     69  H   UNL     1      -4.233  -5.624  -0.757  0.00  0.00    +0.292 HD
ENDBRANCH  49  68
ENDBRANCH  44  55
ENDBRANCH   1  44
TORSDOF 24
