REMARK  Name = 
REMARK  18 active torsions:
REMARK  status: ('A' for Active; 'I' for Inactive)
REMARK    1  A    between atoms: C_3  and  O_49
REMARK    2  A    between atoms: C_4  and  O_48
REMARK    3  A    between atoms: C_6  and  C_7
REMARK    4  A    between atoms: C_8  and  O_20
REMARK    5  A    between atoms: C_12  and  O_19
REMARK    6  A    between atoms: C_14  and  O_18
REMARK    7  A    between atoms: O_20  and  C_21
REMARK    8  A    between atoms: C_23  and  O_47
REMARK    9  A    between atoms: C_24  and  O_46
REMARK   10  A    between atoms: C_25  and  O_45
REMARK   11  A    between atoms: C_27  and  C_29
REMARK   12  A    between atoms: C_29  and  O_30
REMARK   13  A    between atoms: O_30  and  C_31
REMARK   14  A    between atoms: C_33  and  O_44
REMARK   15  A    between atoms: C_34  and  O_43
REMARK   16  A    between atoms: C_36  and  O_42
REMARK   17  A    between atoms: C_38  and  C_40
REMARK   18  A    between atoms: C_40  and  O_41
REMARK                            x       y       z     vdW  Elec       q    Type
REMARK                         _______ _______ _______ _____ _____    ______ ____
ROOT
ATOM      1  C   UNL     1      -3.795  -0.650  -1.219  0.00  0.00    +0.340 C 
ATOM      2  O   UNL     1      -3.623   0.171  -2.395  0.00  0.00    -0.331 OA
ATOM      3  C   UNL     1      -2.966  -0.439  -3.538  0.00  0.00    +0.179 C 
ATOM      4  C   UNL     1      -1.871  -1.513  -3.273  0.00  0.00    +0.177 C 
ATOM      5  C   UNL     1      -2.014  -2.200  -1.918  0.00  0.00    +0.180 C 
ATOM      6  C   UNL     1      -2.374  -1.132  -0.882  0.00  0.00    +0.214 C 
ENDROOT
BRANCH   6   7
ATOM      7  O   UNL     1      -2.178  -1.570   0.456  0.00  0.00    -0.383 OA
ATOM      8  H   UNL     1      -2.979  -1.385   0.971  0.00  0.00    +0.210 HD
ENDBRANCH   6   7
BRANCH   5   9
ATOM      9  O   UNL     1      -0.785  -2.881  -1.630  0.00  0.00    -0.386 OA
ATOM     10  H   UNL     1      -0.260  -2.275  -1.077  0.00  0.00    +0.210 HD
ENDBRANCH   5   9
BRANCH   4  11
ATOM     11  O   UNL     1      -0.545  -0.945  -3.305  0.00  0.00    -0.386 OA
ATOM     12  H   UNL     1       0.061  -1.712  -3.344  0.00  0.00    +0.210 HD
ENDBRANCH   4  11
BRANCH   3  13
ATOM     13  C   UNL     1      -2.345   0.734  -4.330  0.00  0.00    +0.197 C 
BRANCH  13  14
ATOM     14  O   UNL     1      -1.944   0.455  -5.676  0.00  0.00    -0.346 OA
BRANCH  14  15
ATOM     15  C   UNL     1      -2.990   0.052  -6.565  0.00  0.00    +0.282 C 
ATOM     16  O   UNL     1      -2.412  -0.407  -7.801  0.00  0.00    -0.341 OA
ATOM     17  C   UNL     1      -1.716   0.616  -8.542  0.00  0.00    +0.178 C 
ATOM     18  C   UNL     1      -2.626   1.823  -8.837  0.00  0.00    +0.177 C 
ATOM     19  C   UNL     1      -3.295   2.334  -7.559  0.00  0.00    +0.179 C 
ATOM     20  C   UNL     1      -4.014   1.172  -6.859  0.00  0.00    +0.201 C 
BRANCH  20  21
ATOM     21  O   UNL     1      -4.714   1.633  -5.705  0.00  0.00    -0.384 OA
ATOM     22  H   UNL     1      -4.335   2.503  -5.466  0.00  0.00    +0.210 HD
ENDBRANCH  20  21
BRANCH  19  23
ATOM     23  O   UNL     1      -2.317   2.947  -6.694  0.00  0.00    -0.386 OA
ATOM     24  H   UNL     1      -1.742   2.255  -6.326  0.00  0.00    +0.210 HD
ENDBRANCH  19  23
BRANCH  18  25
ATOM     25  O   UNL     1      -1.885   2.886  -9.438  0.00  0.00    -0.386 OA
ATOM     26  H   UNL     1      -1.550   3.444  -8.709  0.00  0.00    +0.210 HD
ENDBRANCH  18  25
BRANCH  17  27
ATOM     27  C   UNL     1      -1.213  -0.022  -9.847  0.00  0.00    +0.190 C 
BRANCH  27  28
ATOM     28  O   UNL     1      -2.301  -0.560 -10.602  0.00  0.00    -0.392 OA
ATOM     29  H   UNL     1      -2.741  -1.197 -10.010  0.00  0.00    +0.210 HD
ENDBRANCH  27  28
ENDBRANCH  17  27
ENDBRANCH  14  15
ENDBRANCH  13  14
ENDBRANCH   3  13
BRANCH   1  30
ATOM     30  O   UNL     1      -4.796  -1.652  -1.481  0.00  0.00    -0.453 OA
BRANCH  30  41
ATOM     31  C   UNL     1      -6.813  -1.855  -0.094  0.00  0.00    +0.181 A 
ATOM     32  O   UNL     1      -7.731  -2.705   0.539  0.00  0.00    -0.451 OA
ATOM     33  C   UNL     1      -7.436  -4.004   0.817  0.00  0.00    +0.147 A 
ATOM     34  C   UNL     1      -6.206  -4.554   0.527  0.00  0.00    +0.109 A 
ATOM     35  C   UNL     1      -5.950  -5.879   0.913  0.00  0.00    +0.135 A 
ATOM     36  C   UNL     1      -6.925  -6.644   1.576  0.00  0.00    +0.091 A 
ATOM     37  C   UNL     1      -8.168  -6.081   1.835  0.00  0.00    +0.124 A 
ATOM     38  C   UNL     1      -5.236  -3.717  -0.194  0.00  0.00    +0.238 A 
ATOM     39  O   UNL     1      -4.151  -4.207  -0.494  0.00  0.00    -0.283 OA
ATOM     40  C   UNL     1      -8.435  -4.776   1.445  0.00  0.00    +0.092 A 
ATOM     41  C   UNL     1      -5.589  -2.279  -0.524  0.00  0.00    +0.214 A 
BRANCH  31  43
ATOM     42  C   UNL     1      -6.753   0.648  -0.701  0.00  0.00    +0.015 A 
ATOM     43  C   UNL     1      -7.373  -0.456  -0.104  0.00  0.00    +0.025 A 
ATOM     44  C   UNL     1      -8.527  -0.179   0.668  0.00  0.00    +0.060 A 
ATOM     45  C   UNL     1      -8.898   1.127   0.970  0.00  0.00    +0.159 A 
ATOM     46  C   UNL     1      -8.133   2.193   0.527  0.00  0.00    +0.158 A 
ATOM     47  C   UNL     1      -7.086   1.965  -0.349  0.00  0.00    +0.050 A 
BRANCH  46  48
ATOM     48  O   UNL     1      -8.443   3.441   0.984  0.00  0.00    -0.503 OA
ATOM     49  H   UNL     1      -7.656   4.002   0.869  0.00  0.00    +0.292 HD
ENDBRANCH  46  48
BRANCH  45  50
ATOM     50  O   UNL     1      -9.993   1.350   1.752  0.00  0.00    -0.503 OA
ATOM     51  H   UNL     1     -10.057   2.324   1.819  0.00  0.00    +0.292 HD
ENDBRANCH  45  50
ENDBRANCH  31  43
BRANCH  37  52
ATOM     52  O   UNL     1      -9.166  -6.790   2.437  0.00  0.00    -0.507 OA
ATOM     53  H   UNL     1      -8.832  -7.681   2.635  0.00  0.00    +0.292 HD
ENDBRANCH  37  52
BRANCH  35  54
ATOM     54  O   UNL     1      -4.751  -6.504   0.686  0.00  0.00    -0.506 OA
ATOM     55  H   UNL     1      -4.174  -5.863   0.201  0.00  0.00    +0.292 HD
ENDBRANCH  35  54
ENDBRANCH  30  41
ENDBRANCH   1  30
TORSDOF 18
