REMARK  Name = 
REMARK  22 active torsions:
REMARK  status: ('A' for Active; 'I' for Inactive)
REMARK    1  A    between atoms: C_3  and  O_59
REMARK    2  A    between atoms: C_4  and  O_58
REMARK    3  A    between atoms: C_6  and  C_7
REMARK    4  A    between atoms: C_8  and  O_20
REMARK    5  A    between atoms: C_12  and  O_19
REMARK    6  A    between atoms: C_14  and  O_18
REMARK    7  A    between atoms: O_20  and  C_21
REMARK    8  A    between atoms: C_23  and  O_32
REMARK    9  A    between atoms: C_25  and  O_31
REMARK   10  A    between atoms: C_26  and  C_29
REMARK   11  A    between atoms: C_29  and  O_30
REMARK   12  A    between atoms: O_32  and  C_33
REMARK   13  A    between atoms: C_35  and  O_46
REMARK   14  A    between atoms: C_36  and  O_45
REMARK   15  A    between atoms: C_38  and  O_44
REMARK   16  A    between atoms: C_40  and  C_42
REMARK   17  A    between atoms: C_42  and  O_43
REMARK   18  A    between atoms: O_46  and  C_47
REMARK   19  A    between atoms: C_47  and  C_49
REMARK   20  A    between atoms: C_51  and  O_57
REMARK   21  A    between atoms: C_52  and  O_56
REMARK   22  A    between atoms: C_53  and  O_55
REMARK                            x       y       z     vdW  Elec       q    Type
REMARK                         _______ _______ _______ _____ _____    ______ ____
ROOT
ATOM      1  C   UNL     1      -2.672  -0.012  -0.221  0.00  0.00    +0.340 C 
ATOM      2  O   UNL     1      -2.503   0.467   1.154  0.00  0.00    -0.331 OA
ATOM      3  C   UNL     1      -2.585   1.921   1.153  0.00  0.00    +0.179 C 
ATOM      4  C   UNL     1      -3.060   2.343  -0.246  0.00  0.00    +0.180 C 
ATOM      5  C   UNL     1      -3.616   1.050  -0.864  0.00  0.00    +0.221 C 
ENDROOT
BRANCH   4   6
ATOM      6  O   UNL     1      -1.912   2.829  -0.979  0.00  0.00    -0.386 OA
ATOM      7  H   UNL     1      -1.588   2.164  -1.608  0.00  0.00    +0.210 HD
ENDBRANCH   4   6
BRANCH   5   8
ATOM      8  O   UNL     1      -5.053   0.830  -0.771  0.00  0.00    -0.336 OA
BRANCH   8   9
ATOM      9  C   UNL     1      -5.651   1.146   0.478  0.00  0.00    +0.295 C 
ATOM     10  O   UNL     1      -5.137   0.299   1.491  0.00  0.00    -0.340 OA
ATOM     11  C   UNL     1      -5.545  -1.062   1.331  0.00  0.00    +0.178 C 
ATOM     12  C   UNL     1      -7.055  -1.174   1.585  0.00  0.00    +0.178 C 
ATOM     13  C   UNL     1      -7.844  -0.210   0.666  0.00  0.00    +0.191 C 
ATOM     14  C   UNL     1      -7.190   1.185   0.585  0.00  0.00    +0.263 C 
BRANCH  13  15
ATOM     15  O   UNL     1      -8.105  -0.795  -0.610  0.00  0.00    -0.385 OA
ATOM     16  H   UNL     1      -7.294  -1.191  -0.966  0.00  0.00    +0.210 HD
ENDBRANCH  13  15
BRANCH  12  17
ATOM     17  O   UNL     1      -7.369  -0.827   2.934  0.00  0.00    -0.386 OA
ATOM     18  H   UNL     1      -8.090  -1.412   3.224  0.00  0.00    +0.210 HD
ENDBRANCH  12  17
BRANCH  11  19
ATOM     19  C   UNL     1      -4.633  -1.930   2.221  0.00  0.00    +0.190 C 
BRANCH  19  20
ATOM     20  O   UNL     1      -4.784  -1.706   3.616  0.00  0.00    -0.392 OA
ATOM     21  H   UNL     1      -4.380  -0.834   3.782  0.00  0.00    +0.210 HD
ENDBRANCH  19  20
ENDBRANCH  11  19
BRANCH  14  22
ATOM     22  O   UNL     1      -7.829   2.018  -0.408  0.00  0.00    -0.450 OA
BRANCH  22  23
ATOM     23  C   UNL     1      -7.705   3.357  -0.222  0.00  0.00    +0.340 C 
ATOM     24  O   UNL     1      -7.025   3.897   0.640  0.00  0.00    -0.245 OA
BRANCH  23  25
ATOM     25  C   UNL     1      -8.523   4.128  -1.198  0.00  0.00    +0.066 A 
ATOM     26  C   UNL     1      -9.328   3.490  -2.152  0.00  0.00    +0.064 A 
ATOM     27  C   UNL     1     -10.088   4.261  -3.023  0.00  0.00    +0.163 A 
ATOM     28  C   UNL     1     -10.055   5.648  -2.954  0.00  0.00    +0.201 A 
ATOM     29  C   UNL     1      -9.254   6.286  -2.011  0.00  0.00    +0.163 A 
ATOM     30  C   UNL     1      -8.485   5.534  -1.126  0.00  0.00    +0.064 A 
BRANCH  29  31
ATOM     31  O   UNL     1      -9.260   7.653  -1.994  0.00  0.00    -0.503 OA
ATOM     32  H   UNL     1      -8.657   7.956  -1.292  0.00  0.00    +0.292 HD
ENDBRANCH  29  31
BRANCH  28  33
ATOM     33  O   UNL     1     -10.823   6.375  -3.822  0.00  0.00    -0.501 OA
ATOM     34  H   UNL     1     -10.657   7.307  -3.570  0.00  0.00    +0.292 HD
ENDBRANCH  28  33
BRANCH  27  35
ATOM     35  O   UNL     1     -10.872   3.640  -3.951  0.00  0.00    -0.503 OA
ATOM     36  H   UNL     1     -11.301   4.369  -4.441  0.00  0.00    +0.292 HD
ENDBRANCH  27  35
ENDBRANCH  23  25
ENDBRANCH  22  23
ENDBRANCH  14  22
ENDBRANCH   8   9
ENDBRANCH   5   8
BRANCH   3  37
ATOM     37  C   UNL     1      -3.398   2.519   2.331  0.00  0.00    +0.190 C 
BRANCH  37  38
ATOM     38  O   UNL     1      -3.470   3.943   2.250  0.00  0.00    -0.392 OA
ATOM     39  H   UNL     1      -4.247   4.179   1.709  0.00  0.00    +0.210 HD
ENDBRANCH  37  38
ENDBRANCH   3  37
BRANCH   1  40
ATOM     40  O   UNL     1      -3.043  -1.416  -0.255  0.00  0.00    -0.453 OA
BRANCH  40  51
ATOM     41  C   UNL     1      -2.419  -3.537  -1.318  0.00  0.00    +0.181 A 
ATOM     42  O   UNL     1      -2.201  -4.315  -2.473  0.00  0.00    -0.451 OA
ATOM     43  C   UNL     1      -2.233  -3.734  -3.709  0.00  0.00    +0.147 A 
ATOM     44  C   UNL     1      -2.556  -2.398  -3.882  0.00  0.00    +0.109 A 
ATOM     45  C   UNL     1      -2.567  -1.801  -5.134  0.00  0.00    +0.135 A 
ATOM     46  C   UNL     1      -2.278  -2.546  -6.265  0.00  0.00    +0.091 A 
ATOM     47  C   UNL     1      -2.019  -3.904  -6.115  0.00  0.00    +0.124 A 
ATOM     48  C   UNL     1      -2.996  -1.677  -2.714  0.00  0.00    +0.238 A 
ATOM     49  O   UNL     1      -3.660  -0.670  -2.915  0.00  0.00    -0.283 OA
ATOM     50  C   UNL     1      -1.982  -4.504  -4.847  0.00  0.00    +0.092 A 
ATOM     51  C   UNL     1      -2.731  -2.213  -1.351  0.00  0.00    +0.214 A 
BRANCH  41  53
ATOM     52  C   UNL     1      -2.834  -5.739  -0.180  0.00  0.00    +0.015 A 
ATOM     53  C   UNL     1      -2.364  -4.403  -0.093  0.00  0.00    +0.025 A 
ATOM     54  C   UNL     1      -1.863  -3.981   1.146  0.00  0.00    +0.060 A 
ATOM     55  C   UNL     1      -1.944  -4.826   2.257  0.00  0.00    +0.159 A 
ATOM     56  C   UNL     1      -2.526  -6.088   2.171  0.00  0.00    +0.158 A 
ATOM     57  C   UNL     1      -2.937  -6.572   0.945  0.00  0.00    +0.050 A 
BRANCH  56  58
ATOM     58  O   UNL     1      -2.687  -6.810   3.321  0.00  0.00    -0.503 OA
ATOM     59  H   UNL     1      -3.418  -7.438   3.176  0.00  0.00    +0.292 HD
ENDBRANCH  56  58
BRANCH  55  60
ATOM     60  O   UNL     1      -1.459  -4.396   3.461  0.00  0.00    -0.503 OA
ATOM     61  H   UNL     1      -1.611  -5.144   4.074  0.00  0.00    +0.292 HD
ENDBRANCH  55  60
ENDBRANCH  41  53
BRANCH  47  62
ATOM     62  O   UNL     1      -1.816  -4.691  -7.211  0.00  0.00    -0.507 OA
ATOM     63  H   UNL     1      -1.967  -4.156  -8.011  0.00  0.00    +0.292 HD
ENDBRANCH  47  62
BRANCH  45  64
ATOM     64  O   UNL     1      -2.879  -0.480  -5.329  0.00  0.00    -0.506 OA
ATOM     65  H   UNL     1      -3.330  -0.158  -4.515  0.00  0.00    +0.292 HD
ENDBRANCH  45  64
ENDBRANCH  40  51
ENDBRANCH   1  40
TORSDOF 22
