REMARK  Name = 
REMARK  23 active torsions:
REMARK  status: ('A' for Active; 'I' for Inactive)
REMARK    1  A    between atoms: C_1  and  C_2
REMARK    2  A    between atoms: C_3  and  O_62
REMARK    3  A    between atoms: C_5  and  O_47
REMARK    4  A    between atoms: C_7  and  O_46
REMARK    5  A    between atoms: C_8  and  O_11
REMARK    6  A    between atoms: O_11  and  C_12
REMARK    7  A    between atoms: C_12  and  C_13
REMARK    8  A    between atoms: C_14  and  O_45
REMARK    9  A    between atoms: C_16  and  O_44
REMARK   10  A    between atoms: C_17  and  O_43
REMARK   11  A    between atoms: C_18  and  O_21
REMARK   12  A    between atoms: O_21  and  C_22
REMARK   13  A    between atoms: C_23  and  C_35
REMARK   14  A    between atoms: C_27  and  O_34
REMARK   15  A    between atoms: C_29  and  O_33
REMARK   16  A    between atoms: C_37  and  O_42
REMARK   17  A    between atoms: C_38  and  O_41
REMARK   18  A    between atoms: O_47  and  C_48
REMARK   19  A    between atoms: C_50  and  O_61
REMARK   20  A    between atoms: C_51  and  O_60
REMARK   21  A    between atoms: C_53  and  O_59
REMARK   22  A    between atoms: C_55  and  C_57
REMARK   23  A    between atoms: C_57  and  O_58
REMARK                            x       y       z     vdW  Elec       q    Type
REMARK                         _______ _______ _______ _____ _____    ______ ____
ROOT
ATOM      1  C   UNL     1       3.127   3.991  -4.423  0.00  0.00    +0.179 C 
ATOM      2  O   UNL     1       3.615   5.054  -3.568  0.00  0.00    -0.331 OA
ATOM      3  C   UNL     1       2.675   6.020  -3.054  0.00  0.00    +0.340 C 
ATOM      4  C   UNL     1       1.756   6.605  -4.148  0.00  0.00    +0.214 C 
ATOM      5  C   UNL     1       1.077   5.436  -4.862  0.00  0.00    +0.180 C 
ATOM      6  C   UNL     1       2.131   4.511  -5.497  0.00  0.00    +0.177 C 
ENDROOT
BRANCH   4   7
ATOM      7  O   UNL     1       2.489   7.387  -5.116  0.00  0.00    -0.383 OA
ATOM      8  H   UNL     1       3.221   7.826  -4.643  0.00  0.00    +0.210 HD
ENDBRANCH   4   7
BRANCH   6   9
ATOM      9  O   UNL     1       2.852   5.188  -6.540  0.00  0.00    -0.386 OA
ATOM     10  H   UNL     1       3.292   5.966  -6.143  0.00  0.00    +0.210 HD
ENDBRANCH   6   9
BRANCH   5  11
ATOM     11  O   UNL     1       0.160   5.922  -5.843  0.00  0.00    -0.386 OA
ATOM     12  H   UNL     1       0.693   6.449  -6.471  0.00  0.00    +0.210 HD
ENDBRANCH   5  11
BRANCH   3  13
ATOM     13  O   UNL     1       3.408   7.111  -2.449  0.00  0.00    -0.453 OA
BRANCH  13  14
ATOM     14  C   UNL     1       3.004   7.716  -1.257  0.00  0.00    +0.214 A 
ATOM     15  C   UNL     1       2.150   7.045  -0.267  0.00  0.00    +0.238 A 
ATOM     16  O   UNL     1       1.816   5.870  -0.308  0.00  0.00    -0.283 OA
ATOM     17  C   UNL     1       1.726   7.851   0.891  0.00  0.00    +0.109 A 
ATOM     18  C   UNL     1       2.454   8.939   1.304  0.00  0.00    +0.147 A 
ATOM     19  C   UNL     1       2.285   9.489   2.586  0.00  0.00    +0.092 A 
ATOM     20  C   UNL     1       1.272   8.982   3.387  0.00  0.00    +0.124 A 
ATOM     21  C   UNL     1       0.368   8.075   2.853  0.00  0.00    +0.091 A 
ATOM     22  O   UNL     1       3.342   9.467   0.447  0.00  0.00    -0.451 OA
ATOM     23  C   UNL     1       0.637   7.470   1.622  0.00  0.00    +0.135 A 
ATOM     24  C   UNL     1       3.513   8.879  -0.800  0.00  0.00    +0.181 A 
BRANCH  24  25
ATOM     25  C   UNL     1       4.628   9.555  -1.426  0.00  0.00    +0.025 A 
ATOM     26  C   UNL     1       5.863   9.099  -0.949  0.00  0.00    +0.015 A 
ATOM     27  C   UNL     1       6.958   9.932  -0.977  0.00  0.00    +0.050 A 
ATOM     28  C   UNL     1       6.860  11.122  -1.684  0.00  0.00    +0.158 A 
ATOM     29  C   UNL     1       5.651  11.546  -2.245  0.00  0.00    +0.159 A 
ATOM     30  C   UNL     1       4.498  10.801  -2.047  0.00  0.00    +0.060 A 
BRANCH  29  31
ATOM     31  O   UNL     1       5.608  12.691  -2.986  0.00  0.00    -0.503 OA
ATOM     32  H   UNL     1       4.746  12.745  -3.429  0.00  0.00    +0.292 HD
ENDBRANCH  29  31
BRANCH  28  33
ATOM     33  O   UNL     1       8.000  11.843  -1.866  0.00  0.00    -0.503 OA
ATOM     34  H   UNL     1       8.685  11.181  -2.060  0.00  0.00    +0.292 HD
ENDBRANCH  28  33
ENDBRANCH  24  25
BRANCH  23  35
ATOM     35  O   UNL     1      -0.080   6.387   1.209  0.00  0.00    -0.506 OA
ATOM     36  H   UNL     1       0.534   5.805   0.695  0.00  0.00    +0.292 HD
ENDBRANCH  23  35
BRANCH  20  37
ATOM     37  O   UNL     1       1.128   9.280   4.708  0.00  0.00    -0.507 OA
ATOM     38  H   UNL     1       1.770   9.951   4.991  0.00  0.00    +0.292 HD
ENDBRANCH  20  37
ENDBRANCH  13  14
ENDBRANCH   3  13
BRANCH   1  39
ATOM     39  C   UNL     1       2.523   2.732  -3.719  0.00  0.00    +0.197 C 
BRANCH  39  40
ATOM     40  O   UNL     1       3.424   1.872  -3.025  0.00  0.00    -0.346 OA
BRANCH  40  44
ATOM     41  C   UNL     1       5.614   0.987   0.586  0.00  0.00    +0.041 C 
ATOM     42  C   UNL     1       4.296   0.330   0.177  0.00  0.00    +0.149 C 
ATOM     43  O   UNL     1       4.016   0.570  -1.219  0.00  0.00    -0.343 OA
ATOM     44  C   UNL     1       3.567   1.890  -1.600  0.00  0.00    +0.282 C 
ATOM     45  C   UNL     1       2.294   2.204  -0.779  0.00  0.00    +0.202 C 
ATOM     46  C   UNL     1       2.661   2.134   0.724  0.00  0.00    +0.186 C 
ATOM     47  C   UNL     1       3.148   0.736   1.109  0.00  0.00    +0.174 C 
BRANCH  47  48
ATOM     48  O   UNL     1       2.089  -0.227   1.064  0.00  0.00    -0.387 OA
ATOM     49  H   UNL     1       1.432   0.083   0.406  0.00  0.00    +0.210 HD
ENDBRANCH  47  48
BRANCH  45  50
ATOM     50  O   UNL     1       1.234   1.267  -1.064  0.00  0.00    -0.384 OA
ATOM     51  H   UNL     1       1.569   0.665  -1.759  0.00  0.00    +0.210 HD
ENDBRANCH  45  50
BRANCH  46  52
ATOM     52  O   UNL     1       1.553   2.593   1.498  0.00  0.00    -0.340 OA
BRANCH  52  53
ATOM     53  C   UNL     1       1.637   2.463   2.931  0.00  0.00    +0.282 C 
ATOM     54  O   UNL     1       0.365   2.901   3.488  0.00  0.00    -0.341 OA
ATOM     55  C   UNL     1       0.106   4.254   3.092  0.00  0.00    +0.178 C 
ATOM     56  C   UNL     1       1.227   5.128   3.681  0.00  0.00    +0.177 C 
ATOM     57  C   UNL     1       2.641   4.750   3.280  0.00  0.00    +0.179 C 
ATOM     58  C   UNL     1       2.825   3.270   3.555  0.00  0.00    +0.201 C 
BRANCH  58  59
ATOM     59  O   UNL     1       4.125   2.877   3.096  0.00  0.00    -0.384 OA
ATOM     60  H   UNL     1       4.527   3.665   2.672  0.00  0.00    +0.210 HD
ENDBRANCH  58  59
BRANCH  57  61
ATOM     61  O   UNL     1       3.027   5.091   1.945  0.00  0.00    -0.386 OA
ATOM     62  H   UNL     1       2.454   4.627   1.302  0.00  0.00    +0.210 HD
ENDBRANCH  57  61
BRANCH  56  63
ATOM     63  O   UNL     1       1.162   5.219   5.103  0.00  0.00    -0.386 OA
ATOM     64  H   UNL     1       1.684   6.008   5.348  0.00  0.00    +0.210 HD
ENDBRANCH  56  63
BRANCH  55  65
ATOM     65  C   UNL     1      -1.304   4.832   3.415  0.00  0.00    +0.190 C 
BRANCH  65  66
ATOM     66  O   UNL     1      -2.380   4.087   2.844  0.00  0.00    -0.392 OA
ATOM     67  H   UNL     1      -2.279   4.117   1.877  0.00  0.00    +0.210 HD
ENDBRANCH  65  66
ENDBRANCH  55  65
ENDBRANCH  52  53
ENDBRANCH  46  52
ENDBRANCH  40  44
ENDBRANCH  39  40
ENDBRANCH   1  39
TORSDOF 22
