REMARK  Name = 
REMARK  20 active torsions:
REMARK  status: ('A' for Active; 'I' for Inactive)
REMARK    1  A    between atoms: C_1  and  C_2
REMARK    2  A    between atoms: C_3  and  O_60
REMARK    3  A    between atoms: C_5  and  O_59
REMARK    4  A    between atoms: C_6  and  O_58
REMARK    5  A    between atoms: C_8  and  O_11
REMARK    6  A    between atoms: O_11  and  C_12
REMARK    7  A    between atoms: C_13  and  O_57
REMARK    8  A    between atoms: C_15  and  C_18
REMARK    9  A    between atoms: C_19  and  O_31
REMARK   10  A    between atoms: C_23  and  O_30
REMARK   11  A    between atoms: C_25  and  O_29
REMARK   12  A    between atoms: O_31  and  C_32
REMARK   13  A    between atoms: C_34  and  O_44
REMARK   14  A    between atoms: C_36  and  O_43
REMARK   15  A    between atoms: C_37  and  O_42
REMARK   16  A    between atoms: C_39  and  C_41
REMARK   17  A    between atoms: O_44  and  C_45
REMARK   18  A    between atoms: C_47  and  O_56
REMARK   19  A    between atoms: C_49  and  O_55
REMARK   20  A    between atoms: C_50  and  O_54
REMARK                            x       y       z     vdW  Elec       q    Type
REMARK                         _______ _______ _______ _____ _____    ______ ____
ROOT
ATOM      1  C   UNL     1       1.214   6.865  -3.333  0.00  0.00    +0.181 A 
ATOM      2  O   UNL     1       0.150   7.494  -3.976  0.00  0.00    -0.451 OA
ATOM      3  C   UNL     1       0.254   8.795  -4.361  0.00  0.00    +0.147 A 
ATOM      4  C   UNL     1       1.265   9.616  -3.904  0.00  0.00    +0.109 A 
ATOM      5  C   UNL     1       1.237  10.983  -4.227  0.00  0.00    +0.135 A 
ATOM      6  C   UNL     1       0.227  11.505  -5.038  0.00  0.00    +0.091 A 
ATOM      7  C   UNL     1      -0.747  10.648  -5.534  0.00  0.00    +0.124 A 
ATOM      8  C   UNL     1       2.336   9.008  -3.098  0.00  0.00    +0.238 A 
ATOM      9  O   UNL     1       3.173   9.772  -2.625  0.00  0.00    -0.283 OA
ATOM     10  C   UNL     1      -0.737   9.295  -5.209  0.00  0.00    +0.092 A 
ATOM     11  C   UNL     1       2.342   7.504  -2.922  0.00  0.00    +0.214 A 
ENDROOT
BRANCH   1  15
ATOM     12  C   UNL     1      -0.313   2.938  -4.145  0.00  0.00    +0.165 A 
ATOM     13  C   UNL     1       0.521   3.631  -5.017  0.00  0.00    +0.050 A 
ATOM     14  C   UNL     1       1.154   4.821  -4.642  0.00  0.00    +0.015 A 
ATOM     15  C   UNL     1       0.939   5.401  -3.388  0.00  0.00    +0.025 A 
ATOM     16  C   UNL     1       0.135   4.693  -2.474  0.00  0.00    +0.060 A 
ATOM     17  C   UNL     1      -0.477   3.476  -2.859  0.00  0.00    +0.159 A 
BRANCH  17  18
ATOM     18  O   UNL     1      -1.291   2.846  -1.951  0.00  0.00    -0.503 OA
ATOM     19  H   UNL     1      -1.728   2.122  -2.439  0.00  0.00    +0.292 HD
ENDBRANCH  17  18
BRANCH  12  20
ATOM     20  O   UNL     1      -1.059   1.832  -4.517  0.00  0.00    -0.457 OA
BRANCH  20  24
ATOM     21  C   UNL     1       2.180   0.858  -7.013  0.00  0.00    +0.041 C 
ATOM     22  C   UNL     1       0.756   0.635  -7.515  0.00  0.00    +0.150 C 
ATOM     23  O   UNL     1      -0.173   1.406  -6.736  0.00  0.00    -0.334 OA
ATOM     24  C   UNL     1      -0.378   0.907  -5.402  0.00  0.00    +0.339 C 
ATOM     25  C   UNL     1      -1.116  -0.451  -5.544  0.00  0.00    +0.214 C 
ATOM     26  C   UNL     1      -0.130  -1.411  -6.240  0.00  0.00    +0.180 C 
ATOM     27  C   UNL     1       0.360  -0.852  -7.589  0.00  0.00    +0.174 C 
BRANCH  27  28
ATOM     28  O   UNL     1      -0.702  -1.029  -8.547  0.00  0.00    -0.387 OA
ATOM     29  H   UNL     1      -1.402  -0.385  -8.305  0.00  0.00    +0.210 HD
ENDBRANCH  27  28
BRANCH  26  30
ATOM     30  O   UNL     1      -0.764  -2.684  -6.444  0.00  0.00    -0.386 OA
ATOM     31  H   UNL     1      -0.917  -2.760  -7.411  0.00  0.00    +0.210 HD
ENDBRANCH  26  30
BRANCH  25  32
ATOM     32  O   UNL     1      -2.306  -0.358  -6.358  0.00  0.00    -0.383 OA
ATOM     33  H   UNL     1      -2.618  -1.278  -6.472  0.00  0.00    +0.210 HD
ENDBRANCH  25  32
ENDBRANCH  20  24
ENDBRANCH  12  20
ENDBRANCH   1  15
BRANCH   7  34
ATOM     34  O   UNL     1      -1.749  11.095  -6.345  0.00  0.00    -0.507 OA
ATOM     35  H   UNL     1      -1.651  12.053  -6.441  0.00  0.00    +0.292 HD
ENDBRANCH   7  34
BRANCH   5  36
ATOM     36  O   UNL     1       2.169  11.878  -3.780  0.00  0.00    -0.506 OA
ATOM     37  H   UNL     1       2.816  11.386  -3.224  0.00  0.00    +0.292 HD
ENDBRANCH   5  36
BRANCH  11  38
ATOM     38  O   UNL     1       3.432   6.806  -2.393  0.00  0.00    -0.453 OA
BRANCH  38  39
ATOM     39  C   UNL     1       4.694   7.483  -2.121  0.00  0.00    +0.340 C 
ATOM     40  O   UNL     1       5.506   7.643  -3.275  0.00  0.00    -0.334 OA
ATOM     41  C   UNL     1       5.943   6.413  -3.850  0.00  0.00    +0.150 C 
ATOM     42  C   UNL     1       6.904   6.776  -4.981  0.00  0.00    +0.041 C 
ATOM     43  C   UNL     1       6.654   5.489  -2.847  0.00  0.00    +0.174 C 
ATOM     44  C   UNL     1       5.869   5.351  -1.530  0.00  0.00    +0.180 C 
ATOM     45  C   UNL     1       5.472   6.734  -0.999  0.00  0.00    +0.221 C 
BRANCH  44  46
ATOM     46  O   UNL     1       6.699   4.638  -0.602  0.00  0.00    -0.386 OA
ATOM     47  H   UNL     1       6.295   4.683   0.288  0.00  0.00    +0.210 HD
ENDBRANCH  44  46
BRANCH  43  48
ATOM     48  O   UNL     1       6.871   4.215  -3.475  0.00  0.00    -0.387 OA
ATOM     49  H   UNL     1       6.238   3.576  -3.106  0.00  0.00    +0.210 HD
ENDBRANCH  43  48
BRANCH  45  50
ATOM     50  O   UNL     1       4.531   6.729   0.057  0.00  0.00    -0.337 OA
BRANCH  50  51
ATOM     51  C   UNL     1       4.821   6.445   1.405  0.00  0.00    +0.282 C 
ATOM     52  O   UNL     1       4.985   5.044   1.611  0.00  0.00    -0.346 OA
ATOM     53  C   UNL     1       3.893   4.257   1.112  0.00  0.00    +0.197 C 
ATOM     54  C   UNL     1       2.483   4.765   1.435  0.00  0.00    +0.171 C 
ATOM     55  C   UNL     1       2.346   6.291   1.451  0.00  0.00    +0.178 C 
ATOM     56  C   UNL     1       3.559   6.932   2.159  0.00  0.00    +0.201 C 
BRANCH  56  57
ATOM     57  O   UNL     1       3.555   6.607   3.554  0.00  0.00    -0.384 OA
ATOM     58  H   UNL     1       3.542   5.629   3.622  0.00  0.00    +0.210 HD
ENDBRANCH  56  57
BRANCH  55  59
ATOM     59  O   UNL     1       1.112   6.639   2.086  0.00  0.00    -0.386 OA
ATOM     60  H   UNL     1       1.349   6.942   2.984  0.00  0.00    +0.210 HD
ENDBRANCH  55  59
BRANCH  54  61
ATOM     61  O   UNL     1       2.104   4.277   2.730  0.00  0.00    -0.387 OA
ATOM     62  H   UNL     1       1.185   4.600   2.842  0.00  0.00    +0.210 HD
ENDBRANCH  54  61
ENDBRANCH  50  51
ENDBRANCH  45  50
ENDBRANCH  38  39
ENDBRANCH  11  38
TORSDOF 18
