REMARK  Name = 
REMARK  13 active torsions:
REMARK  status: ('A' for Active; 'I' for Inactive)
REMARK    1  A    between atoms: C_1  and  O_2
REMARK    2  A    between atoms: O_2  and  C_3
REMARK    3  A    between atoms: C_4  and  O_37
REMARK    4  A    between atoms: C_7  and  C_9
REMARK    5  A    between atoms: C_10  and  O_36
REMARK    6  A    between atoms: C_14  and  O_35
REMARK    7  A    between atoms: C_16  and  O_20
REMARK    8  A    between atoms: O_20  and  C_21
REMARK    9  A    between atoms: C_23  and  N_34
REMARK   10  A    between atoms: C_24  and  O_33
REMARK   11  A    between atoms: C_26  and  O_32
REMARK   12  A    between atoms: C_28  and  C_30
REMARK   13  A    between atoms: C_30  and  O_31
REMARK                            x       y       z     vdW  Elec       q    Type
REMARK                         _______ _______ _______ _____ _____    ______ ____
ROOT
ATOM      1  C   UNL     1       2.996 -13.679   6.536  0.00  0.00    +0.181 A 
ATOM      2  O   UNL     1       3.151 -14.100   5.221  0.00  0.00    -0.451 OA
ATOM      3  C   UNL     1       3.018 -13.173   4.219  0.00  0.00    +0.147 A 
ATOM      4  C   UNL     1       2.614 -11.868   4.465  0.00  0.00    +0.109 A 
ATOM      5  C   UNL     1       2.574 -10.943   3.420  0.00  0.00    +0.135 A 
ATOM      6  C   UNL     1       2.897 -11.327   2.121  0.00  0.00    +0.092 A 
ATOM      7  C   UNL     1       3.115 -12.672   1.845  0.00  0.00    +0.131 A 
ATOM      8  C   UNL     1       2.217 -11.498   5.825  0.00  0.00    +0.238 A 
ATOM      9  O   UNL     1       1.644 -10.431   6.023  0.00  0.00    -0.283 OA
ATOM     10  C   UNL     1       3.257 -13.581   2.905  0.00  0.00    +0.093 A 
ATOM     11  C   UNL     1       2.559 -12.458   6.906  0.00  0.00    +0.208 A 
ENDROOT
BRANCH   1  14
ATOM     12  C   UNL     1       5.228 -15.724   8.762  0.00  0.00    +0.162 A 
ATOM     13  C   UNL     1       4.767 -14.730   7.897  0.00  0.00    +0.061 A 
ATOM     14  C   UNL     1       3.420 -14.692   7.512  0.00  0.00    +0.025 A 
ATOM     15  C   UNL     1       2.519 -15.620   8.054  0.00  0.00    +0.015 A 
ATOM     16  C   UNL     1       2.968 -16.584   8.961  0.00  0.00    +0.050 A 
ATOM     17  C   UNL     1       4.315 -16.631   9.304  0.00  0.00    +0.158 A 
BRANCH  12  19
ATOM     18  C   UNL     1       7.479 -15.453   8.158  0.00  0.00    +0.277 C 
ATOM     19  O   UNL     1       6.537 -15.876   9.142  0.00  0.00    -0.491 OA
ENDBRANCH  12  19
BRANCH  17  20
ATOM     20  O   UNL     1       4.732 -17.610  10.162  0.00  0.00    -0.503 OA
ATOM     21  H   UNL     1       5.697 -17.485  10.250  0.00  0.00    +0.292 HD
ENDBRANCH  17  20
ENDBRANCH   1  14
BRANCH   5  22
ATOM     22  O   UNL     1       2.168  -9.647   3.586  0.00  0.00    -0.506 OA
ATOM     23  H   UNL     1       1.797  -9.560   4.498  0.00  0.00    +0.292 HD
ENDBRANCH   5  22
BRANCH  11  24
ATOM     24  O   UNL     1       2.444 -12.016   8.209  0.00  0.00    -0.501 OA
ATOM     25  H   UNL     1       2.820 -12.676   8.815  0.00  0.00    +0.292 HD
ENDBRANCH  11  24
BRANCH   7  26
ATOM     26  O   UNL     1       3.147 -13.224   0.601  0.00  0.00    -0.462 OA
BRANCH  26  27
ATOM     27  C   UNL     1       2.592 -12.534  -0.540  0.00  0.00    +0.327 C 
ATOM     28  O   UNL     1       3.001 -13.330  -1.672  0.00  0.00    -0.332 OA
ATOM     29  C   UNL     1       2.526 -12.917  -2.960  0.00  0.00    +0.179 C 
ATOM     30  C   UNL     1       0.992 -12.825  -3.003  0.00  0.00    +0.176 C 
ATOM     31  C   UNL     1       0.500 -11.917  -1.880  0.00  0.00    +0.168 C 
ATOM     32  C   UNL     1       1.018 -12.413  -0.509  0.00  0.00    +0.152 C 
BRANCH  32  33
ATOM     33  N   UNL     1       0.370 -11.550   0.498  0.00  0.00    -0.320 NA
ATOM     34  H   UNL     1       0.588 -11.853   1.444  0.00  0.00    +0.119 HD
ATOM     35  H   UNL     1       0.661 -10.576   0.397  0.00  0.00    +0.119 HD
ENDBRANCH  32  33
BRANCH  30  36
ATOM     36  O   UNL     1       0.407 -14.124  -2.867  0.00  0.00    -0.387 OA
ATOM     37  H   UNL     1      -0.559 -14.021  -2.793  0.00  0.00    +0.210 HD
ENDBRANCH  30  36
BRANCH  31  38
ATOM     38  O   UNL     1       0.848 -10.549  -2.149  0.00  0.00    -0.387 OA
ATOM     39  H   UNL     1       1.792 -10.398  -1.986  0.00  0.00    +0.210 HD
ENDBRANCH  31  38
BRANCH  29  40
ATOM     40  C   UNL     1       3.017 -13.928  -4.015  0.00  0.00    +0.190 C 
BRANCH  40  41
ATOM     41  O   UNL     1       4.441 -13.974  -4.115  0.00  0.00    -0.392 OA
ATOM     42  H   UNL     1       4.790 -13.078  -3.984  0.00  0.00    +0.210 HD
ENDBRANCH  40  41
ENDBRANCH  29  40
ENDBRANCH  26  27
ENDBRANCH   7  26
TORSDOF 12
