REMARK  Name = 
REMARK  16 active torsions:
REMARK  status: ('A' for Active; 'I' for Inactive)
REMARK    1  A    between atoms: C_2  and  O_47
REMARK    2  A    between atoms: C_4  and  O_46
REMARK    3  A    between atoms: C_6  and  O_45
REMARK    4  A    between atoms: C_7  and  O_10
REMARK    5  A    between atoms: O_10  and  C_11
REMARK    6  A    between atoms: C_11  and  C_12
REMARK    7  A    between atoms: C_13  and  O_44
REMARK    8  A    between atoms: C_15  and  O_43
REMARK    9  A    between atoms: C_16  and  O_42
REMARK   10  A    between atoms: C_17  and  O_20
REMARK   11  A    between atoms: O_20  and  C_21
REMARK   12  A    between atoms: C_22  and  C_34
REMARK   13  A    between atoms: C_26  and  O_33
REMARK   14  A    between atoms: C_28  and  O_32
REMARK   15  A    between atoms: C_36  and  O_41
REMARK   16  A    between atoms: C_37  and  O_40
REMARK                            x       y       z     vdW  Elec       q    Type
REMARK                         _______ _______ _______ _____ _____    ______ ____
ROOT
ATOM      1  C   UNL     1       3.515  -3.583   0.166  0.00  0.00    +0.179 C 
ATOM      2  O   UNL     1       4.793  -3.401  -0.524  0.00  0.00    -0.331 OA
ATOM      3  C   UNL     1       4.608  -3.439  -1.961  0.00  0.00    +0.340 C 
ATOM      4  C   UNL     1       4.229  -4.877  -2.351  0.00  0.00    +0.214 C 
ATOM      5  C   UNL     1       2.902  -5.250  -1.670  0.00  0.00    +0.180 C 
ATOM      6  C   UNL     1       2.964  -4.991  -0.148  0.00  0.00    +0.177 C 
ENDROOT
BRANCH   6   7
ATOM      7  O   UNL     1       1.684  -5.196   0.445  0.00  0.00    -0.386 OA
ATOM      8  H   UNL     1       1.822  -5.409   1.384  0.00  0.00    +0.210 HD
ENDBRANCH   6   7
BRANCH   5   9
ATOM      9  O   UNL     1       2.633  -6.641  -1.917  0.00  0.00    -0.386 OA
ATOM     10  H   UNL     1       3.506  -7.084  -1.920  0.00  0.00    +0.210 HD
ENDBRANCH   5   9
BRANCH   4  11
ATOM     11  O   UNL     1       5.229  -5.825  -1.902  0.00  0.00    -0.383 OA
ATOM     12  H   UNL     1       5.740  -5.381  -1.197  0.00  0.00    +0.210 HD
ENDBRANCH   4  11
BRANCH   3  13
ATOM     13  O   UNL     1       5.778  -2.993  -2.663  0.00  0.00    -0.453 OA
BRANCH  13  14
ATOM     14  C   UNL     1       5.544  -1.935  -3.555  0.00  0.00    +0.214 A 
ATOM     15  C   UNL     1       4.262  -1.868  -4.344  0.00  0.00    +0.238 A 
ATOM     16  O   UNL     1       3.447  -2.784  -4.301  0.00  0.00    -0.283 OA
ATOM     17  C   UNL     1       4.021  -0.680  -5.179  0.00  0.00    +0.109 A 
ATOM     18  C   UNL     1       5.077   0.207  -5.346  0.00  0.00    +0.147 A 
ATOM     19  C   UNL     1       4.950   1.291  -6.219  0.00  0.00    +0.092 A 
ATOM     20  C   UNL     1       3.752   1.484  -6.904  0.00  0.00    +0.124 A 
ATOM     21  C   UNL     1       2.673   0.631  -6.711  0.00  0.00    +0.091 A 
ATOM     22  O   UNL     1       6.275   0.073  -4.694  0.00  0.00    -0.451 OA
ATOM     23  C   UNL     1       2.806  -0.450  -5.843  0.00  0.00    +0.135 A 
ATOM     24  C   UNL     1       6.464  -0.972  -3.789  0.00  0.00    +0.181 A 
BRANCH  24  25
ATOM     25  C   UNL     1       7.814  -0.921  -3.148  0.00  0.00    +0.025 A 
ATOM     26  C   UNL     1       8.892  -0.345  -3.856  0.00  0.00    +0.015 A 
ATOM     27  C   UNL     1      10.170  -0.248  -3.294  0.00  0.00    +0.050 A 
ATOM     28  C   UNL     1      10.386  -0.735  -2.018  0.00  0.00    +0.158 A 
ATOM     29  C   UNL     1       9.346  -1.308  -1.297  0.00  0.00    +0.159 A 
ATOM     30  C   UNL     1       8.065  -1.387  -1.842  0.00  0.00    +0.060 A 
BRANCH  29  31
ATOM     31  O   UNL     1       9.631  -1.788  -0.046  0.00  0.00    -0.503 OA
ATOM     32  H   UNL     1       8.839  -2.240   0.293  0.00  0.00    +0.292 HD
ENDBRANCH  29  31
BRANCH  28  33
ATOM     33  O   UNL     1      11.632  -0.646  -1.468  0.00  0.00    -0.503 OA
ATOM     34  H   UNL     1      11.538  -1.041  -0.578  0.00  0.00    +0.292 HD
ENDBRANCH  28  33
ENDBRANCH  24  25
BRANCH  23  35
ATOM     35  O   UNL     1       1.724  -1.252  -5.640  0.00  0.00    -0.506 OA
ATOM     36  H   UNL     1       1.044  -1.082  -6.306  0.00  0.00    +0.292 HD
ENDBRANCH  23  35
BRANCH  20  37
ATOM     37  O   UNL     1       3.585   2.509  -7.788  0.00  0.00    -0.507 OA
ATOM     38  H   UNL     1       4.422   2.992  -7.888  0.00  0.00    +0.292 HD
ENDBRANCH  20  37
ENDBRANCH  13  14
ENDBRANCH   3  13
BRANCH   1  39
ATOM     39  C   UNL     1       2.578  -2.400  -0.174  0.00  0.00    +0.197 C 
BRANCH  39  40
ATOM     40  O   UNL     1       1.387  -2.238   0.595  0.00  0.00    -0.346 OA
BRANCH  40  43
ATOM     41  C   UNL     1       0.906   1.276  -0.182  0.00  0.00    +0.197 C 
ATOM     42  O   UNL     1       1.466   0.074   0.344  0.00  0.00    -0.346 OA
ATOM     43  C   UNL     1       0.685  -1.093   0.062  0.00  0.00    +0.281 C 
ATOM     44  C   UNL     1      -0.706  -0.970   0.708  0.00  0.00    +0.201 C 
ATOM     45  C   UNL     1      -1.376   0.293   0.130  0.00  0.00    +0.178 C 
ATOM     46  C   UNL     1      -0.496   1.532   0.368  0.00  0.00    +0.171 C 
BRANCH  46  47
ATOM     47  O   UNL     1      -0.433   1.835   1.767  0.00  0.00    -0.387 OA
ATOM     48  H   UNL     1      -0.261   0.983   2.232  0.00  0.00    +0.210 HD
ENDBRANCH  46  47
BRANCH  45  49
ATOM     49  O   UNL     1      -2.694   0.479   0.650  0.00  0.00    -0.386 OA
ATOM     50  H   UNL     1      -2.712   1.345   1.101  0.00  0.00    +0.210 HD
ENDBRANCH  45  49
BRANCH  44  51
ATOM     51  O   UNL     1      -0.537  -0.852   2.137  0.00  0.00    -0.384 OA
ATOM     52  H   UNL     1       0.134  -1.532   2.360  0.00  0.00    +0.210 HD
ENDBRANCH  44  51
ENDBRANCH  40  43
ENDBRANCH  39  40
ENDBRANCH   1  39
TORSDOF 16
