REMARK  Name = 
REMARK  17 active torsions:
REMARK  status: ('A' for Active; 'I' for Inactive)
REMARK    1  A    between atoms: C_3  and  O_48
REMARK    2  A    between atoms: C_4  and  O_47
REMARK    3  A    between atoms: C_6  and  C_7
REMARK    4  A    between atoms: C_8  and  O_20
REMARK    5  A    between atoms: C_12  and  O_19
REMARK    6  A    between atoms: C_14  and  O_18
REMARK    7  A    between atoms: O_20  and  C_21
REMARK    8  A    between atoms: C_23  and  O_34
REMARK    9  A    between atoms: C_24  and  O_33
REMARK   10  A    between atoms: C_26  and  O_32
REMARK   11  A    between atoms: C_28  and  C_30
REMARK   12  A    between atoms: C_30  and  O_31
REMARK   13  A    between atoms: O_34  and  C_35
REMARK   14  A    between atoms: C_37  and  O_46
REMARK   15  A    between atoms: C_39  and  O_45
REMARK   16  A    between atoms: C_40  and  C_43
REMARK   17  A    between atoms: C_43  and  O_44
REMARK                            x       y       z     vdW  Elec       q    Type
REMARK                         _______ _______ _______ _____ _____    ______ ____
ROOT
ATOM      1  O   UNL     1      -4.522  -2.457  -1.192  0.00  0.00    -0.453 OA
ENDROOT
BRANCH   1  12
ATOM      2  C   UNL     1      -5.871  -3.996   0.301  0.00  0.00    +0.181 A 
ATOM      3  O   UNL     1      -7.203  -4.080   0.843  0.00  0.00    -0.451 OA
ATOM      4  C   UNL     1      -8.213  -3.402   0.218  0.00  0.00    +0.147 A 
ATOM      5  C   UNL     1      -7.936  -2.207  -0.402  0.00  0.00    +0.109 A 
ATOM      6  C   UNL     1      -8.896  -1.451  -1.063  0.00  0.00    +0.135 A 
ATOM      7  C   UNL     1     -10.207  -1.875  -1.038  0.00  0.00    +0.091 A 
ATOM      8  C   UNL     1     -10.515  -3.049  -0.345  0.00  0.00    +0.124 A 
ATOM      9  C   UNL     1      -6.594  -1.752  -0.256  0.00  0.00    +0.238 A 
ATOM     10  O   UNL     1      -6.393  -0.548  -0.162  0.00  0.00    -0.283 OA
ATOM     11  C   UNL     1      -9.528  -3.833   0.266  0.00  0.00    +0.092 A 
ATOM     12  C   UNL     1      -5.547  -2.802  -0.343  0.00  0.00    +0.214 A 
BRANCH   2  14
ATOM     13  C   UNL     1      -6.096  -6.391   1.200  0.00  0.00    +0.015 A 
ATOM     14  C   UNL     1      -5.209  -5.393   0.646  0.00  0.00    +0.025 A 
ATOM     15  C   UNL     1      -3.865  -5.817   0.627  0.00  0.00    +0.060 A 
ATOM     16  C   UNL     1      -3.493  -7.127   1.120  0.00  0.00    +0.159 A 
ATOM     17  C   UNL     1      -4.410  -8.036   1.643  0.00  0.00    +0.158 A 
ATOM     18  C   UNL     1      -5.728  -7.674   1.685  0.00  0.00    +0.050 A 
BRANCH  17  19
ATOM     19  O   UNL     1      -3.994  -9.269   2.084  0.00  0.00    -0.503 OA
ATOM     20  H   UNL     1      -4.782  -9.750   2.403  0.00  0.00    +0.292 HD
ENDBRANCH  17  19
BRANCH  16  21
ATOM     21  O   UNL     1      -2.170  -7.521   1.120  0.00  0.00    -0.503 OA
ATOM     22  H   UNL     1      -2.173  -8.428   1.481  0.00  0.00    +0.292 HD
ENDBRANCH  16  21
ENDBRANCH   2  14
BRANCH   8  23
ATOM     23  O   UNL     1     -11.813  -3.446  -0.222  0.00  0.00    -0.507 OA
ATOM     24  H   UNL     1     -12.381  -2.731  -0.561  0.00  0.00    +0.292 HD
ENDBRANCH   8  23
BRANCH   6  25
ATOM     25  O   UNL     1      -8.597  -0.301  -1.736  0.00  0.00    -0.506 OA
ATOM     26  H   UNL     1      -7.677  -0.038  -1.509  0.00  0.00    +0.292 HD
ENDBRANCH   6  25
ENDBRANCH   1  12
BRANCH   1  27
ATOM     27  C   UNL     1      -3.972  -1.059  -1.313  0.00  0.00    +0.340 C 
ATOM     28  O   UNL     1      -4.114  -0.417  -2.601  0.00  0.00    -0.331 OA
ATOM     29  C   UNL     1      -3.083  -0.505  -3.615  0.00  0.00    +0.179 C 
ATOM     30  C   UNL     1      -1.850  -1.408  -3.322  0.00  0.00    +0.177 C 
ATOM     31  C   UNL     1      -1.949  -2.177  -2.005  0.00  0.00    +0.180 C 
ATOM     32  C   UNL     1      -2.530  -1.235  -0.898  0.00  0.00    +0.221 C 
BRANCH  31  33
ATOM     33  O   UNL     1      -2.659  -3.389  -2.304  0.00  0.00    -0.386 OA
ATOM     34  H   UNL     1      -3.627  -3.201  -2.324  0.00  0.00    +0.210 HD
ENDBRANCH  31  33
BRANCH  30  35
ATOM     35  O   UNL     1      -0.622  -0.673  -3.313  0.00  0.00    -0.386 OA
ATOM     36  H   UNL     1       0.098  -1.334  -3.343  0.00  0.00    +0.210 HD
ENDBRANCH  30  35
BRANCH  32  37
ATOM     37  O   UNL     1      -2.590  -1.846   0.401  0.00  0.00    -0.337 OA
BRANCH  37  38
ATOM     38  C   UNL     1      -2.191  -1.113   1.555  0.00  0.00    +0.282 C 
ATOM     39  O   UNL     1      -1.279  -2.010   2.216  0.00  0.00    -0.341 OA
ATOM     40  C   UNL     1      -2.123  -2.828   3.065  0.00  0.00    +0.178 C 
ATOM     41  C   UNL     1      -2.918  -1.769   3.807  0.00  0.00    +0.179 C 
ATOM     42  C   UNL     1      -3.312  -0.857   2.635  0.00  0.00    +0.201 C 
BRANCH  42  43
ATOM     43  O   UNL     1      -4.626  -1.217   2.216  0.00  0.00    -0.384 OA
ATOM     44  H   UNL     1      -4.835  -0.710   1.413  0.00  0.00    +0.210 HD
ENDBRANCH  42  43
BRANCH  41  45
ATOM     45  O   UNL     1      -2.106  -1.063   4.754  0.00  0.00    -0.386 OA
ATOM     46  H   UNL     1      -1.244  -0.888   4.333  0.00  0.00    +0.210 HD
ENDBRANCH  41  45
BRANCH  40  47
ATOM     47  C   UNL     1      -1.262  -3.744   3.916  0.00  0.00    +0.190 C 
BRANCH  47  48
ATOM     48  O   UNL     1      -0.622  -4.739   3.112  0.00  0.00    -0.392 OA
ATOM     49  H   UNL     1      -1.272  -5.100   2.481  0.00  0.00    +0.210 HD
ENDBRANCH  47  48
ENDBRANCH  40  47
ENDBRANCH  37  38
ENDBRANCH  32  37
BRANCH  29  50
ATOM     50  C   UNL     1      -2.614   0.882  -4.183  0.00  0.00    +0.190 C 
BRANCH  50  51
ATOM     51  O   UNL     1      -3.646   1.843  -4.382  0.00  0.00    -0.392 OA
ATOM     52  H   UNL     1      -4.461   1.380  -4.629  0.00  0.00    +0.210 HD
ENDBRANCH  50  51
ENDBRANCH  29  50
ENDBRANCH   1  27
TORSDOF 17
