REMARK  Name = 
REMARK  17 active torsions:
REMARK  status: ('A' for Active; 'I' for Inactive)
REMARK    1  A    between atoms: C_1  and  C_2
REMARK    2  A    between atoms: C_3  and  O_49
REMARK    3  A    between atoms: C_5  and  O_48
REMARK    4  A    between atoms: C_6  and  O_47
REMARK    5  A    between atoms: C_8  and  O_11
REMARK    6  A    between atoms: O_11  and  C_12
REMARK    7  A    between atoms: C_13  and  C_39
REMARK    8  A    between atoms: C_17  and  O_24
REMARK    9  A    between atoms: C_19  and  O_23
REMARK   10  A    between atoms: O_24  and  C_25
REMARK   11  A    between atoms: C_27  and  O_38
REMARK   12  A    between atoms: C_28  and  O_37
REMARK   13  A    between atoms: C_30  and  O_36
REMARK   14  A    between atoms: C_32  and  C_34
REMARK   15  A    between atoms: C_34  and  O_35
REMARK   16  A    between atoms: C_41  and  O_46
REMARK   17  A    between atoms: C_42  and  O_45
REMARK                            x       y       z     vdW  Elec       q    Type
REMARK                         _______ _______ _______ _____ _____    ______ ____
ROOT
ATOM      1  C   UNL     1       2.799   2.786  -3.273  0.00  0.00    +0.214 A 
ATOM      2  C   UNL     1       1.399   3.285  -3.085  0.00  0.00    +0.238 A 
ATOM      3  O   UNL     1       0.417   2.583  -3.292  0.00  0.00    -0.283 OA
ATOM      4  C   UNL     1       1.214   4.713  -2.803  0.00  0.00    +0.109 A 
ATOM      5  C   UNL     1       2.287   5.562  -3.042  0.00  0.00    +0.147 A 
ATOM      6  C   UNL     1       2.114   6.949  -2.928  0.00  0.00    +0.093 A 
ATOM      7  C   UNL     1       0.865   7.483  -2.573  0.00  0.00    +0.131 A 
ATOM      8  C   UNL     1      -0.205   6.623  -2.332  0.00  0.00    +0.092 A 
ATOM      9  O   UNL     1       3.528   5.103  -3.419  0.00  0.00    -0.451 OA
ATOM     10  C   UNL     1      -0.026   5.245  -2.422  0.00  0.00    +0.135 A 
ATOM     11  C   UNL     1       3.747   3.730  -3.465  0.00  0.00    +0.181 A 
ENDROOT
BRANCH  11  12
ATOM     12  C   UNL     1       5.134   3.373  -3.845  0.00  0.00    +0.025 A 
ATOM     13  C   UNL     1       6.110   3.108  -2.870  0.00  0.00    +0.015 A 
ATOM     14  C   UNL     1       7.410   2.728  -3.240  0.00  0.00    +0.050 A 
ATOM     15  C   UNL     1       7.732   2.620  -4.583  0.00  0.00    +0.158 A 
ATOM     16  C   UNL     1       6.782   2.893  -5.560  0.00  0.00    +0.159 A 
ATOM     17  C   UNL     1       5.488   3.271  -5.205  0.00  0.00    +0.060 A 
BRANCH  16  18
ATOM     18  O   UNL     1       7.172   2.773  -6.870  0.00  0.00    -0.503 OA
ATOM     19  H   UNL     1       6.419   3.015  -7.435  0.00  0.00    +0.292 HD
ENDBRANCH  16  18
BRANCH  15  20
ATOM     20  O   UNL     1       8.991   2.229  -4.946  0.00  0.00    -0.503 OA
ATOM     21  H   UNL     1       8.970   2.194  -5.923  0.00  0.00    +0.292 HD
ENDBRANCH  15  20
ENDBRANCH  11  12
BRANCH  10  22
ATOM     22  O   UNL     1      -1.077   4.430  -2.108  0.00  0.00    -0.506 OA
ATOM     23  H   UNL     1      -1.889   4.948  -1.990  0.00  0.00    +0.292 HD
ENDBRANCH  10  22
BRANCH   7  24
ATOM     24  O   UNL     1       0.549   8.809  -2.411  0.00  0.00    -0.461 OA
BRANCH  24  25
ATOM     25  C   UNL     1       1.653   9.721  -2.319  0.00  0.00    +0.339 C 
ATOM     26  O   UNL     1       2.440   9.459  -1.154  0.00  0.00    -0.331 OA
ATOM     27  C   UNL     1       1.765   9.750   0.087  0.00  0.00    +0.179 C 
ATOM     28  C   UNL     1       1.412  11.246   0.152  0.00  0.00    +0.177 C 
ATOM     29  C   UNL     1       0.494  11.599  -1.025  0.00  0.00    +0.180 C 
ATOM     30  C   UNL     1       1.138  11.180  -2.353  0.00  0.00    +0.214 C 
BRANCH  29  31
ATOM     31  O   UNL     1      -0.807  11.012  -0.873  0.00  0.00    -0.386 OA
ATOM     32  H   UNL     1      -0.753  10.059  -1.075  0.00  0.00    +0.210 HD
ENDBRANCH  29  31
BRANCH  30  33
ATOM     33  O   UNL     1       0.220  11.401  -3.433  0.00  0.00    -0.383 OA
ATOM     34  H   UNL     1      -0.671  11.187  -3.094  0.00  0.00    +0.210 HD
ENDBRANCH  30  33
BRANCH  28  35
ATOM     35  O   UNL     1       2.614  12.020   0.084  0.00  0.00    -0.386 OA
ATOM     36  H   UNL     1       2.383  12.965   0.110  0.00  0.00    +0.210 HD
ENDBRANCH  28  35
BRANCH  27  37
ATOM     37  C   UNL     1       2.682   9.340   1.249  0.00  0.00    +0.190 C 
BRANCH  37  38
ATOM     38  O   UNL     1       2.865   7.923   1.301  0.00  0.00    -0.392 OA
ATOM     39  H   UNL     1       2.001   7.490   1.213  0.00  0.00    +0.210 HD
ENDBRANCH  37  38
ENDBRANCH  27  37
ENDBRANCH  24  25
ENDBRANCH   7  24
BRANCH   1  40
ATOM     40  O   UNL     1       3.110   1.432  -3.364  0.00  0.00    -0.453 OA
BRANCH  40  44
ATOM     41  C   UNL     1      -0.817   0.054  -2.126  0.00  0.00    +0.041 C 
ATOM     42  C   UNL     1       0.499  -0.352  -1.461  0.00  0.00    +0.150 C 
ATOM     43  O   UNL     1       1.583   0.542  -1.767  0.00  0.00    -0.334 OA
ATOM     44  C   UNL     1       2.059   0.481  -3.120  0.00  0.00    +0.339 C 
ATOM     45  C   UNL     1       2.586  -0.933  -3.437  0.00  0.00    +0.214 C 
ATOM     46  C   UNL     1       1.456  -1.943  -3.194  0.00  0.00    +0.180 C 
ATOM     47  C   UNL     1       0.885  -1.804  -1.774  0.00  0.00    +0.174 C 
BRANCH  47  48
ATOM     48  O   UNL     1       1.892  -2.249  -0.844  0.00  0.00    -0.387 OA
ATOM     49  H   UNL     1       2.629  -1.601  -0.916  0.00  0.00    +0.210 HD
ENDBRANCH  47  48
BRANCH  46  50
ATOM     50  O   UNL     1       1.965  -3.271  -3.379  0.00  0.00    -0.386 OA
ATOM     51  H   UNL     1       2.217  -3.578  -2.482  0.00  0.00    +0.210 HD
ENDBRANCH  46  50
BRANCH  45  52
ATOM     52  O   UNL     1       3.710  -1.278  -2.602  0.00  0.00    -0.383 OA
ATOM     53  H   UNL     1       4.038  -2.129  -2.951  0.00  0.00    +0.210 HD
ENDBRANCH  45  52
ENDBRANCH  40  44
ENDBRANCH   1  40
TORSDOF 16
