REMARK  Name = 
REMARK  13 active torsions:
REMARK  status: ('A' for Active; 'I' for Inactive)
REMARK    1  A    between atoms: C_1  and  C_2
REMARK    2  A    between atoms: C_3  and  O_39
REMARK    3  A    between atoms: C_5  and  O_38
REMARK    4  A    between atoms: C_6  and  O_37
REMARK    5  A    between atoms: C_8  and  O_11
REMARK    6  A    between atoms: O_11  and  C_12
REMARK    7  A    between atoms: C_13  and  C_25
REMARK    8  A    between atoms: C_17  and  O_24
REMARK    9  A    between atoms: C_19  and  O_23
REMARK   10  A    between atoms: C_27  and  O_32
REMARK   11  A    between atoms: C_28  and  O_31
REMARK   12  A    between atoms: O_32  and  S_33
REMARK   13  A    between atoms: S_33  and  O_36
REMARK                            x       y       z     vdW  Elec       q    Type
REMARK                         _______ _______ _______ _____ _____    ______ ____
ROOT
ATOM      1  C   UNL     1       2.709   2.911  -3.253  0.00  0.00    +0.214 A 
ATOM      2  C   UNL     1       1.306   3.398  -3.064  0.00  0.00    +0.238 A 
ATOM      3  O   UNL     1       0.331   2.698  -3.313  0.00  0.00    -0.283 OA
ATOM      4  C   UNL     1       1.112   4.811  -2.739  0.00  0.00    +0.109 A 
ATOM      5  C   UNL     1       2.178   5.670  -2.980  0.00  0.00    +0.147 A 
ATOM      6  C   UNL     1       1.984   7.052  -2.895  0.00  0.00    +0.092 A 
ATOM      7  C   UNL     1       0.724   7.545  -2.553  0.00  0.00    +0.124 A 
ATOM      8  C   UNL     1      -0.334   6.692  -2.263  0.00  0.00    +0.091 A 
ATOM      9  O   UNL     1       3.426   5.225  -3.346  0.00  0.00    -0.451 OA
ATOM     10  C   UNL     1      -0.136   5.320  -2.344  0.00  0.00    +0.135 A 
ATOM     11  C   UNL     1       3.671   3.852  -3.420  0.00  0.00    +0.181 A 
ENDROOT
BRANCH  11  12
ATOM     12  C   UNL     1       5.080   3.526  -3.837  0.00  0.00    +0.025 A 
ATOM     13  C   UNL     1       5.727   2.332  -3.464  0.00  0.00    +0.015 A 
ATOM     14  C   UNL     1       6.990   1.994  -3.962  0.00  0.00    +0.050 A 
ATOM     15  C   UNL     1       7.647   2.868  -4.812  0.00  0.00    +0.161 A 
ATOM     16  C   UNL     1       7.070   4.086  -5.165  0.00  0.00    +0.201 A 
ATOM     17  C   UNL     1       5.797   4.415  -4.671  0.00  0.00    +0.064 A 
BRANCH  15  18
ATOM     18  O   UNL     1       8.869   2.486  -5.292  0.00  0.00    -0.503 OA
ATOM     19  H   UNL     1       9.205   3.210  -5.848  0.00  0.00    +0.292 HD
ENDBRANCH  15  18
BRANCH  16  20
ATOM     20  O   UNL     1       7.836   4.899  -5.964  0.00  0.00    -0.321 OA
BRANCH  20  21
ATOM     21  S   UNL     1       7.173   5.934  -7.035  0.00  0.00    +0.251 S 
ATOM     22  O   UNL     1       6.697   7.105  -6.335  0.00  0.00    -0.108 OA
ATOM     23  O   UNL     1       6.339   5.185  -7.946  0.00  0.00    -0.108 OA
BRANCH  21  24
ATOM     24  O   UNL     1       8.452   6.370  -7.912  0.00  0.00    -0.222 OA
ATOM     25  H   UNL     1       8.503   5.766  -8.681  0.00  0.00    +0.248 HD
ENDBRANCH  21  24
ENDBRANCH  20  21
ENDBRANCH  16  20
ENDBRANCH  11  12
BRANCH   7  26
ATOM     26  O   UNL     1       0.467   8.882  -2.485  0.00  0.00    -0.507 OA
ATOM     27  H   UNL     1       1.265   9.369  -2.746  0.00  0.00    +0.292 HD
ENDBRANCH   7  26
BRANCH  10  28
ATOM     28  O   UNL     1      -1.169   4.485  -2.023  0.00  0.00    -0.506 OA
ATOM     29  H   UNL     1      -1.990   4.991  -1.923  0.00  0.00    +0.292 HD
ENDBRANCH  10  28
BRANCH   1  30
ATOM     30  O   UNL     1       2.993   1.560  -3.394  0.00  0.00    -0.453 OA
BRANCH  30  34
ATOM     31  C   UNL     1      -0.882   0.151  -2.117  0.00  0.00    +0.041 C 
ATOM     32  C   UNL     1       0.434  -0.234  -1.442  0.00  0.00    +0.150 C 
ATOM     33  O   UNL     1       1.509   0.669  -1.757  0.00  0.00    -0.334 OA
ATOM     34  C   UNL     1       1.966   0.601  -3.116  0.00  0.00    +0.339 C 
ATOM     35  C   UNL     1       2.529  -0.800  -3.415  0.00  0.00    +0.214 C 
ATOM     36  C   UNL     1       1.426  -1.832  -3.156  0.00  0.00    +0.180 C 
ATOM     37  C   UNL     1       0.846  -1.683  -1.739  0.00  0.00    +0.174 C 
BRANCH  35  38
ATOM     38  O   UNL     1       3.668  -1.104  -2.581  0.00  0.00    -0.383 OA
ATOM     39  H   UNL     1       3.978  -1.978  -2.888  0.00  0.00    +0.210 HD
ENDBRANCH  35  38
BRANCH  36  40
ATOM     40  O   UNL     1       1.971  -3.149  -3.321  0.00  0.00    -0.386 OA
ATOM     41  H   UNL     1       2.200  -3.447  -2.418  0.00  0.00    +0.210 HD
ENDBRANCH  36  40
BRANCH  37  42
ATOM     42  O   UNL     1       1.860  -2.099  -0.803  0.00  0.00    -0.387 OA
ATOM     43  H   UNL     1       2.576  -1.427  -0.867  0.00  0.00    +0.210 HD
ENDBRANCH  37  42
ENDBRANCH  30  34
ENDBRANCH   1  30
TORSDOF 12
