REMARK  Name = 
REMARK  25 active torsions:
REMARK  status: ('A' for Active; 'I' for Inactive)
REMARK    1  A    between atoms: C_1  and  C_2
REMARK    2  A    between atoms: C_3  and  O_65
REMARK    3  A    between atoms: C_5  and  O_64
REMARK    4  A    between atoms: C_6  and  O_63
REMARK    5  A    between atoms: C_8  and  O_11
REMARK    6  A    between atoms: O_11  and  C_12
REMARK    7  A    between atoms: C_16  and  O_18
REMARK    8  A    between atoms: O_18  and  C_19
REMARK    9  A    between atoms: C_22  and  O_35
REMARK   10  A    between atoms: C_23  and  C_25
REMARK   11  A    between atoms: C_27  and  O_33
REMARK   12  A    between atoms: C_28  and  O_31
REMARK   13  A    between atoms: O_31  and  C_32
REMARK   14  A    between atoms: O_33  and  C_34
REMARK   15  A    between atoms: O_35  and  C_36
REMARK   16  A    between atoms: C_38  and  O_48
REMARK   17  A    between atoms: C_40  and  O_47
REMARK   18  A    between atoms: C_41  and  O_46
REMARK   19  A    between atoms: C_43  and  C_45
REMARK   20  A    between atoms: O_48  and  C_49
REMARK   21  A    between atoms: C_51  and  O_62
REMARK   22  A    between atoms: C_52  and  O_61
REMARK   23  A    between atoms: C_54  and  O_60
REMARK   24  A    between atoms: C_56  and  C_58
REMARK   25  A    between atoms: C_58  and  O_59
REMARK                            x       y       z     vdW  Elec       q    Type
REMARK                         _______ _______ _______ _____ _____    ______ ____
ROOT
ATOM      1  C   UNL     1       2.503   3.099  -2.884  0.00  0.00    +0.131 A 
ATOM      2  C   UNL     1       3.612   3.946  -2.902  0.00  0.00    +0.092 A 
ATOM      3  C   UNL     1       3.511   5.311  -2.513  0.00  0.00    +0.138 A 
ATOM      4  C   UNL     1       2.290   5.815  -2.037  0.00  0.00    +0.109 A 
ATOM      5  C   UNL     1       2.065   7.162  -1.423  0.00  0.00    +0.238 A 
ATOM      6  C   UNL     1       0.626   7.646  -1.217  0.00  0.00    +0.214 A 
ATOM      7  C   UNL     1      -0.338   6.756  -1.598  0.00  0.00    +0.181 A 
ATOM      8  O   UNL     1      -0.077   5.419  -1.868  0.00  0.00    -0.451 OA
ATOM      9  O   UNL     1       3.008   7.874  -1.081  0.00  0.00    -0.283 OA
ATOM     10  C   UNL     1       1.181   4.992  -2.117  0.00  0.00    +0.147 A 
ATOM     11  C   UNL     1       1.284   3.649  -2.517  0.00  0.00    +0.093 A 
ENDROOT
BRANCH   7  12
ATOM     12  C   UNL     1      -1.805   6.949  -1.763  0.00  0.00    +0.025 A 
ATOM     13  C   UNL     1      -2.712   6.017  -1.235  0.00  0.00    +0.015 A 
ATOM     14  C   UNL     1      -4.093   6.191  -1.382  0.00  0.00    +0.050 A 
ATOM     15  C   UNL     1      -4.590   7.332  -2.011  0.00  0.00    +0.162 A 
ATOM     16  C   UNL     1      -3.695   8.260  -2.569  0.00  0.00    +0.162 A 
ATOM     17  C   UNL     1      -2.320   8.005  -2.528  0.00  0.00    +0.061 A 
BRANCH  16  18
ATOM     18  O   UNL     1      -4.262   9.410  -3.056  0.00  0.00    -0.491 OA
ATOM     19  C   UNL     1      -3.504  10.210  -3.943  0.00  0.00    +0.277 C 
ENDBRANCH  16  18
BRANCH  15  20
ATOM     20  O   UNL     1      -5.920   7.643  -2.129  0.00  0.00    -0.491 OA
ATOM     21  C   UNL     1      -6.859   6.609  -1.880  0.00  0.00    +0.277 C 
ENDBRANCH  15  20
ENDBRANCH   7  12
BRANCH   3  22
ATOM     22  O   UNL     1       4.584   6.159  -2.613  0.00  0.00    -0.494 OA
ATOM     23  C   UNL     1       5.485   5.886  -3.686  0.00  0.00    +0.277 C 
ENDBRANCH   3  22
BRANCH   6  24
ATOM     24  O   UNL     1       0.533   8.942  -0.668  0.00  0.00    -0.453 OA
BRANCH  24  25
ATOM     25  C   UNL     1      -0.709   9.609  -0.436  0.00  0.00    +0.340 C 
ATOM     26  O   UNL     1      -1.044  10.463  -1.556  0.00  0.00    -0.334 OA
ATOM     27  C   UNL     1      -0.677  11.842  -1.475  0.00  0.00    +0.150 C 
ATOM     28  C   UNL     1      -1.103  12.562  -2.765  0.00  0.00    +0.041 C 
ATOM     29  C   UNL     1      -1.416  12.484  -0.310  0.00  0.00    +0.174 C 
ATOM     30  C   UNL     1      -0.996  11.819   0.994  0.00  0.00    +0.180 C 
ATOM     31  C   UNL     1      -1.018  10.263   0.959  0.00  0.00    +0.221 C 
BRANCH  30  32
ATOM     32  O   UNL     1      -1.888  12.273   2.038  0.00  0.00    -0.386 OA
ATOM     33  H   UNL     1      -2.780  12.356   1.691  0.00  0.00    +0.210 HD
ENDBRANCH  30  32
BRANCH  29  34
ATOM     34  O   UNL     1      -1.204  13.900  -0.257  0.00  0.00    -0.387 OA
ATOM     35  H   UNL     1      -0.358  14.077   0.192  0.00  0.00    +0.210 HD
ENDBRANCH  29  34
BRANCH  31  36
ATOM     36  O   UNL     1      -0.683   9.583   2.210  0.00  0.00    -0.337 OA
BRANCH  36  37
ATOM     37  C   UNL     1       0.675   9.224   2.531  0.00  0.00    +0.282 C 
ATOM     38  O   UNL     1       0.760   8.494   3.801  0.00  0.00    -0.341 OA
ATOM     39  C   UNL     1       0.531   9.263   5.014  0.00  0.00    +0.178 C 
ATOM     40  C   UNL     1       1.353  10.577   5.069  0.00  0.00    +0.177 C 
ATOM     41  C   UNL     1       1.151  11.336   3.780  0.00  0.00    +0.179 C 
ATOM     42  C   UNL     1       1.614  10.429   2.618  0.00  0.00    +0.201 C 
BRANCH  42  43
ATOM     43  O   UNL     1       1.739  11.124   1.378  0.00  0.00    -0.384 OA
ATOM     44  H   UNL     1       2.292  11.907   1.546  0.00  0.00    +0.210 HD
ENDBRANCH  42  43
BRANCH  41  45
ATOM     45  O   UNL     1      -0.198  11.758   3.794  0.00  0.00    -0.386 OA
ATOM     46  H   UNL     1      -0.771  11.138   3.314  0.00  0.00    +0.210 HD
ENDBRANCH  41  45
BRANCH  40  47
ATOM     47  O   UNL     1       2.749  10.344   5.279  0.00  0.00    -0.386 OA
ATOM     48  H   UNL     1       3.203  11.204   5.238  0.00  0.00    +0.210 HD
ENDBRANCH  40  47
BRANCH  39  49
ATOM     49  C   UNL     1       0.863   8.488   6.314  0.00  0.00    +0.190 C 
BRANCH  49  50
ATOM     50  O   UNL     1       0.125   7.281   6.475  0.00  0.00    -0.392 OA
ATOM     51  H   UNL     1      -0.787   7.523   6.702  0.00  0.00    +0.210 HD
ENDBRANCH  49  50
ENDBRANCH  39  49
ENDBRANCH  36  37
ENDBRANCH  31  36
ENDBRANCH  24  25
ENDBRANCH   6  24
BRANCH   1  52
ATOM     52  O   UNL     1       2.724   1.793  -3.249  0.00  0.00    -0.461 OA
BRANCH  52  56
ATOM     53  C   UNL     1      -1.365   0.742  -2.559  0.00  0.00    +0.041 C 
ATOM     54  C   UNL     1      -0.200  -0.005  -1.910  0.00  0.00    +0.150 C 
ATOM     55  O   UNL     1       1.008   0.763  -1.965  0.00  0.00    -0.334 OA
ATOM     56  C   UNL     1       1.584   0.913  -3.271  0.00  0.00    +0.339 C 
ATOM     57  C   UNL     1       1.965  -0.478  -3.838  0.00  0.00    +0.214 C 
ATOM     58  C   UNL     1       0.697  -1.358  -3.868  0.00  0.00    +0.180 C 
ATOM     59  C   UNL     1       0.013  -1.408  -2.492  0.00  0.00    +0.174 C 
BRANCH  57  60
ATOM     60  O   UNL     1       2.957  -1.142  -3.034  0.00  0.00    -0.383 OA
ATOM     61  H   UNL     1       3.135  -1.998  -3.491  0.00  0.00    +0.210 HD
ENDBRANCH  57  60
BRANCH  58  62
ATOM     62  O   UNL     1       1.052  -2.692  -4.270  0.00  0.00    -0.386 OA
ATOM     63  H   UNL     1       1.087  -3.218  -3.443  0.00  0.00    +0.210 HD
ENDBRANCH  58  62
BRANCH  59  64
ATOM     64  O   UNL     1       0.849  -2.180  -1.610  0.00  0.00    -0.387 OA
ATOM     65  H   UNL     1       1.681  -1.667  -1.497  0.00  0.00    +0.210 HD
ENDBRANCH  59  64
ENDBRANCH  52  56
ENDBRANCH   1  52
TORSDOF 20
