REMARK  Name = 
REMARK  22 active torsions:
REMARK  status: ('A' for Active; 'I' for Inactive)
REMARK    1  A    between atoms: C_1  and  C_2
REMARK    2  A    between atoms: C_2  and  O_4
REMARK    3  A    between atoms: O_4  and  C_5
REMARK    4  A    between atoms: C_9  and  O_22
REMARK    5  A    between atoms: C_11  and  O_18
REMARK    6  A    between atoms: C_12  and  O_14
REMARK    7  A    between atoms: O_14  and  C_15
REMARK    8  A    between atoms: C_15  and  C_17
REMARK    9  A    between atoms: O_18  and  C_19
REMARK   10  A    between atoms: C_19  and  C_21
REMARK   11  A    between atoms: O_22  and  C_23
REMARK   12  A    between atoms: C_23  and  C_24
REMARK   13  A    between atoms: C_25  and  O_56
REMARK   14  A    between atoms: C_27  and  O_55
REMARK   15  A    between atoms: C_28  and  O_54
REMARK   16  A    between atoms: C_29  and  O_32
REMARK   17  A    between atoms: O_32  and  C_33
REMARK   18  A    between atoms: C_34  and  C_46
REMARK   19  A    between atoms: C_38  and  O_45
REMARK   20  A    between atoms: C_40  and  O_44
REMARK   21  A    between atoms: C_48  and  O_53
REMARK   22  A    between atoms: C_49  and  O_52
REMARK                            x       y       z     vdW  Elec       q    Type
REMARK                         _______ _______ _______ _____ _____    ______ ____
ROOT
ATOM      1  C   UNL     1       2.856  -5.839   2.958  0.00  0.00    +0.179 C 
ATOM      2  O   UNL     1       1.541  -6.247   2.517  0.00  0.00    -0.331 OA
ATOM      3  C   UNL     1       0.487  -5.381   3.000  0.00  0.00    +0.340 C 
ATOM      4  C   UNL     1       0.463  -5.456   4.544  0.00  0.00    +0.214 C 
ATOM      5  C   UNL     1       1.821  -5.054   5.127  0.00  0.00    +0.180 C 
ATOM      6  C   UNL     1       2.940  -5.904   4.499  0.00  0.00    +0.177 C 
ENDROOT
BRANCH   6   7
ATOM      7  O   UNL     1       4.205  -5.499   5.011  0.00  0.00    -0.386 OA
ATOM      8  H   UNL     1       4.910  -5.931   4.492  0.00  0.00    +0.210 HD
ENDBRANCH   6   7
BRANCH   5   9
ATOM      9  O   UNL     1       1.789  -5.245   6.552  0.00  0.00    -0.386 OA
ATOM     10  H   UNL     1       1.399  -6.130   6.689  0.00  0.00    +0.210 HD
ENDBRANCH   5   9
BRANCH   4  11
ATOM     11  O   UNL     1       0.190  -6.813   4.984  0.00  0.00    -0.383 OA
ATOM     12  H   UNL     1       0.303  -7.389   4.202  0.00  0.00    +0.210 HD
ENDBRANCH   4  11
BRANCH   3  13
ATOM     13  O   UNL     1      -0.761  -5.854   2.467  0.00  0.00    -0.453 OA
BRANCH  13  14
ATOM     14  C   UNL     1      -1.865  -5.006   2.422  0.00  0.00    +0.214 A 
ATOM     15  C   UNL     1      -1.816  -3.593   2.916  0.00  0.00    +0.238 A 
ATOM     16  O   UNL     1      -0.755  -3.048   3.198  0.00  0.00    -0.283 OA
ATOM     17  C   UNL     1      -3.088  -2.867   3.048  0.00  0.00    +0.109 A 
ATOM     18  C   UNL     1      -4.221  -3.438   2.478  0.00  0.00    +0.147 A 
ATOM     19  C   UNL     1      -5.445  -2.763   2.516  0.00  0.00    +0.092 A 
ATOM     20  C   UNL     1      -5.519  -1.529   3.153  0.00  0.00    +0.124 A 
ATOM     21  C   UNL     1      -4.404  -0.959   3.753  0.00  0.00    +0.091 A 
ATOM     22  O   UNL     1      -4.205  -4.663   1.864  0.00  0.00    -0.451 OA
ATOM     23  C   UNL     1      -3.186  -1.630   3.703  0.00  0.00    +0.135 A 
ATOM     24  C   UNL     1      -3.054  -5.441   1.933  0.00  0.00    +0.181 A 
BRANCH  24  25
ATOM     25  C   UNL     1      -3.289  -6.837   1.461  0.00  0.00    +0.025 A 
ATOM     26  C   UNL     1      -4.505  -7.483   1.775  0.00  0.00    +0.015 A 
ATOM     27  C   UNL     1      -4.723  -8.827   1.444  0.00  0.00    +0.050 A 
ATOM     28  C   UNL     1      -3.726  -9.527   0.789  0.00  0.00    +0.158 A 
ATOM     29  C   UNL     1      -2.553  -8.893   0.400  0.00  0.00    +0.159 A 
ATOM     30  C   UNL     1      -2.333  -7.556   0.721  0.00  0.00    +0.060 A 
BRANCH  29  31
ATOM     31  O   UNL     1      -1.631  -9.636  -0.283  0.00  0.00    -0.503 OA
ATOM     32  H   UNL     1      -0.924  -9.038  -0.581  0.00  0.00    +0.292 HD
ENDBRANCH  29  31
BRANCH  28  33
ATOM     33  O   UNL     1      -3.907 -10.857   0.530  0.00  0.00    -0.503 OA
ATOM     34  H   UNL     1      -3.055 -11.151   0.151  0.00  0.00    +0.292 HD
ENDBRANCH  28  33
ENDBRANCH  24  25
BRANCH  20  35
ATOM     35  O   UNL     1      -6.683  -0.823   3.220  0.00  0.00    -0.507 OA
ATOM     36  H   UNL     1      -7.385  -1.317   2.763  0.00  0.00    +0.292 HD
ENDBRANCH  20  35
BRANCH  23  37
ATOM     37  O   UNL     1      -2.103  -1.073   4.320  0.00  0.00    -0.506 OA
ATOM     38  H   UNL     1      -2.345  -0.225   4.726  0.00  0.00    +0.292 HD
ENDBRANCH  23  37
ENDBRANCH  13  14
ENDBRANCH   3  13
BRANCH   1  39
ATOM     39  C   UNL     1       3.292  -4.490   2.343  0.00  0.00    +0.197 C 
BRANCH  39  40
ATOM     40  O   UNL     1       4.677  -4.246   2.578  0.00  0.00    -0.345 OA
BRANCH  40  44
ATOM     41  C   UNL     1       6.990  -1.730   0.240  0.00  0.00    +0.246 C 
ATOM     42  C   UNL     1       7.083  -1.466   1.757  0.00  0.00    +0.264 C 
ATOM     43  C   UNL     1       6.541  -2.691   2.517  0.00  0.00    +0.276 C 
ATOM     44  C   UNL     1       5.107  -3.001   2.015  0.00  0.00    +0.295 C 
ATOM     45  O   UNL     1       5.018  -3.093   0.596  0.00  0.00    -0.344 OA
ATOM     46  C   UNL     1       5.503  -1.933  -0.082  0.00  0.00    +0.211 C 
BRANCH  43  47
ATOM     47  O   UNL     1       6.453  -2.401   3.930  0.00  0.00    -0.452 OA
BRANCH  47  48
ATOM     48  C   UNL     1       6.613  -3.467   4.764  0.00  0.00    +0.304 C 
ATOM     49  C   UNL     1       6.080  -3.137   6.125  0.00  0.00    +0.136 C 
ATOM     50  O   UNL     1       7.120  -4.538   4.459  0.00  0.00    -0.251 OA
ENDBRANCH  47  48
ENDBRANCH  43  47
BRANCH  42  51
ATOM     51  O   UNL     1       8.459  -1.190   2.122  0.00  0.00    -0.454 OA
BRANCH  51  52
ATOM     52  C   UNL     1       8.632  -0.335   3.171  0.00  0.00    +0.304 C 
ATOM     53  C   UNL     1      10.088  -0.134   3.470  0.00  0.00    +0.136 C 
ATOM     54  O   UNL     1       7.733   0.197   3.808  0.00  0.00    -0.251 OA
ENDBRANCH  51  52
ENDBRANCH  42  51
BRANCH  41  55
ATOM     55  O   UNL     1       7.703  -2.957  -0.059  0.00  0.00    -0.455 OA
BRANCH  55  57
ATOM     56  C   UNL     1       7.881  -4.823  -1.464  0.00  0.00    +0.136 C 
ATOM     57  C   UNL     1       7.712  -3.338  -1.365  0.00  0.00    +0.304 C 
ATOM     58  O   UNL     1       7.478  -2.600  -2.312  0.00  0.00    -0.251 OA
ENDBRANCH  55  57
ENDBRANCH  41  55
ENDBRANCH  40  44
ENDBRANCH  39  40
ENDBRANCH   1  39
TORSDOF 19
