REMARK  Name = 
REMARK  12 active torsions:
REMARK  status: ('A' for Active; 'I' for Inactive)
REMARK    1  A    between atoms: C_1  and  C_2
REMARK    2  A    between atoms: C_3  and  O_36
REMARK    3  A    between atoms: C_5  and  O_35
REMARK    4  A    between atoms: C_7  and  O_34
REMARK    5  A    between atoms: C_8  and  O_11
REMARK    6  A    between atoms: O_11  and  C_12
REMARK    7  A    between atoms: C_14  and  O_33
REMARK    8  A    between atoms: C_19  and  C_25
REMARK    9  A    between atoms: C_20  and  O_23
REMARK   10  A    between atoms: O_23  and  C_24
REMARK   11  A    between atoms: C_27  and  O_32
REMARK   12  A    between atoms: C_28  and  O_31
REMARK                            x       y       z     vdW  Elec       q    Type
REMARK                         _______ _______ _______ _____ _____    ______ ____
ROOT
ATOM      1  C   UNL     1       2.768   2.852  -3.242  0.00  0.00    +0.131 A 
ATOM      2  C   UNL     1       1.513   3.347  -2.878  0.00  0.00    +0.093 A 
ATOM      3  C   UNL     1       1.293   4.735  -2.821  0.00  0.00    +0.147 A 
ATOM      4  O   UNL     1       0.032   5.149  -2.466  0.00  0.00    -0.451 OA
ATOM      5  C   UNL     1      -0.241   6.512  -2.422  0.00  0.00    +0.181 A 
ATOM      6  C   UNL     1       0.645   7.494  -2.670  0.00  0.00    +0.211 A 
ATOM      7  C   UNL     1       2.047   7.079  -3.019  0.00  0.00    +0.238 A 
ATOM      8  O   UNL     1       2.937   7.896  -3.214  0.00  0.00    -0.283 OA
ATOM      9  C   UNL     1       2.321   5.629  -3.115  0.00  0.00    +0.109 A 
ATOM     10  C   UNL     1       3.581   5.120  -3.471  0.00  0.00    +0.135 A 
ATOM     11  C   UNL     1       3.801   3.743  -3.523  0.00  0.00    +0.092 A 
ENDROOT
BRANCH   5  12
ATOM     12  C   UNL     1      -1.652   6.796  -2.083  0.00  0.00    +0.025 A 
ATOM     13  C   UNL     1      -2.620   6.862  -3.102  0.00  0.00    +0.015 A 
ATOM     14  C   UNL     1      -3.966   7.094  -2.797  0.00  0.00    +0.050 A 
ATOM     15  C   UNL     1      -4.344   7.260  -1.474  0.00  0.00    +0.158 A 
ATOM     16  C   UNL     1      -3.394   7.218  -0.456  0.00  0.00    +0.159 A 
ATOM     17  C   UNL     1      -2.049   6.989  -0.748  0.00  0.00    +0.060 A 
BRANCH  15  18
ATOM     18  O   UNL     1      -5.661   7.462  -1.177  0.00  0.00    -0.503 OA
ATOM     19  H   UNL     1      -5.687   7.534  -0.202  0.00  0.00    +0.292 HD
ENDBRANCH  15  18
BRANCH  16  20
ATOM     20  O   UNL     1      -3.841   7.404   0.827  0.00  0.00    -0.503 OA
ATOM     21  H   UNL     1      -3.069   7.408   1.417  0.00  0.00    +0.292 HD
ENDBRANCH  16  20
ENDBRANCH   5  12
BRANCH   6  22
ATOM     22  O   UNL     1       0.245   8.821  -2.587  0.00  0.00    -0.488 OA
ATOM     23  C   UNL     1       1.198   9.838  -2.897  0.00  0.00    +0.277 C 
ENDBRANCH   6  22
BRANCH  10  24
ATOM     24  O   UNL     1       4.619   5.949  -3.784  0.00  0.00    -0.506 OA
ATOM     25  H   UNL     1       5.425   5.442  -3.966  0.00  0.00    +0.292 HD
ENDBRANCH  10  24
BRANCH   1  26
ATOM     26  O   UNL     1       3.130   1.536  -3.315  0.00  0.00    -0.461 OA
BRANCH  26  30
ATOM     27  C   UNL     1      -0.751  -0.352  -3.371  0.00  0.00    +0.041 C 
ATOM     28  C   UNL     1       0.509  -0.956  -2.757  0.00  0.00    +0.150 C 
ATOM     29  O   UNL     1       1.481   0.077  -2.519  0.00  0.00    -0.334 OA
ATOM     30  C   UNL     1       2.117   0.592  -3.691  0.00  0.00    +0.339 C 
ATOM     31  C   UNL     1       2.841  -0.549  -4.438  0.00  0.00    +0.214 C 
ATOM     32  C   UNL     1       1.797  -1.598  -4.845  0.00  0.00    +0.180 C 
ATOM     33  C   UNL     1       1.065  -2.125  -3.598  0.00  0.00    +0.174 C 
BRANCH  31  34
ATOM     34  O   UNL     1       3.822  -1.155  -3.561  0.00  0.00    -0.383 OA
ATOM     35  H   UNL     1       4.144  -0.438  -2.978  0.00  0.00    +0.210 HD
ENDBRANCH  31  34
BRANCH  32  36
ATOM     36  O   UNL     1       2.396  -2.650  -5.608  0.00  0.00    -0.386 OA
ATOM     37  H   UNL     1       2.060  -3.499  -5.266  0.00  0.00    +0.210 HD
ENDBRANCH  32  36
BRANCH  33  38
ATOM     38  O   UNL     1       1.948  -2.922  -2.795  0.00  0.00    -0.387 OA
ATOM     39  H   UNL     1       2.790  -2.422  -2.713  0.00  0.00    +0.210 HD
ENDBRANCH  33  38
ENDBRANCH  26  30
ENDBRANCH   1  26
TORSDOF 10
