REMARK  Name = 
REMARK  31 active torsions:
REMARK  status: ('A' for Active; 'I' for Inactive)
REMARK    1  A    between atoms: C_1  and  C_2
REMARK    2  A    between atoms: C_3  and  O_78
REMARK    3  A    between atoms: C_5  and  O_77
REMARK    4  A    between atoms: C_6  and  O_76
REMARK    5  A    between atoms: C_8  and  O_11
REMARK    6  A    between atoms: O_11  and  C_12
REMARK    7  A    between atoms: C_14  and  O_75
REMARK    8  A    between atoms: C_19  and  C_67
REMARK    9  A    between atoms: C_20  and  O_23
REMARK   10  A    between atoms: O_23  and  C_24
REMARK   11  A    between atoms: C_26  and  O_37
REMARK   12  A    between atoms: C_27  and  O_36
REMARK   13  A    between atoms: C_29  and  O_35
REMARK   14  A    between atoms: C_31  and  C_33
REMARK   15  A    between atoms: C_33  and  O_34
REMARK   16  A    between atoms: O_37  and  C_38
REMARK   17  A    between atoms: C_40  and  O_66
REMARK   18  A    between atoms: C_41  and  O_65
REMARK   19  A    between atoms: C_43  and  O_64
REMARK   20  A    between atoms: C_45  and  C_47
REMARK   21  A    between atoms: C_47  and  O_48
REMARK   22  A    between atoms: O_48  and  C_49
REMARK   23  A    between atoms: C_49  and  C_51
REMARK   24  A    between atoms: C_52  and  C_53
REMARK   25  A    between atoms: C_55  and  O_62
REMARK   26  A    between atoms: C_56  and  O_61
REMARK   27  A    between atoms: C_57  and  O_59
REMARK   28  A    between atoms: O_59  and  C_60
REMARK   29  A    between atoms: O_62  and  C_63
REMARK   30  A    between atoms: C_69  and  O_74
REMARK   31  A    between atoms: C_70  and  O_73
REMARK                            x       y       z     vdW  Elec       q    Type
REMARK                         _______ _______ _______ _____ _____    ______ ____
ROOT
ATOM      1  C   UNL     1       1.177  10.011  -2.333  0.00  0.00    +0.340 C 
ATOM      2  O   UNL     1       1.555  10.806  -1.176  0.00  0.00    -0.331 OA
ATOM      3  C   UNL     1       0.788  11.990  -0.921  0.00  0.00    +0.179 C 
ATOM      4  C   UNL     1       0.768  12.910  -2.147  0.00  0.00    +0.177 C 
ATOM      5  C   UNL     1       0.100  12.159  -3.301  0.00  0.00    +0.180 C 
ATOM      6  C   UNL     1       0.911  10.890  -3.635  0.00  0.00    +0.221 C 
ENDROOT
BRANCH   5   7
ATOM      7  O   UNL     1      -1.259  11.856  -2.991  0.00  0.00    -0.386 OA
ATOM      8  H   UNL     1      -1.584  11.253  -3.686  0.00  0.00    +0.210 HD
ENDBRANCH   5   7
BRANCH   4   9
ATOM      9  O   UNL     1       2.109  13.301  -2.495  0.00  0.00    -0.386 OA
ATOM     10  H   UNL     1       2.052  13.860  -3.294  0.00  0.00    +0.210 HD
ENDBRANCH   4   9
BRANCH   6  11
ATOM     11  O   UNL     1       0.457  10.214  -4.863  0.00  0.00    -0.337 OA
BRANCH  11  12
ATOM     12  C   UNL     1       0.410  11.057  -6.071  0.00  0.00    +0.282 C 
ATOM     13  O   UNL     1       0.098  10.312  -7.295  0.00  0.00    -0.339 OA
ATOM     14  C   UNL     1       1.173   9.525  -7.874  0.00  0.00    +0.190 C 
ATOM     15  C   UNL     1       2.523  10.263  -7.967  0.00  0.00    +0.178 C 
ATOM     16  C   UNL     1       2.836  10.942  -6.656  0.00  0.00    +0.179 C 
ATOM     17  C   UNL     1       1.683  11.903  -6.350  0.00  0.00    +0.201 C 
BRANCH  16  18
ATOM     18  O   UNL     1       3.073   9.975  -5.619  0.00  0.00    -0.386 OA
ATOM     19  H   UNL     1       2.262   9.458  -5.432  0.00  0.00    +0.210 HD
ENDBRANCH  16  18
BRANCH  15  20
ATOM     20  O   UNL     1       2.492  11.259  -9.005  0.00  0.00    -0.386 OA
ATOM     21  H   UNL     1       3.363  11.694  -9.042  0.00  0.00    +0.210 HD
ENDBRANCH  15  20
BRANCH  17  22
ATOM     22  O   UNL     1       2.046  12.855  -5.343  0.00  0.00    -0.384 OA
ATOM     23  H   UNL     1       3.008  12.769  -5.197  0.00  0.00    +0.210 HD
ENDBRANCH  17  22
BRANCH  14  24
ATOM     24  C   UNL     1       0.895   9.075  -9.327  0.00  0.00    +0.266 C 
BRANCH  24  25
ATOM     25  O   UNL     1      -0.219   8.207  -9.476  0.00  0.00    -0.459 OA
BRANCH  25  26
ATOM     26  C   UNL     1       0.042   6.911  -9.191  0.00  0.00    +0.332 C 
ATOM     27  O   UNL     1       0.969   6.444  -8.571  0.00  0.00    -0.246 OA
BRANCH  26  28
ATOM     28  C   UNL     1      -0.996   6.155  -9.907  0.00  0.00    +0.092 C 
ATOM     29  C   UNL     1      -1.278   4.885  -9.595  0.00  0.00    +0.015 C 
BRANCH  29  30
ATOM     30  C   UNL     1      -2.324   4.160 -10.319  0.00  0.00    -0.018 A 
ATOM     31  C   UNL     1      -3.442   4.816 -10.842  0.00  0.00    +0.057 A 
ATOM     32  C   UNL     1      -4.420   4.117 -11.545  0.00  0.00    +0.166 A 
ATOM     33  C   UNL     1      -4.305   2.716 -11.689  0.00  0.00    +0.201 A 
ATOM     34  C   UNL     1      -3.201   2.037 -11.150  0.00  0.00    +0.166 A 
ATOM     35  C   UNL     1      -2.225   2.779 -10.466  0.00  0.00    +0.057 A 
BRANCH  34  36
ATOM     36  O   UNL     1      -2.871   0.712 -11.147  0.00  0.00    -0.491 OA
ATOM     37  C   UNL     1      -3.669  -0.260 -11.781  0.00  0.00    +0.277 C 
ENDBRANCH  34  36
BRANCH  33  38
ATOM     38  O   UNL     1      -5.346   2.125 -12.353  0.00  0.00    -0.501 OA
ATOM     39  H   UNL     1      -5.104   1.247 -12.658  0.00  0.00    +0.292 HD
ENDBRANCH  33  38
BRANCH  32  40
ATOM     40  O   UNL     1      -5.514   4.717 -12.123  0.00  0.00    -0.491 OA
ATOM     41  C   UNL     1      -5.608   6.136 -12.044  0.00  0.00    +0.277 C 
ENDBRANCH  32  40
ENDBRANCH  29  30
ENDBRANCH  26  28
ENDBRANCH  25  26
ENDBRANCH  24  25
ENDBRANCH  14  24
ENDBRANCH  11  12
ENDBRANCH   6  11
BRANCH   3  42
ATOM     42  C   UNL     1       1.394  12.727   0.296  0.00  0.00    +0.190 C 
BRANCH  42  43
ATOM     43  O   UNL     1       2.770  13.075   0.138  0.00  0.00    -0.392 OA
ATOM     44  H   UNL     1       2.998  12.905  -0.799  0.00  0.00    +0.210 HD
ENDBRANCH  42  43
ENDBRANCH   3  42
BRANCH   1  45
ATOM     45  O   UNL     1       0.150   9.064  -1.974  0.00  0.00    -0.453 OA
BRANCH  45  51
ATOM     46  C   UNL     1       0.715   2.944  -3.725  0.00  0.00    +0.131 A 
ATOM     47  C   UNL     1       0.254   3.541  -2.547  0.00  0.00    +0.093 A 
ATOM     48  C   UNL     1       0.510   4.892  -2.280  0.00  0.00    +0.147 A 
ATOM     49  O   UNL     1       0.038   5.436  -1.115  0.00  0.00    -0.451 OA
ATOM     50  C   UNL     1      -0.161   6.821  -1.069  0.00  0.00    +0.181 A 
ATOM     51  C   UNL     1       0.474   7.700  -1.893  0.00  0.00    +0.214 A 
ATOM     52  C   UNL     1       1.483   7.056  -2.817  0.00  0.00    +0.238 A 
ATOM     53  O   UNL     1       2.478   7.628  -3.240  0.00  0.00    -0.283 OA
ATOM     54  C   UNL     1       1.229   5.662  -3.186  0.00  0.00    +0.109 A 
ATOM     55  C   UNL     1       1.669   5.079  -4.378  0.00  0.00    +0.135 A 
ATOM     56  C   UNL     1       1.424   3.725  -4.643  0.00  0.00    +0.092 A 
BRANCH  50  57
ATOM     57  C   UNL     1      -1.191   7.174  -0.050  0.00  0.00    +0.025 A 
ATOM     58  C   UNL     1      -2.323   6.342   0.107  0.00  0.00    +0.015 A 
ATOM     59  C   UNL     1      -3.345   6.658   1.010  0.00  0.00    +0.050 A 
ATOM     60  C   UNL     1      -3.225   7.800   1.780  0.00  0.00    +0.158 A 
ATOM     61  C   UNL     1      -2.083   8.589   1.702  0.00  0.00    +0.159 A 
ATOM     62  C   UNL     1      -1.058   8.279   0.803  0.00  0.00    +0.060 A 
BRANCH  61  63
ATOM     63  O   UNL     1      -2.013   9.678   2.531  0.00  0.00    -0.503 OA
ATOM     64  H   UNL     1      -1.127  10.065   2.440  0.00  0.00    +0.292 HD
ENDBRANCH  61  63
BRANCH  60  65
ATOM     65  O   UNL     1      -4.246   8.145   2.620  0.00  0.00    -0.503 OA
ATOM     66  H   UNL     1      -3.964   8.994   3.015  0.00  0.00    +0.292 HD
ENDBRANCH  60  65
ENDBRANCH  50  57
BRANCH  55  67
ATOM     67  O   UNL     1       2.301   5.841  -5.319  0.00  0.00    -0.506 OA
ATOM     68  H   UNL     1       2.300   5.387  -6.179  0.00  0.00    +0.292 HD
ENDBRANCH  55  67
BRANCH  46  69
ATOM     69  O   UNL     1       0.552   1.630  -4.100  0.00  0.00    -0.461 OA
BRANCH  69  73
ATOM     70  C   UNL     1      -1.454   0.682  -0.468  0.00  0.00    +0.041 C 
ATOM     71  C   UNL     1      -0.213  -0.072  -0.940  0.00  0.00    +0.150 C 
ATOM     72  O   UNL     1       0.493   0.668  -1.939  0.00  0.00    -0.334 OA
ATOM     73  C   UNL     1      -0.172   0.772  -3.203  0.00  0.00    +0.339 C 
ATOM     74  C   UNL     1      -0.360  -0.642  -3.819  0.00  0.00    +0.214 C 
ATOM     75  C   UNL     1      -1.165  -1.494  -2.822  0.00  0.00    +0.180 C 
ATOM     76  C   UNL     1      -0.515  -1.495  -1.427  0.00  0.00    +0.174 C 
BRANCH  74  77
ATOM     77  O   UNL     1       0.897  -1.303  -4.071  0.00  0.00    -0.383 OA
ATOM     78  H   UNL     1       0.665  -2.161  -4.461  0.00  0.00    +0.210 HD
ENDBRANCH  74  77
BRANCH  75  79
ATOM     79  O   UNL     1      -1.245  -2.845  -3.309  0.00  0.00    -0.386 OA
ATOM     80  H   UNL     1      -0.568  -3.349  -2.808  0.00  0.00    +0.210 HD
ENDBRANCH  75  79
BRANCH  76  81
ATOM     81  O   UNL     1       0.707  -2.251  -1.510  0.00  0.00    -0.387 OA
ATOM     82  H   UNL     1       1.307  -1.745  -2.103  0.00  0.00    +0.210 HD
ENDBRANCH  76  81
ENDBRANCH  69  73
ENDBRANCH  46  69
ENDBRANCH  45  51
ENDBRANCH   1  45
TORSDOF 28
