REMARK  Name = 
REMARK  17 active torsions:
REMARK  status: ('A' for Active; 'I' for Inactive)
REMARK    1  A    between atoms: C_1  and  C_2
REMARK    2  A    between atoms: C_3  and  O_35
REMARK    3  A    between atoms: C_5  and  O_34
REMARK    4  A    between atoms: C_6  and  O_33
REMARK    5  A    between atoms: C_8  and  O_11
REMARK    6  A    between atoms: O_11  and  C_12
REMARK    7  A    between atoms: C_13  and  C_25
REMARK    8  A    between atoms: C_17  and  O_24
REMARK    9  A    between atoms: C_19  and  O_23
REMARK   10  A    between atoms: C_27  and  O_32
REMARK   11  A    between atoms: C_28  and  O_31
REMARK   12  A    between atoms: O_35  and  C_36
REMARK   13  A    between atoms: C_38  and  O_48
REMARK   14  A    between atoms: C_39  and  O_47
REMARK   15  A    between atoms: C_40  and  O_46
REMARK   16  A    between atoms: C_42  and  C_44
REMARK   17  A    between atoms: C_44  and  O_45
REMARK                            x       y       z     vdW  Elec       q    Type
REMARK                         _______ _______ _______ _____ _____    ______ ____
ROOT
ATOM      1  C   UNL     1       1.153   0.218   0.097  0.00  0.00    +0.041 C 
ATOM      2  C   UNL     1       2.669   0.085  -0.135  0.00  0.00    +0.151 C 
ATOM      3  O   UNL     1       3.160   0.988  -1.151  0.00  0.00    -0.334 OA
ATOM      4  C   UNL     1       2.676   0.638  -2.461  0.00  0.00    +0.339 C 
ATOM      5  C   UNL     1       3.227  -0.751  -2.877  0.00  0.00    +0.214 C 
ATOM      6  C   UNL     1       2.718  -1.779  -1.870  0.00  0.00    +0.180 C 
ATOM      7  C   UNL     1       3.070  -1.383  -0.424  0.00  0.00    +0.181 C 
ENDROOT
BRANCH   5   8
ATOM      8  O   UNL     1       4.666  -0.763  -2.956  0.00  0.00    -0.383 OA
ATOM      9  H   UNL     1       4.898  -1.646  -3.292  0.00  0.00    +0.210 HD
ENDBRANCH   5   8
BRANCH   6  10
ATOM     10  O   UNL     1       3.281  -3.068  -2.168  0.00  0.00    -0.386 OA
ATOM     11  H   UNL     1       4.175  -3.035  -1.761  0.00  0.00    +0.210 HD
ENDBRANCH   6  10
BRANCH   7  12
ATOM     12  O   UNL     1       4.473  -1.677  -0.259  0.00  0.00    -0.340 OA
BRANCH  12  13
ATOM     13  C   UNL     1       5.057  -1.390   1.014  0.00  0.00    +0.282 C 
ATOM     14  O   UNL     1       6.466  -1.663   0.945  0.00  0.00    -0.341 OA
ATOM     15  C   UNL     1       6.786  -3.042   0.686  0.00  0.00    +0.178 C 
ATOM     16  C   UNL     1       6.143  -3.988   1.718  0.00  0.00    +0.177 C 
ATOM     17  C   UNL     1       4.650  -3.694   1.875  0.00  0.00    +0.179 C 
ATOM     18  C   UNL     1       4.445  -2.204   2.176  0.00  0.00    +0.201 C 
BRANCH  18  19
ATOM     19  O   UNL     1       3.059  -1.925   2.425  0.00  0.00    -0.384 OA
ATOM     20  H   UNL     1       2.548  -2.738   2.251  0.00  0.00    +0.210 HD
ENDBRANCH  18  19
BRANCH  17  21
ATOM     21  O   UNL     1       4.102  -4.503   2.929  0.00  0.00    -0.386 OA
ATOM     22  H   UNL     1       3.843  -3.914   3.663  0.00  0.00    +0.210 HD
ENDBRANCH  17  21
BRANCH  16  23
ATOM     23  O   UNL     1       6.760  -3.841   3.006  0.00  0.00    -0.386 OA
ATOM     24  H   UNL     1       6.263  -4.427   3.609  0.00  0.00    +0.210 HD
ENDBRANCH  16  23
BRANCH  15  25
ATOM     25  C   UNL     1       8.318  -3.207   0.686  0.00  0.00    +0.190 C 
BRANCH  25  26
ATOM     26  O   UNL     1       8.966  -2.434  -0.326  0.00  0.00    -0.392 OA
ATOM     27  H   UNL     1       8.364  -2.347  -1.082  0.00  0.00    +0.210 HD
ENDBRANCH  25  26
ENDBRANCH  15  25
ENDBRANCH  12  13
ENDBRANCH   7  12
BRANCH   4  28
ATOM     28  O   UNL     1       2.981   1.625  -3.458  0.00  0.00    -0.453 OA
BRANCH  28  29
ATOM     29  C   UNL     1       2.198   1.582  -4.624  0.00  0.00    +0.214 A 
ATOM     30  C   UNL     1       1.013   0.658  -4.748  0.00  0.00    +0.238 A 
ATOM     31  O   UNL     1       0.781  -0.245  -3.952  0.00  0.00    -0.283 OA
ATOM     32  C   UNL     1       0.146   0.793  -5.907  0.00  0.00    +0.109 A 
ATOM     33  C   UNL     1       0.573   1.614  -6.940  0.00  0.00    +0.147 A 
ATOM     34  C   UNL     1      -0.179   1.668  -8.117  0.00  0.00    +0.092 A 
ATOM     35  C   UNL     1      -1.340   0.897  -8.227  0.00  0.00    +0.124 A 
ATOM     36  C   UNL     1      -1.783   0.096  -7.185  0.00  0.00    +0.091 A 
ATOM     37  O   UNL     1       1.721   2.367  -6.870  0.00  0.00    -0.451 OA
ATOM     38  C   UNL     1      -1.044   0.051  -6.019  0.00  0.00    +0.135 A 
ATOM     39  C   UNL     1       2.487   2.351  -5.698  0.00  0.00    +0.181 A 
BRANCH  39  40
ATOM     40  C   UNL     1       3.658   3.287  -5.746  0.00  0.00    +0.025 A 
ATOM     41  C   UNL     1       3.557   4.520  -6.424  0.00  0.00    +0.015 A 
ATOM     42  C   UNL     1       4.628   5.427  -6.459  0.00  0.00    +0.050 A 
ATOM     43  C   UNL     1       5.813   5.108  -5.820  0.00  0.00    +0.158 A 
ATOM     44  C   UNL     1       5.953   3.886  -5.174  0.00  0.00    +0.159 A 
ATOM     45  C   UNL     1       4.897   2.974  -5.148  0.00  0.00    +0.060 A 
BRANCH  44  46
ATOM     46  O   UNL     1       7.153   3.622  -4.572  0.00  0.00    -0.503 OA
ATOM     47  H   UNL     1       7.075   2.772  -4.103  0.00  0.00    +0.292 HD
ENDBRANCH  44  46
BRANCH  43  48
ATOM     48  O   UNL     1       6.844   6.003  -5.822  0.00  0.00    -0.503 OA
ATOM     49  H   UNL     1       7.543   5.576  -5.285  0.00  0.00    +0.292 HD
ENDBRANCH  43  48
ENDBRANCH  39  40
BRANCH  38  50
ATOM     50  O   UNL     1      -1.505  -0.712  -4.980  0.00  0.00    -0.506 OA
ATOM     51  H   UNL     1      -2.227  -1.289  -5.276  0.00  0.00    +0.292 HD
ENDBRANCH  38  50
BRANCH  35  52
ATOM     52  O   UNL     1      -2.100   0.887  -9.360  0.00  0.00    -0.507 OA
ATOM     53  H   UNL     1      -1.677   1.447 -10.030  0.00  0.00    +0.292 HD
ENDBRANCH  35  52
ENDBRANCH  28  29
ENDBRANCH   4  28
TORSDOF 16
