REMARK  Name = 
REMARK  23 active torsions:
REMARK  status: ('A' for Active; 'I' for Inactive)
REMARK    1  A    between atoms: C_1  and  C_2
REMARK    2  A    between atoms: C_4  and  O_62
REMARK    3  A    between atoms: C_6  and  O_61
REMARK    4  A    between atoms: C_7  and  O_60
REMARK    5  A    between atoms: C_8  and  O_11
REMARK    6  A    between atoms: O_11  and  C_12
REMARK    7  A    between atoms: C_12  and  C_13
REMARK    8  A    between atoms: C_14  and  O_59
REMARK    9  A    between atoms: C_16  and  O_58
REMARK   10  A    between atoms: C_18  and  O_57
REMARK   11  A    between atoms: C_19  and  O_22
REMARK   12  A    between atoms: O_22  and  C_23
REMARK   13  A    between atoms: C_25  and  O_56
REMARK   14  A    between atoms: C_30  and  C_48
REMARK   15  A    between atoms: C_31  and  O_34
REMARK   16  A    between atoms: O_34  and  C_35
REMARK   17  A    between atoms: C_37  and  O_47
REMARK   18  A    between atoms: C_38  and  O_46
REMARK   19  A    between atoms: C_39  and  O_45
REMARK   20  A    between atoms: C_41  and  C_43
REMARK   21  A    between atoms: C_43  and  O_44
REMARK   22  A    between atoms: C_50  and  O_55
REMARK   23  A    between atoms: C_51  and  O_54
REMARK                            x       y       z     vdW  Elec       q    Type
REMARK                         _______ _______ _______ _____ _____    ______ ____
ROOT
ATOM      1  C   UNL     1       4.152   6.816  -1.007  0.00  0.00    +0.131 A 
ATOM      2  C   UNL     1       4.764   7.912  -0.370  0.00  0.00    +0.093 A 
ATOM      3  C   UNL     1       5.457   7.725   0.838  0.00  0.00    +0.147 A 
ATOM      4  O   UNL     1       6.054   8.797   1.477  0.00  0.00    -0.451 OA
ATOM      5  C   UNL     1       6.946   8.531   2.538  0.00  0.00    +0.181 A 
ATOM      6  C   UNL     1       7.094   7.312   3.117  0.00  0.00    +0.214 A 
ATOM      7  C   UNL     1       6.037   6.343   2.741  0.00  0.00    +0.238 A 
ATOM      8  O   UNL     1       5.524   5.587   3.557  0.00  0.00    -0.283 OA
ATOM      9  C   UNL     1       5.508   6.453   1.389  0.00  0.00    +0.109 A 
ATOM     10  C   UNL     1       5.000   5.352   0.704  0.00  0.00    +0.135 A 
ATOM     11  C   UNL     1       4.335   5.526  -0.500  0.00  0.00    +0.092 A 
ENDROOT
BRANCH   5  12
ATOM     12  C   UNL     1       7.668   9.730   3.046  0.00  0.00    +0.025 A 
ATOM     13  C   UNL     1       8.131  10.746   2.189  0.00  0.00    +0.015 A 
ATOM     14  C   UNL     1       8.788  11.878   2.700  0.00  0.00    +0.050 A 
ATOM     15  C   UNL     1       8.981  12.002   4.067  0.00  0.00    +0.158 A 
ATOM     16  C   UNL     1       8.506  11.024   4.933  0.00  0.00    +0.159 A 
ATOM     17  C   UNL     1       7.841   9.910   4.436  0.00  0.00    +0.060 A 
BRANCH  16  18
ATOM     18  O   UNL     1       8.711  11.204   6.273  0.00  0.00    -0.503 OA
ATOM     19  H   UNL     1       8.276  10.476   6.750  0.00  0.00    +0.292 HD
ENDBRANCH  16  18
BRANCH  15  20
ATOM     20  O   UNL     1       9.625  13.095   4.575  0.00  0.00    -0.503 OA
ATOM     21  H   UNL     1       9.616  12.957   5.544  0.00  0.00    +0.292 HD
ENDBRANCH  15  20
ENDBRANCH   5  12
BRANCH  10  22
ATOM     22  O   UNL     1       5.185   4.092   1.201  0.00  0.00    -0.506 OA
ATOM     23  H   UNL     1       4.881   3.425   0.568  0.00  0.00    +0.292 HD
ENDBRANCH  10  22
BRANCH   6  24
ATOM     24  O   UNL     1       8.060   7.024   4.085  0.00  0.00    -0.453 OA
BRANCH  24  25
ATOM     25  C   UNL     1       8.343   5.636   4.371  0.00  0.00    +0.340 C 
ATOM     26  O   UNL     1       8.758   5.468   5.737  0.00  0.00    -0.331 OA
ATOM     27  C   UNL     1      10.073   5.932   6.069  0.00  0.00    +0.179 C 
ATOM     28  C   UNL     1      11.158   5.367   5.138  0.00  0.00    +0.177 C 
ATOM     29  C   UNL     1      10.781   5.564   3.675  0.00  0.00    +0.180 C 
ATOM     30  C   UNL     1       9.375   5.034   3.392  0.00  0.00    +0.214 C 
BRANCH  30  31
ATOM     31  O   UNL     1       9.073   5.271   2.005  0.00  0.00    -0.383 OA
ATOM     32  H   UNL     1       9.154   6.229   1.845  0.00  0.00    +0.210 HD
ENDBRANCH  30  31
BRANCH  29  33
ATOM     33  O   UNL     1      11.734   4.853   2.860  0.00  0.00    -0.386 OA
ATOM     34  H   UNL     1      11.264   4.600   2.040  0.00  0.00    +0.210 HD
ENDBRANCH  29  33
BRANCH  28  35
ATOM     35  O   UNL     1      11.355   3.963   5.365  0.00  0.00    -0.386 OA
ATOM     36  H   UNL     1      11.939   3.663   4.638  0.00  0.00    +0.210 HD
ENDBRANCH  28  35
BRANCH  27  37
ATOM     37  C   UNL     1      10.372   5.519   7.527  0.00  0.00    +0.190 C 
BRANCH  37  38
ATOM     38  O   UNL     1       9.462   6.089   8.470  0.00  0.00    -0.392 OA
ATOM     39  H   UNL     1       9.121   6.919   8.105  0.00  0.00    +0.210 HD
ENDBRANCH  37  38
ENDBRANCH  27  37
ENDBRANCH  24  25
ENDBRANCH   6  24
BRANCH   1  40
ATOM     40  O   UNL     1       3.406   7.065  -2.138  0.00  0.00    -0.461 OA
BRANCH  40  43
ATOM     41  C   UNL     1       1.762   4.048  -3.518  0.00  0.00    +0.179 C 
ATOM     42  O   UNL     1       2.778   5.016  -3.175  0.00  0.00    -0.331 OA
ATOM     43  C   UNL     1       2.316   6.146  -2.404  0.00  0.00    +0.339 C 
ATOM     44  C   UNL     1       1.219   6.897  -3.200  0.00  0.00    +0.214 C 
ATOM     45  C   UNL     1       0.076   5.916  -3.505  0.00  0.00    +0.180 C 
ATOM     46  C   UNL     1       0.608   4.716  -4.296  0.00  0.00    +0.177 C 
BRANCH  46  47
ATOM     47  O   UNL     1      -0.485   3.840  -4.582  0.00  0.00    -0.386 OA
ATOM     48  H   UNL     1      -0.130   3.082  -5.083  0.00  0.00    +0.210 HD
ENDBRANCH  46  47
BRANCH  45  49
ATOM     49  O   UNL     1      -0.982   6.545  -4.235  0.00  0.00    -0.386 OA
ATOM     50  H   UNL     1      -1.497   5.814  -4.634  0.00  0.00    +0.210 HD
ENDBRANCH  45  49
BRANCH  44  51
ATOM     51  O   UNL     1       1.753   7.421  -4.432  0.00  0.00    -0.383 OA
ATOM     52  H   UNL     1       2.591   6.957  -4.615  0.00  0.00    +0.210 HD
ENDBRANCH  44  51
BRANCH  41  53
ATOM     53  C   UNL     1       1.327   3.221  -2.288  0.00  0.00    +0.197 C 
BRANCH  53  54
ATOM     54  O   UNL     1       0.523   2.098  -2.659  0.00  0.00    -0.346 OA
BRANCH  54  58
ATOM     55  C   UNL     1       0.272   0.904   1.487  0.00  0.00    +0.041 C 
ATOM     56  C   UNL     1       0.792   0.035   0.346  0.00  0.00    +0.149 C 
ATOM     57  O   UNL     1       1.133   0.845  -0.792  0.00  0.00    -0.343 OA
ATOM     58  C   UNL     1       0.025   1.399  -1.503  0.00  0.00    +0.282 C 
ATOM     59  C   UNL     1      -0.913   0.281  -2.003  0.00  0.00    +0.201 C 
ATOM     60  C   UNL     1      -1.373  -0.571  -0.816  0.00  0.00    +0.179 C 
ATOM     61  C   UNL     1      -0.165  -1.109  -0.031  0.00  0.00    +0.174 C 
BRANCH  59  62
ATOM     62  O   UNL     1      -0.194  -0.560  -2.937  0.00  0.00    -0.384 OA
ATOM     63  H   UNL     1       0.368   0.057  -3.448  0.00  0.00    +0.210 HD
ENDBRANCH  59  62
BRANCH  60  64
ATOM     64  O   UNL     1      -2.186  -1.654  -1.276  0.00  0.00    -0.386 OA
ATOM     65  H   UNL     1      -1.598  -2.195  -1.841  0.00  0.00    +0.210 HD
ENDBRANCH  60  64
BRANCH  61  66
ATOM     66  O   UNL     1       0.552  -2.070  -0.827  0.00  0.00    -0.387 OA
ATOM     67  H   UNL     1       0.794  -1.622  -1.664  0.00  0.00    +0.210 HD
ENDBRANCH  61  66
ENDBRANCH  54  58
ENDBRANCH  53  54
ENDBRANCH  41  53
ENDBRANCH  40  43
ENDBRANCH   1  40
TORSDOF 22
