REMARK  Name = 
REMARK  21 active torsions:
REMARK  status: ('A' for Active; 'I' for Inactive)
REMARK    1  A    between atoms: C_1  and  C_2
REMARK    2  A    between atoms: C_3  and  O_61
REMARK    3  A    between atoms: C_5  and  O_60
REMARK    4  A    between atoms: C_6  and  O_47
REMARK    5  A    between atoms: C_8  and  O_11
REMARK    6  A    between atoms: O_11  and  C_12
REMARK    7  A    between atoms: C_12  and  C_13
REMARK    8  A    between atoms: C_14  and  O_46
REMARK    9  A    between atoms: C_16  and  O_45
REMARK   10  A    between atoms: C_18  and  O_44
REMARK   11  A    between atoms: C_19  and  O_22
REMARK   12  A    between atoms: O_22  and  C_23
REMARK   13  A    between atoms: C_24  and  C_36
REMARK   14  A    between atoms: C_28  and  O_35
REMARK   15  A    between atoms: C_30  and  O_34
REMARK   16  A    between atoms: C_38  and  O_43
REMARK   17  A    between atoms: C_39  and  O_42
REMARK   18  A    between atoms: O_47  and  C_48
REMARK   19  A    between atoms: C_50  and  O_59
REMARK   20  A    between atoms: C_51  and  O_58
REMARK   21  A    between atoms: C_53  and  O_57
REMARK                            x       y       z     vdW  Elec       q    Type
REMARK                         _______ _______ _______ _____ _____    ______ ____
ROOT
ATOM      1  C   UNL     1       2.040   3.928  -3.945  0.00  0.00    +0.179 C 
ATOM      2  O   UNL     1       2.738   4.850  -3.096  0.00  0.00    -0.331 OA
ATOM      3  C   UNL     1       2.077   6.079  -2.697  0.00  0.00    +0.340 C 
ATOM      4  C   UNL     1       1.474   6.815  -3.948  0.00  0.00    +0.214 C 
ATOM      5  C   UNL     1       0.609   5.815  -4.747  0.00  0.00    +0.180 C 
ATOM      6  C   UNL     1       1.487   4.642  -5.199  0.00  0.00    +0.177 C 
ENDROOT
BRANCH   6   7
ATOM      7  O   UNL     1       0.719   3.776  -6.046  0.00  0.00    -0.386 OA
ATOM      8  H   UNL     1       1.349   3.302  -6.622  0.00  0.00    +0.210 HD
ENDBRANCH   6   7
BRANCH   5   9
ATOM      9  O   UNL     1      -0.020   6.396  -5.898  0.00  0.00    -0.386 OA
ATOM     10  H   UNL     1      -0.324   5.637  -6.438  0.00  0.00    +0.210 HD
ENDBRANCH   5   9
BRANCH   4  11
ATOM     11  O   UNL     1       2.495   7.344  -4.823  0.00  0.00    -0.383 OA
ATOM     12  H   UNL     1       3.347   6.953  -4.568  0.00  0.00    +0.210 HD
ENDBRANCH   4  11
BRANCH   3  13
ATOM     13  O   UNL     1       3.123   6.827  -2.031  0.00  0.00    -0.453 OA
BRANCH  13  14
ATOM     14  C   UNL     1       2.922   7.692  -0.965  0.00  0.00    +0.214 A 
ATOM     15  C   UNL     1       1.573   8.238  -0.551  0.00  0.00    +0.238 A 
ATOM     16  O   UNL     1       0.568   7.947  -1.185  0.00  0.00    -0.283 OA
ATOM     17  C   UNL     1       1.510   9.061   0.719  0.00  0.00    +0.109 A 
ATOM     18  C   UNL     1       2.713   9.566   1.159  0.00  0.00    +0.147 A 
ATOM     19  C   UNL     1       2.855  10.323   2.342  0.00  0.00    +0.092 A 
ATOM     20  C   UNL     1       1.741  10.550   3.094  0.00  0.00    +0.124 A 
ATOM     21  C   UNL     1       0.499  10.075   2.679  0.00  0.00    +0.091 A 
ATOM     22  O   UNL     1       3.848   9.340   0.480  0.00  0.00    -0.451 OA
ATOM     23  C   UNL     1       0.384   9.329   1.486  0.00  0.00    +0.135 A 
ATOM     24  C   UNL     1       3.944   8.128  -0.189  0.00  0.00    +0.181 A 
BRANCH  24  25
ATOM     25  C   UNL     1       5.345   7.705  -0.003  0.00  0.00    +0.025 A 
ATOM     26  C   UNL     1       6.248   7.809  -1.052  0.00  0.00    +0.015 A 
ATOM     27  C   UNL     1       7.506   8.363  -0.794  0.00  0.00    +0.050 A 
ATOM     28  C   UNL     1       7.847   8.761   0.500  0.00  0.00    +0.158 A 
ATOM     29  C   UNL     1       7.035   8.434   1.575  0.00  0.00    +0.159 A 
ATOM     30  C   UNL     1       5.805   7.852   1.335  0.00  0.00    +0.060 A 
BRANCH  29  31
ATOM     31  O   UNL     1       7.346   8.798   2.854  0.00  0.00    -0.503 OA
ATOM     32  H   UNL     1       8.283   9.068   2.833  0.00  0.00    +0.292 HD
ENDBRANCH  29  31
BRANCH  28  33
ATOM     33  O   UNL     1       8.933   9.563   0.716  0.00  0.00    -0.503 OA
ATOM     34  H   UNL     1       9.041  10.101  -0.091  0.00  0.00    +0.292 HD
ENDBRANCH  28  33
ENDBRANCH  24  25
BRANCH  23  35
ATOM     35  O   UNL     1      -0.836   8.855   1.114  0.00  0.00    -0.506 OA
ATOM     36  H   UNL     1      -1.474   9.012   1.829  0.00  0.00    +0.292 HD
ENDBRANCH  23  35
BRANCH  20  37
ATOM     37  O   UNL     1       1.821  11.246   4.267  0.00  0.00    -0.507 OA
ATOM     38  H   UNL     1       2.757  11.465   4.446  0.00  0.00    +0.292 HD
ENDBRANCH  20  37
ENDBRANCH  13  14
ENDBRANCH   3  13
BRANCH   1  39
ATOM     39  C   UNL     1       0.942   3.086  -3.237  0.00  0.00    +0.197 C 
BRANCH  39  40
ATOM     40  O   UNL     1       1.347   2.165  -2.239  0.00  0.00    -0.346 OA
BRANCH  40  44
ATOM     41  C   UNL     1       4.293   1.851   0.891  0.00  0.00    +0.041 C 
ATOM     42  C   UNL     1       2.821   1.465   0.973  0.00  0.00    +0.149 C 
ATOM     43  O   UNL     1       2.227   1.384  -0.322  0.00  0.00    -0.343 OA
ATOM     44  C   UNL     1       1.791   2.601  -0.960  0.00  0.00    +0.282 C 
ATOM     45  C   UNL     1       0.748   3.351  -0.032  0.00  0.00    +0.208 C 
ATOM     46  C   UNL     1       1.559   3.641   1.251  0.00  0.00    +0.179 C 
ATOM     47  C   UNL     1       2.020   2.348   1.937  0.00  0.00    +0.174 C 
BRANCH  47  48
ATOM     48  O   UNL     1       0.877   1.619   2.407  0.00  0.00    -0.387 OA
ATOM     49  H   UNL     1       0.418   1.267   1.612  0.00  0.00    +0.210 HD
ENDBRANCH  47  48
BRANCH  46  50
ATOM     50  O   UNL     1       0.864   4.495   2.155  0.00  0.00    -0.386 OA
ATOM     51  H   UNL     1       0.440   3.930   2.828  0.00  0.00    +0.210 HD
ENDBRANCH  46  50
BRANCH  45  52
ATOM     52  O   UNL     1      -0.440   2.547   0.153  0.00  0.00    -0.338 OA
BRANCH  52  53
ATOM     53  C   UNL     1      -1.491   2.942   1.050  0.00  0.00    +0.282 C 
ATOM     54  O   UNL     1      -2.482   1.897   1.050  0.00  0.00    -0.346 OA
ATOM     55  C   UNL     1      -3.113   1.718  -0.219  0.00  0.00    +0.197 C 
ATOM     56  C   UNL     1      -3.506   2.991  -1.012  0.00  0.00    +0.171 C 
ATOM     57  C   UNL     1      -2.816   4.302  -0.601  0.00  0.00    +0.178 C 
ATOM     58  C   UNL     1      -2.299   4.235   0.829  0.00  0.00    +0.201 C 
BRANCH  58  59
ATOM     59  O   UNL     1      -1.639   5.438   1.215  0.00  0.00    -0.384 OA
ATOM     60  H   UNL     1      -0.974   5.646   0.537  0.00  0.00    +0.210 HD
ENDBRANCH  58  59
BRANCH  57  61
ATOM     61  O   UNL     1      -1.739   4.621  -1.497  0.00  0.00    -0.386 OA
ATOM     62  H   UNL     1      -2.082   5.286  -2.121  0.00  0.00    +0.210 HD
ENDBRANCH  57  61
BRANCH  56  63
ATOM     63  O   UNL     1      -4.927   3.184  -0.881  0.00  0.00    -0.387 OA
ATOM     64  H   UNL     1      -5.295   3.255  -1.781  0.00  0.00    +0.210 HD
ENDBRANCH  56  63
ENDBRANCH  52  53
ENDBRANCH  45  52
ENDBRANCH  40  44
ENDBRANCH  39  40
ENDBRANCH   1  39
TORSDOF 20
