REMARK  Name = 
REMARK  19 active torsions:
REMARK  status: ('A' for Active; 'I' for Inactive)
REMARK    1  A    between atoms: C_1  and  O_2
REMARK    2  A    between atoms: O_2  and  C_3
REMARK    3  A    between atoms: C_4  and  O_50
REMARK    4  A    between atoms: C_6  and  C_9
REMARK    5  A    between atoms: C_10  and  O_48
REMARK    6  A    between atoms: C_14  and  O_47
REMARK    7  A    between atoms: C_16  and  O_20
REMARK    8  A    between atoms: O_20  and  C_21
REMARK    9  A    between atoms: C_23  and  O_46
REMARK   10  A    between atoms: C_24  and  O_45
REMARK   11  A    between atoms: C_26  and  O_44
REMARK   12  A    between atoms: C_28  and  C_30
REMARK   13  A    between atoms: C_30  and  O_31
REMARK   14  A    between atoms: O_31  and  C_32
REMARK   15  A    between atoms: C_34  and  O_43
REMARK   16  A    between atoms: C_36  and  O_42
REMARK   17  A    between atoms: C_37  and  C_40
REMARK   18  A    between atoms: C_40  and  O_41
REMARK   19  A    between atoms: O_48  and  C_49
REMARK                            x       y       z     vdW  Elec       q    Type
REMARK                         _______ _______ _______ _____ _____    ______ ____
ROOT
ATOM      1  O   UNL     1       6.152   3.114  -9.798  0.00  0.00    -0.461 OA
ENDROOT
BRANCH   1   8
ATOM      2  C   UNL     1       8.175  -0.267  -5.169  0.00  0.00    +0.181 A 
ATOM      3  O   UNL     1       7.238   0.315  -6.056  0.00  0.00    -0.451 OA
ATOM      4  C   UNL     1       7.636   1.255  -6.976  0.00  0.00    +0.147 A 
ATOM      5  C   UNL     1       8.942   1.705  -7.034  0.00  0.00    +0.109 A 
ATOM      6  C   UNL     1       9.325   2.675  -7.967  0.00  0.00    +0.135 A 
ATOM      7  C   UNL     1       8.404   3.201  -8.863  0.00  0.00    +0.092 A 
ATOM      8  C   UNL     1       7.099   2.709  -8.880  0.00  0.00    +0.131 A 
ATOM      9  C   UNL     1       9.912   1.133  -6.121  0.00  0.00    +0.238 A 
ATOM     10  O   UNL     1      11.074   1.514  -6.194  0.00  0.00    -0.283 OA
ATOM     11  C   UNL     1       6.709   1.769  -7.904  0.00  0.00    +0.093 A 
ATOM     12  C   UNL     1       9.485   0.099  -5.136  0.00  0.00    +0.211 A 
BRANCH   2  16
ATOM     13  C   UNL     1       6.474  -3.409  -2.704  0.00  0.00    +0.161 A 
ATOM     14  C   UNL     1       7.766  -3.504  -3.195  0.00  0.00    +0.050 A 
ATOM     15  C   UNL     1       8.258  -2.519  -4.058  0.00  0.00    +0.015 A 
ATOM     16  C   UNL     1       7.547  -1.346  -4.346  0.00  0.00    +0.025 A 
ATOM     17  C   UNL     1       6.211  -1.296  -3.908  0.00  0.00    +0.060 A 
ATOM     18  C   UNL     1       5.685  -2.336  -3.124  0.00  0.00    +0.159 A 
BRANCH  18  19
ATOM     19  O   UNL     1       4.361  -2.291  -2.773  0.00  0.00    -0.503 OA
ATOM     20  H   UNL     1       4.181  -3.150  -2.340  0.00  0.00    +0.292 HD
ENDBRANCH  18  19
BRANCH  13  22
ATOM     21  C   UNL     1       6.776  -4.977  -0.972  0.00  0.00    +0.277 C 
ATOM     22  O   UNL     1       5.883  -4.332  -1.882  0.00  0.00    -0.491 OA
ENDBRANCH  13  22
ENDBRANCH   2  16
BRANCH  12  23
ATOM     23  O   UNL     1      10.567  -0.288  -4.396  0.00  0.00    -0.488 OA
ATOM     24  C   UNL     1      10.683  -0.974  -3.172  0.00  0.00    +0.277 C 
ENDBRANCH  12  23
BRANCH   6  25
ATOM     25  O   UNL     1      10.608   3.146  -8.074  0.00  0.00    -0.506 OA
ATOM     26  H   UNL     1      11.162   2.671  -7.410  0.00  0.00    +0.292 HD
ENDBRANCH   6  25
ENDBRANCH   1   8
BRANCH   1  27
ATOM     27  C   UNL     1       6.621   3.343 -11.153  0.00  0.00    +0.339 C 
ATOM     28  O   UNL     1       5.767   4.251 -11.868  0.00  0.00    -0.331 OA
ATOM     29  C   UNL     1       4.451   3.757 -12.171  0.00  0.00    +0.179 C 
ATOM     30  C   UNL     1       4.449   2.374 -12.870  0.00  0.00    +0.177 C 
ATOM     31  C   UNL     1       5.357   1.390 -12.128  0.00  0.00    +0.180 C 
ATOM     32  C   UNL     1       6.747   2.028 -11.954  0.00  0.00    +0.214 C 
BRANCH  32  33
ATOM     33  O   UNL     1       7.660   1.088 -11.381  0.00  0.00    -0.383 OA
ATOM     34  H   UNL     1       8.489   1.557 -11.178  0.00  0.00    +0.210 HD
ENDBRANCH  32  33
BRANCH  31  35
ATOM     35  O   UNL     1       4.739   1.002 -10.896  0.00  0.00    -0.386 OA
ATOM     36  H   UNL     1       4.853   1.726 -10.253  0.00  0.00    +0.210 HD
ENDBRANCH  31  35
BRANCH  30  37
ATOM     37  O   UNL     1       4.899   2.484 -14.228  0.00  0.00    -0.386 OA
ATOM     38  H   UNL     1       4.795   1.605 -14.637  0.00  0.00    +0.210 HD
ENDBRANCH  30  37
BRANCH  29  39
ATOM     39  C   UNL     1       3.760   4.807 -13.054  0.00  0.00    +0.197 C 
BRANCH  39  40
ATOM     40  O   UNL     1       2.389   4.454 -13.271  0.00  0.00    -0.346 OA
BRANCH  40  41
ATOM     41  C   UNL     1       1.787   5.342 -14.211  0.00  0.00    +0.282 C 
ATOM     42  O   UNL     1       1.794   6.696 -13.753  0.00  0.00    -0.341 OA
ATOM     43  C   UNL     1       0.505   7.282 -14.031  0.00  0.00    +0.178 C 
ATOM     44  C   UNL     1      -0.272   6.275 -14.893  0.00  0.00    +0.179 C 
ATOM     45  C   UNL     1       0.320   4.953 -14.441  0.00  0.00    +0.201 C 
BRANCH  45  46
ATOM     46  O   UNL     1      -0.306   4.526 -13.224  0.00  0.00    -0.384 OA
ATOM     47  H   UNL     1       0.373   3.996 -12.759  0.00  0.00    +0.210 HD
ENDBRANCH  45  46
BRANCH  44  48
ATOM     48  O   UNL     1      -0.073   6.462 -16.297  0.00  0.00    -0.386 OA
ATOM     49  H   UNL     1       0.873   6.539 -16.492  0.00  0.00    +0.210 HD
ENDBRANCH  44  48
BRANCH  43  50
ATOM     50  C   UNL     1       0.715   8.651 -14.688  0.00  0.00    +0.190 C 
BRANCH  50  51
ATOM     51  O   UNL     1       1.396   9.563 -13.823  0.00  0.00    -0.392 OA
ATOM     52  H   UNL     1       1.072   9.425 -12.917  0.00  0.00    +0.210 HD
ENDBRANCH  50  51
ENDBRANCH  43  50
ENDBRANCH  40  41
ENDBRANCH  39  40
ENDBRANCH  29  39
ENDBRANCH   1  27
TORSDOF 17
