REMARK  Name = 
REMARK  21 active torsions:
REMARK  status: ('A' for Active; 'I' for Inactive)
REMARK    1  A    between atoms: C_1  and  C_2
REMARK    2  A    between atoms: C_3  and  O_52
REMARK    3  A    between atoms: C_5  and  O_51
REMARK    4  A    between atoms: C_7  and  O_50
REMARK    5  A    between atoms: C_8  and  O_11
REMARK    6  A    between atoms: O_11  and  C_12
REMARK    7  A    between atoms: C_12  and  C_13
REMARK    8  A    between atoms: C_14  and  O_49
REMARK    9  A    between atoms: C_16  and  O_48
REMARK   10  A    between atoms: C_17  and  O_47
REMARK   11  A    between atoms: C_18  and  O_21
REMARK   12  A    between atoms: O_21  and  C_22
REMARK   13  A    between atoms: C_23  and  C_37
REMARK   14  A    between atoms: C_29  and  O_35
REMARK   15  A    between atoms: C_31  and  O_33
REMARK   16  A    between atoms: O_33  and  C_34
REMARK   17  A    between atoms: O_35  and  C_36
REMARK   18  A    between atoms: C_39  and  O_45
REMARK   19  A    between atoms: C_40  and  O_43
REMARK   20  A    between atoms: O_43  and  C_44
REMARK   21  A    between atoms: O_45  and  C_46
REMARK                            x       y       z     vdW  Elec       q    Type
REMARK                         _______ _______ _______ _____ _____    ______ ____
ROOT
ATOM      1  C   UNL     1       1.318   6.039  -5.044  0.00  0.00    +0.179 C 
ATOM      2  O   UNL     1       2.157   6.673  -4.056  0.00  0.00    -0.331 OA
ATOM      3  C   UNL     1       2.311   6.016  -2.770  0.00  0.00    +0.340 C 
ATOM      4  C   UNL     1       0.939   5.596  -2.183  0.00  0.00    +0.214 C 
ATOM      5  C   UNL     1       0.075   4.861  -3.219  0.00  0.00    +0.180 C 
ATOM      6  C   UNL     1      -0.084   5.763  -4.459  0.00  0.00    +0.177 C 
ENDROOT
BRANCH   6   7
ATOM      7  O   UNL     1      -0.942   5.169  -5.433  0.00  0.00    -0.386 OA
ATOM      8  H   UNL     1      -1.368   5.890  -5.939  0.00  0.00    +0.210 HD
ENDBRANCH   6   7
BRANCH   5   9
ATOM      9  O   UNL     1      -1.208   4.553  -2.651  0.00  0.00    -0.386 OA
ATOM     10  H   UNL     1      -1.530   5.379  -2.245  0.00  0.00    +0.210 HD
ENDBRANCH   5   9
BRANCH   4  11
ATOM     11  O   UNL     1       0.179   6.759  -1.758  0.00  0.00    -0.383 OA
ATOM     12  H   UNL     1       0.695   7.546  -2.016  0.00  0.00    +0.210 HD
ENDBRANCH   4  11
BRANCH   3  13
ATOM     13  O   UNL     1       2.945   6.973  -1.879  0.00  0.00    -0.453 OA
BRANCH  13  14
ATOM     14  C   UNL     1       3.626   6.620  -0.711  0.00  0.00    +0.214 A 
ATOM     15  C   UNL     1       3.885   5.168  -0.343  0.00  0.00    +0.238 A 
ATOM     16  O   UNL     1       3.625   4.269  -1.130  0.00  0.00    -0.283 OA
ATOM     17  C   UNL     1       4.454   4.897   1.003  0.00  0.00    +0.109 A 
ATOM     18  C   UNL     1       4.510   3.625   1.597  0.00  0.00    +0.138 A 
ATOM     19  C   UNL     1       5.034   3.497   2.899  0.00  0.00    +0.092 A 
ATOM     20  C   UNL     1       5.527   4.610   3.599  0.00  0.00    +0.127 A 
ATOM     21  C   UNL     1       5.493   5.850   2.995  0.00  0.00    +0.092 A 
ATOM     22  C   UNL     1       4.933   5.989   1.723  0.00  0.00    +0.147 A 
ATOM     23  O   UNL     1       4.879   7.260   1.264  0.00  0.00    -0.451 OA
ATOM     24  C   UNL     1       4.106   7.552   0.157  0.00  0.00    +0.181 A 
BRANCH  24  25
ATOM     25  C   UNL     1       3.966   9.036   0.074  0.00  0.00    +0.025 A 
ATOM     26  C   UNL     1       4.253   9.693  -1.113  0.00  0.00    +0.015 A 
ATOM     27  C   UNL     1       4.205  11.086  -1.173  0.00  0.00    +0.050 A 
ATOM     28  C   UNL     1       3.824  11.870  -0.075  0.00  0.00    +0.162 A 
ATOM     29  C   UNL     1       3.628  11.254   1.168  0.00  0.00    +0.162 A 
ATOM     30  C   UNL     1       3.715   9.840   1.230  0.00  0.00    +0.061 A 
BRANCH  29  31
ATOM     31  O   UNL     1       3.433  12.075   2.247  0.00  0.00    -0.491 OA
ATOM     32  C   UNL     1       3.123  11.515   3.519  0.00  0.00    +0.277 C 
ENDBRANCH  29  31
BRANCH  28  33
ATOM     33  O   UNL     1       3.728  13.190  -0.424  0.00  0.00    -0.491 OA
ATOM     34  C   UNL     1       3.104  14.123   0.443  0.00  0.00    +0.277 C 
ENDBRANCH  28  33
ENDBRANCH  24  25
BRANCH  20  35
ATOM     35  O   UNL     1       5.995   4.345   4.862  0.00  0.00    -0.495 OA
ATOM     36  C   UNL     1       6.453   5.460   5.624  0.00  0.00    +0.277 C 
ENDBRANCH  20  35
BRANCH  18  37
ATOM     37  O   UNL     1       4.014   2.570   0.879  0.00  0.00    -0.494 OA
ATOM     38  C   UNL     1       4.046   1.279   1.473  0.00  0.00    +0.277 C 
ENDBRANCH  18  37
ENDBRANCH  13  14
ENDBRANCH   3  13
BRANCH   1  39
ATOM     39  C   UNL     1       1.896   4.759  -5.726  0.00  0.00    +0.197 C 
BRANCH  39  40
ATOM     40  O   UNL     1       3.015   4.916  -6.595  0.00  0.00    -0.346 OA
BRANCH  40  44
ATOM     41  C   UNL     1       6.364   7.498  -6.489  0.00  0.00    +0.041 C 
ATOM     42  C   UNL     1       6.453   6.010  -6.811  0.00  0.00    +0.149 C 
ATOM     43  O   UNL     1       5.148   5.512  -7.140  0.00  0.00    -0.343 OA
ATOM     44  C   UNL     1       4.253   5.326  -6.031  0.00  0.00    +0.282 C 
ATOM     45  C   UNL     1       4.890   4.278  -5.083  0.00  0.00    +0.201 C 
ATOM     46  C   UNL     1       6.179   4.917  -4.534  0.00  0.00    +0.179 C 
ATOM     47  C   UNL     1       7.149   5.220  -5.686  0.00  0.00    +0.174 C 
BRANCH  47  48
ATOM     48  O   UNL     1       7.687   3.982  -6.182  0.00  0.00    -0.387 OA
ATOM     49  H   UNL     1       6.931   3.356  -6.261  0.00  0.00    +0.210 HD
ENDBRANCH  47  48
BRANCH  46  50
ATOM     50  O   UNL     1       6.815   4.089  -3.556  0.00  0.00    -0.386 OA
ATOM     51  H   UNL     1       7.604   3.700  -3.983  0.00  0.00    +0.210 HD
ENDBRANCH  46  50
BRANCH  45  52
ATOM     52  O   UNL     1       5.207   3.066  -5.810  0.00  0.00    -0.384 OA
ATOM     53  H   UNL     1       4.525   2.984  -6.507  0.00  0.00    +0.210 HD
ENDBRANCH  45  52
ENDBRANCH  40  44
ENDBRANCH  39  40
ENDBRANCH   1  39
TORSDOF 16
