REMARK  Name = 
REMARK  28 active torsions:
REMARK  status: ('A' for Active; 'I' for Inactive)
REMARK    1  A    between atoms: C_1  and  O_2
REMARK    2  A    between atoms: O_2  and  C_3
REMARK    3  A    between atoms: C_4  and  O_75
REMARK    4  A    between atoms: C_7  and  C_9
REMARK    5  A    between atoms: C_10  and  C_11
REMARK    6  A    between atoms: C_11  and  O_13
REMARK    7  A    between atoms: O_13  and  C_14
REMARK    8  A    between atoms: C_14  and  C_15
REMARK    9  A    between atoms: C_16  and  O_74
REMARK   10  A    between atoms: C_18  and  O_73
REMARK   11  A    between atoms: C_20  and  O_72
REMARK   12  A    between atoms: C_21  and  O_24
REMARK   13  A    between atoms: O_24  and  C_25
REMARK   14  A    between atoms: C_27  and  O_36
REMARK   15  A    between atoms: C_31  and  O_35
REMARK   16  A    between atoms: C_33  and  O_34
REMARK   17  A    between atoms: O_36  and  C_37
REMARK   18  A    between atoms: C_38  and  C_64
REMARK   19  A    between atoms: C_42  and  O_49
REMARK   20  A    between atoms: C_44  and  O_48
REMARK   21  A    between atoms: O_49  and  C_50
REMARK   22  A    between atoms: C_52  and  O_63
REMARK   23  A    between atoms: C_53  and  O_62
REMARK   24  A    between atoms: C_55  and  O_61
REMARK   25  A    between atoms: C_57  and  C_59
REMARK   26  A    between atoms: C_59  and  O_60
REMARK   27  A    between atoms: C_66  and  O_71
REMARK   28  A    between atoms: C_67  and  O_70
REMARK                            x       y       z     vdW  Elec       q    Type
REMARK                         _______ _______ _______ _____ _____    ______ ____
ROOT
ATOM      1  O   UNL     1       9.647  -8.647  -6.403  0.00  0.00    -0.453 OA
ENDROOT
BRANCH   1   2
ATOM      2  C   UNL     1      10.755  -8.327  -5.577  0.00  0.00    +0.214 A 
ATOM      3  C   UNL     1      11.858  -7.344  -5.740  0.00  0.00    +0.238 A 
ATOM      4  O   UNL     1      12.709  -7.532  -6.617  0.00  0.00    -0.283 OA
ATOM      5  C   UNL     1      12.144  -6.446  -4.563  0.00  0.00    +0.109 A 
ATOM      6  C   UNL     1      12.418  -7.240  -3.477  0.00  0.00    +0.147 A 
ATOM      7  C   UNL     1      13.062  -6.695  -2.362  0.00  0.00    +0.093 A 
ATOM      8  C   UNL     1      13.504  -5.362  -2.355  0.00  0.00    +0.131 A 
ATOM      9  C   UNL     1      13.095  -4.513  -3.362  0.00  0.00    +0.092 A 
ATOM     10  O   UNL     1      12.090  -8.591  -3.534  0.00  0.00    -0.451 OA
ATOM     11  C   UNL     1      12.334  -5.051  -4.411  0.00  0.00    +0.135 A 
ATOM     12  C   UNL     1      11.103  -9.021  -4.463  0.00  0.00    +0.181 A 
BRANCH  12  13
ATOM     13  C   UNL     1      10.603 -10.358  -4.153  0.00  0.00    +0.025 A 
ATOM     14  C   UNL     1      10.162 -11.280  -5.137  0.00  0.00    +0.015 A 
ATOM     15  C   UNL     1       9.770 -12.570  -4.785  0.00  0.00    +0.050 A 
ATOM     16  C   UNL     1       9.873 -12.967  -3.461  0.00  0.00    +0.158 A 
ATOM     17  C   UNL     1      10.345 -12.085  -2.493  0.00  0.00    +0.159 A 
ATOM     18  C   UNL     1      10.682 -10.788  -2.828  0.00  0.00    +0.060 A 
BRANCH  17  19
ATOM     19  O   UNL     1      10.494 -12.541  -1.216  0.00  0.00    -0.503 OA
ATOM     20  H   UNL     1      10.929 -11.834  -0.705  0.00  0.00    +0.292 HD
ENDBRANCH  17  19
BRANCH  16  21
ATOM     21  O   UNL     1       9.550 -14.239  -3.117  0.00  0.00    -0.503 OA
ATOM     22  H   UNL     1       9.754 -14.283  -2.161  0.00  0.00    +0.292 HD
ENDBRANCH  16  21
ENDBRANCH  12  13
BRANCH  11  23
ATOM     23  O   UNL     1      11.653  -4.139  -5.170  0.00  0.00    -0.506 OA
ATOM     24  H   UNL     1      11.633  -3.275  -4.722  0.00  0.00    +0.292 HD
ENDBRANCH  11  23
BRANCH   8  25
ATOM     25  O   UNL     1      14.305  -5.020  -1.302  0.00  0.00    -0.461 OA
BRANCH  25  26
ATOM     26  C   UNL     1      15.059  -3.791  -1.291  0.00  0.00    +0.339 C 
ATOM     27  O   UNL     1      15.849  -3.520  -2.463  0.00  0.00    -0.331 OA
ATOM     28  C   UNL     1      16.905  -4.475  -2.669  0.00  0.00    +0.179 C 
ATOM     29  C   UNL     1      17.894  -4.496  -1.481  0.00  0.00    +0.177 C 
ATOM     30  C   UNL     1      17.135  -4.800  -0.178  0.00  0.00    +0.180 C 
ATOM     31  C   UNL     1      15.948  -3.822  -0.018  0.00  0.00    +0.214 C 
BRANCH  29  32
ATOM     32  O   UNL     1      18.559  -3.238  -1.329  0.00  0.00    -0.386 OA
ATOM     33  H   UNL     1      19.352  -3.391  -0.785  0.00  0.00    +0.210 HD
ENDBRANCH  29  32
BRANCH  31  34
ATOM     34  O   UNL     1      15.208  -4.116   1.178  0.00  0.00    -0.383 OA
ATOM     35  H   UNL     1      14.260  -4.115   0.958  0.00  0.00    +0.210 HD
ENDBRANCH  31  34
BRANCH  30  36
ATOM     36  O   UNL     1      16.732  -6.174  -0.107  0.00  0.00    -0.386 OA
ATOM     37  H   UNL     1      16.753  -6.587  -0.984  0.00  0.00    +0.210 HD
ENDBRANCH  30  36
BRANCH  28  38
ATOM     38  C   UNL     1      17.578  -4.225  -4.035  0.00  0.00    +0.190 C 
BRANCH  38  39
ATOM     39  O   UNL     1      18.413  -3.077  -4.095  0.00  0.00    -0.392 OA
ATOM     40  H   UNL     1      17.956  -2.364  -3.614  0.00  0.00    +0.210 HD
ENDBRANCH  38  39
ENDBRANCH  28  38
ENDBRANCH  25  26
ENDBRANCH   8  25
ENDBRANCH   1   2
BRANCH   1  46
ATOM     41  C   UNL     1       8.608  -7.705  -8.560  0.00  0.00    +0.221 C 
ATOM     42  C   UNL     1       8.817  -7.726 -10.103  0.00  0.00    +0.180 C 
ATOM     43  C   UNL     1       8.606  -9.145 -10.643  0.00  0.00    +0.171 C 
ATOM     44  C   UNL     1       9.390 -10.161  -9.787  0.00  0.00    +0.198 C 
ATOM     45  O   UNL     1       9.171 -10.035  -8.357  0.00  0.00    -0.337 OA
ATOM     46  C   UNL     1       9.629  -8.724  -7.865  0.00  0.00    +0.340 C 
BRANCH  43  47
ATOM     47  O   UNL     1       8.989  -9.188 -12.028  0.00  0.00    -0.387 OA
ATOM     48  H   UNL     1       9.054 -10.109 -12.322  0.00  0.00    +0.210 HD
ENDBRANCH  43  47
BRANCH  42  49
ATOM     49  O   UNL     1      10.145  -7.338 -10.500  0.00  0.00    -0.386 OA
ATOM     50  H   UNL     1      10.613  -7.070  -9.688  0.00  0.00    +0.210 HD
ENDBRANCH  42  49
BRANCH  41  51
ATOM     51  O   UNL     1       8.362  -6.385  -8.024  0.00  0.00    -0.337 OA
BRANCH  51  54
ATOM     52  C   UNL     1      10.655  -4.171  -9.933  0.00  0.00    +0.190 C 
ATOM     53  O   UNL     1       9.453  -4.897  -9.563  0.00  0.00    -0.339 OA
ATOM     54  C   UNL     1       9.277  -5.286  -8.209  0.00  0.00    +0.282 C 
ATOM     55  C   UNL     1      10.592  -5.618  -7.553  0.00  0.00    +0.201 C 
ATOM     56  C   UNL     1      11.723  -4.650  -7.804  0.00  0.00    +0.179 C 
ATOM     57  C   UNL     1      11.953  -4.644  -9.301  0.00  0.00    +0.178 C 
BRANCH  57  58
ATOM     58  O   UNL     1      13.076  -3.806  -9.579  0.00  0.00    -0.386 OA
ATOM     59  H   UNL     1      13.866  -4.375  -9.595  0.00  0.00    +0.210 HD
ENDBRANCH  57  58
BRANCH  56  60
ATOM     60  O   UNL     1      12.924  -5.101  -7.173  0.00  0.00    -0.386 OA
ATOM     61  H   UNL     1      13.656  -5.128  -7.802  0.00  0.00    +0.210 HD
ENDBRANCH  56  60
BRANCH  55  62
ATOM     62  O   UNL     1      11.080  -6.790  -8.216  0.00  0.00    -0.384 OA
ATOM     63  H   UNL     1      11.987  -6.958  -7.867  0.00  0.00    +0.210 HD
ENDBRANCH  55  62
BRANCH  52  64
ATOM     64  C   UNL     1      10.575  -2.669  -9.675  0.00  0.00    +0.266 C 
BRANCH  64  65
ATOM     65  O   UNL     1       9.404  -2.179 -10.281  0.00  0.00    -0.459 OA
BRANCH  65  66
ATOM     66  C   UNL     1       8.392  -2.099  -9.385  0.00  0.00    +0.332 C 
ATOM     67  O   UNL     1       8.439  -2.134  -8.180  0.00  0.00    -0.246 OA
BRANCH  66  69
ATOM     68  C   UNL     1       6.137  -1.432  -9.566  0.00  0.00    +0.015 C 
ATOM     69  C   UNL     1       7.200  -1.949 -10.203  0.00  0.00    +0.092 C 
BRANCH  68  72
ATOM     70  C   UNL     1       3.338  -1.269 -12.050  0.00  0.00    +0.162 A 
ATOM     71  C   UNL     1       4.491  -1.702 -11.409  0.00  0.00    +0.057 A 
ATOM     72  C   UNL     1       4.951  -1.039 -10.267  0.00  0.00    -0.021 A 
ATOM     73  C   UNL     1       4.251   0.066  -9.756  0.00  0.00    +0.012 A 
ATOM     74  C   UNL     1       3.112   0.515 -10.402  0.00  0.00    +0.050 A 
ATOM     75  C   UNL     1       2.675  -0.149 -11.542  0.00  0.00    +0.158 A 
BRANCH  75  76
ATOM     76  O   UNL     1       1.546   0.320 -12.154  0.00  0.00    -0.503 OA
ATOM     77  H   UNL     1       1.417  -0.266 -12.926  0.00  0.00    +0.292 HD
ENDBRANCH  75  76
BRANCH  70  79
ATOM     78  C   UNL     1       3.169  -3.210 -13.383  0.00  0.00    +0.277 C 
ATOM     79  O   UNL     1       2.797  -1.848 -13.169  0.00  0.00    -0.491 OA
ENDBRANCH  70  79
ENDBRANCH  68  72
ENDBRANCH  66  69
ENDBRANCH  65  66
ENDBRANCH  64  65
ENDBRANCH  52  64
ENDBRANCH  51  54
ENDBRANCH  41  51
ENDBRANCH   1  46
TORSDOF 27
