REMARK  Name = 
REMARK  18 active torsions:
REMARK  status: ('A' for Active; 'I' for Inactive)
REMARK    1  A    between atoms: C_3  and  O_51
REMARK    2  A    between atoms: C_4  and  O_50
REMARK    3  A    between atoms: C_6  and  C_7
REMARK    4  A    between atoms: C_8  and  O_35
REMARK    5  A    between atoms: C_12  and  O_34
REMARK    6  A    between atoms: C_14  and  O_18
REMARK    7  A    between atoms: O_18  and  C_19
REMARK    8  A    between atoms: C_21  and  O_33
REMARK    9  A    between atoms: C_22  and  O_32
REMARK   10  A    between atoms: C_24  and  O_31
REMARK   11  A    between atoms: C_26  and  C_28
REMARK   12  A    between atoms: C_28  and  O_30
REMARK   13  A    between atoms: O_35  and  C_36
REMARK   14  A    between atoms: C_38  and  O_49
REMARK   15  A    between atoms: C_39  and  O_48
REMARK   16  A    between atoms: C_40  and  O_47
REMARK   17  A    between atoms: C_42  and  C_44
REMARK   18  A    between atoms: C_44  and  O_46
REMARK                            x       y       z     vdW  Elec       q    Type
REMARK                         _______ _______ _______ _____ _____    ______ ____
ROOT
ATOM      1  C   UNL     1      -1.247  -2.696   0.280  0.00  0.00    +0.181 A 
ATOM      2  O   UNL     1      -0.617  -3.909   0.498  0.00  0.00    -0.451 OA
ATOM      3  C   UNL     1      -1.248  -5.072   0.170  0.00  0.00    +0.147 A 
ATOM      4  C   UNL     1      -2.562  -5.131  -0.260  0.00  0.00    +0.109 A 
ATOM      5  C   UNL     1      -3.105  -6.393  -0.531  0.00  0.00    +0.135 A 
ATOM      6  C   UNL     1      -2.312  -7.559  -0.482  0.00  0.00    +0.092 A 
ATOM      7  C   UNL     1      -0.957  -7.475  -0.157  0.00  0.00    +0.131 A 
ATOM      8  C   UNL     1      -3.286  -3.849  -0.430  0.00  0.00    +0.238 A 
ATOM      9  O   UNL     1      -4.447  -3.826  -0.812  0.00  0.00    -0.283 OA
ATOM     10  C   UNL     1      -0.461  -6.228   0.247  0.00  0.00    +0.093 A 
ATOM     11  C   UNL     1      -2.507  -2.570  -0.199  0.00  0.00    +0.214 A 
ENDROOT
BRANCH   1  13
ATOM     12  C   UNL     1      -0.775  -0.230   0.687  0.00  0.00    +0.015 A 
ATOM     13  C   UNL     1      -0.325  -1.544   0.496  0.00  0.00    +0.025 A 
ATOM     14  C   UNL     1       1.061  -1.732   0.391  0.00  0.00    +0.060 A 
ATOM     15  C   UNL     1       1.902  -0.636   0.254  0.00  0.00    +0.159 A 
ATOM     16  C   UNL     1       1.390   0.653   0.201  0.00  0.00    +0.158 A 
ATOM     17  C   UNL     1       0.054   0.872   0.468  0.00  0.00    +0.050 A 
BRANCH  16  18
ATOM     18  O   UNL     1       2.232   1.673  -0.131  0.00  0.00    -0.503 OA
ATOM     19  H   UNL     1       1.687   2.404  -0.477  0.00  0.00    +0.292 HD
ENDBRANCH  16  18
BRANCH  15  20
ATOM     20  O   UNL     1       3.243  -0.840   0.111  0.00  0.00    -0.503 OA
ATOM     21  H   UNL     1       3.619   0.060   0.031  0.00  0.00    +0.292 HD
ENDBRANCH  15  20
ENDBRANCH   1  13
BRANCH   5  22
ATOM     22  O   UNL     1      -4.417  -6.579  -0.881  0.00  0.00    -0.506 OA
ATOM     23  H   UNL     1      -4.874  -5.712  -0.869  0.00  0.00    +0.292 HD
ENDBRANCH   5  22
BRANCH  11  24
ATOM     24  O   UNL     1      -3.145  -1.337  -0.221  0.00  0.00    -0.453 OA
BRANCH  24  25
ATOM     25  C   UNL     1      -3.570  -0.671  -1.424  0.00  0.00    +0.340 C 
ATOM     26  O   UNL     1      -3.020   0.672  -1.546  0.00  0.00    -0.322 OA
ATOM     27  C   UNL     1      -3.472   1.684  -0.602  0.00  0.00    +0.261 C 
ATOM     28  C   UNL     1      -4.908   1.581  -0.057  0.00  0.00    +0.185 C 
ATOM     29  C   UNL     1      -5.401   0.137  -0.002  0.00  0.00    +0.180 C 
ATOM     30  C   UNL     1      -5.097  -0.507  -1.376  0.00  0.00    +0.214 C 
BRANCH  30  31
ATOM     31  O   UNL     1      -5.844  -1.696  -1.590  0.00  0.00    -0.383 OA
ATOM     32  H   UNL     1      -5.265  -2.479  -1.481  0.00  0.00    +0.210 HD
ENDBRANCH  30  31
BRANCH  29  33
ATOM     33  O   UNL     1      -6.792   0.150   0.334  0.00  0.00    -0.386 OA
ATOM     34  H   UNL     1      -7.274  -0.123  -0.468  0.00  0.00    +0.210 HD
ENDBRANCH  29  33
BRANCH  28  35
ATOM     35  O   UNL     1      -5.846   2.295  -0.880  0.00  0.00    -0.386 OA
ATOM     36  H   UNL     1      -6.678   2.310  -0.361  0.00  0.00    +0.210 HD
ENDBRANCH  28  35
BRANCH  27  37
ATOM     37  C   UNL     1      -3.271   3.074  -1.229  0.00  0.00    +0.337 C 
ATOM     38  O   UNL     1      -3.323   4.131  -0.613  0.00  0.00    -0.248 OA
BRANCH  37  39
ATOM     39  O   UNL     1      -2.981   3.016  -2.554  0.00  0.00    -0.479 OA
ATOM     40  H   UNL     1      -2.954   2.077  -2.835  0.00  0.00    +0.295 HD
ENDBRANCH  37  39
ENDBRANCH  27  37
ENDBRANCH  24  25
ENDBRANCH  11  24
BRANCH   7  41
ATOM     41  O   UNL     1      -0.182  -8.614  -0.316  0.00  0.00    -0.461 OA
BRANCH  41  42
ATOM     42  C   UNL     1       1.222  -8.333  -0.525  0.00  0.00    +0.340 C 
ATOM     43  O   UNL     1       1.381  -7.455  -1.653  0.00  0.00    -0.322 OA
ATOM     44  C   UNL     1       1.229  -8.160  -2.900  0.00  0.00    +0.261 C 
ATOM     45  C   UNL     1       2.425  -9.087  -3.083  0.00  0.00    +0.185 C 
ATOM     46  C   UNL     1       2.323 -10.177  -2.013  0.00  0.00    +0.180 C 
ATOM     47  C   UNL     1       2.152  -9.581  -0.608  0.00  0.00    +0.214 C 
BRANCH  47  48
ATOM     48  O   UNL     1       1.802 -10.588   0.345  0.00  0.00    -0.383 OA
ATOM     49  H   UNL     1       1.596 -11.405  -0.150  0.00  0.00    +0.210 HD
ENDBRANCH  47  48
BRANCH  46  50
ATOM     50  O   UNL     1       1.278 -11.115  -2.301  0.00  0.00    -0.386 OA
ATOM     51  H   UNL     1       0.430 -10.765  -1.990  0.00  0.00    +0.210 HD
ENDBRANCH  46  50
BRANCH  45  52
ATOM     52  O   UNL     1       3.628  -8.334  -2.862  0.00  0.00    -0.386 OA
ATOM     53  H   UNL     1       4.380  -8.845  -3.211  0.00  0.00    +0.210 HD
ENDBRANCH  45  52
BRANCH  44  54
ATOM     54  C   UNL     1       1.121  -7.165  -4.044  0.00  0.00    +0.337 C 
ATOM     55  O   UNL     1       1.092  -7.464  -5.228  0.00  0.00    -0.248 OA
BRANCH  54  56
ATOM     56  O   UNL     1       0.980  -5.891  -3.595  0.00  0.00    -0.479 OA
ATOM     57  H   UNL     1       1.079  -5.908  -2.616  0.00  0.00    +0.295 HD
ENDBRANCH  54  56
ENDBRANCH  44  54
ENDBRANCH  41  42
ENDBRANCH   7  41
TORSDOF 18
