REMARK  Name = 
REMARK  19 active torsions:
REMARK  status: ('A' for Active; 'I' for Inactive)
REMARK    1  A    between atoms: C_1  and  C_2
REMARK    2  A    between atoms: C_3  and  O_51
REMARK    3  A    between atoms: C_5  and  O_50
REMARK    4  A    between atoms: C_7  and  O_49
REMARK    5  A    between atoms: C_8  and  O_11
REMARK    6  A    between atoms: O_11  and  C_12
REMARK    7  A    between atoms: C_14  and  O_48
REMARK    8  A    between atoms: C_19  and  C_40
REMARK    9  A    between atoms: C_20  and  O_23
REMARK   10  A    between atoms: O_23  and  C_24
REMARK   11  A    between atoms: C_26  and  O_39
REMARK   12  A    between atoms: C_27  and  O_38
REMARK   13  A    between atoms: C_28  and  O_37
REMARK   14  A    between atoms: C_30  and  C_32
REMARK   15  A    between atoms: C_32  and  O_33
REMARK   16  A    between atoms: O_33  and  C_34
REMARK   17  A    between atoms: C_34  and  C_36
REMARK   18  A    between atoms: C_42  and  O_47
REMARK   19  A    between atoms: C_43  and  O_46
REMARK                            x       y       z     vdW  Elec       q    Type
REMARK                         _______ _______ _______ _____ _____    ______ ____
ROOT
ATOM      1  C   UNL     1       2.584   2.922  -3.291  0.00  0.00    +0.131 A 
ATOM      2  C   UNL     1       1.345   3.447  -2.908  0.00  0.00    +0.093 A 
ATOM      3  C   UNL     1       1.161   4.839  -2.827  0.00  0.00    +0.147 A 
ATOM      4  O   UNL     1      -0.073   5.302  -2.438  0.00  0.00    -0.451 OA
ATOM      5  C   UNL     1      -0.328   6.680  -2.439  0.00  0.00    +0.181 A 
ATOM      6  C   UNL     1       0.624   7.624  -2.655  0.00  0.00    +0.214 A 
ATOM      7  C   UNL     1       2.024   7.127  -2.892  0.00  0.00    +0.238 A 
ATOM      8  O   UNL     1       3.001   7.864  -2.879  0.00  0.00    -0.283 OA
ATOM      9  C   UNL     1       2.215   5.691  -3.122  0.00  0.00    +0.109 A 
ATOM     10  C   UNL     1       3.434   5.164  -3.565  0.00  0.00    +0.135 A 
ATOM     11  C   UNL     1       3.618   3.789  -3.643  0.00  0.00    +0.092 A 
ENDROOT
BRANCH   5  12
ATOM     12  C   UNL     1      -1.768   6.995  -2.148  0.00  0.00    +0.025 A 
ATOM     13  C   UNL     1      -2.781   6.081  -2.514  0.00  0.00    +0.015 A 
ATOM     14  C   UNL     1      -4.135   6.330  -2.222  0.00  0.00    +0.050 A 
ATOM     15  C   UNL     1      -4.482   7.506  -1.573  0.00  0.00    +0.158 A 
ATOM     16  C   UNL     1      -3.516   8.417  -1.204  0.00  0.00    +0.159 A 
ATOM     17  C   UNL     1      -2.169   8.161  -1.467  0.00  0.00    +0.060 A 
BRANCH  15  18
ATOM     18  O   UNL     1      -5.797   7.755  -1.291  0.00  0.00    -0.503 OA
ATOM     19  H   UNL     1      -5.787   8.605  -0.807  0.00  0.00    +0.292 HD
ENDBRANCH  15  18
BRANCH  16  20
ATOM     20  O   UNL     1      -3.924   9.561  -0.571  0.00  0.00    -0.503 OA
ATOM     21  H   UNL     1      -3.140  10.086  -0.336  0.00  0.00    +0.292 HD
ENDBRANCH  16  20
ENDBRANCH   5  12
BRANCH  10  22
ATOM     22  O   UNL     1       4.461   5.977  -3.954  0.00  0.00    -0.506 OA
ATOM     23  H   UNL     1       5.284   5.470  -4.039  0.00  0.00    +0.292 HD
ENDBRANCH  10  22
BRANCH   6  24
ATOM     24  O   UNL     1       0.312   8.991  -2.658  0.00  0.00    -0.453 OA
BRANCH  24  25
ATOM     25  C   UNL     1       1.394   9.931  -2.531  0.00  0.00    +0.340 C 
ATOM     26  O   UNL     1       2.045   9.847  -1.258  0.00  0.00    -0.330 OA
ATOM     27  C   UNL     1       1.246  10.268  -0.148  0.00  0.00    +0.191 C 
ATOM     28  C   UNL     1       0.903  11.749  -0.300  0.00  0.00    +0.178 C 
ATOM     29  C   UNL     1       0.131  11.951  -1.610  0.00  0.00    +0.180 C 
ATOM     30  C   UNL     1       0.913  11.380  -2.798  0.00  0.00    +0.214 C 
BRANCH  28  31
ATOM     31  O   UNL     1       0.125  12.190   0.813  0.00  0.00    -0.386 OA
ATOM     32  H   UNL     1      -0.644  12.682   0.469  0.00  0.00    +0.210 HD
ENDBRANCH  28  31
BRANCH  29  33
ATOM     33  O   UNL     1      -0.141  13.353  -1.764  0.00  0.00    -0.386 OA
ATOM     34  H   UNL     1       0.654  13.778  -2.136  0.00  0.00    +0.210 HD
ENDBRANCH  29  33
BRANCH  30  35
ATOM     35  O   UNL     1       0.148  11.486  -4.004  0.00  0.00    -0.383 OA
ATOM     36  H   UNL     1      -0.639  10.919  -3.909  0.00  0.00    +0.210 HD
ENDBRANCH  30  35
BRANCH  27  37
ATOM     37  C   UNL     1       2.023  10.013   1.153  0.00  0.00    +0.266 C 
BRANCH  37  38
ATOM     38  O   UNL     1       2.212   8.601   1.384  0.00  0.00    -0.462 OA
BRANCH  38  39
ATOM     39  C   UNL     1       1.138   7.937   1.884  0.00  0.00    +0.304 C 
ATOM     40  C   UNL     1       1.470   6.496   2.125  0.00  0.00    +0.136 C 
ATOM     41  O   UNL     1       0.040   8.430   2.107  0.00  0.00    -0.251 OA
ENDBRANCH  38  39
ENDBRANCH  37  38
ENDBRANCH  27  37
ENDBRANCH  24  25
ENDBRANCH   6  24
BRANCH   1  42
ATOM     42  O   UNL     1       2.952   1.610  -3.362  0.00  0.00    -0.461 OA
BRANCH  42  46
ATOM     43  C   UNL     1      -0.717  -0.103  -1.900  0.00  0.00    +0.041 C 
ATOM     44  C   UNL     1       0.652  -0.331  -1.264  0.00  0.00    +0.150 C 
ATOM     45  O   UNL     1       1.569   0.690  -1.686  0.00  0.00    -0.334 OA
ATOM     46  C   UNL     1       1.992   0.596  -3.050  0.00  0.00    +0.339 C 
ATOM     47  C   UNL     1       2.710  -0.756  -3.266  0.00  0.00    +0.214 C 
ATOM     48  C   UNL     1       1.715  -1.884  -2.963  0.00  0.00    +0.180 C 
ATOM     49  C   UNL     1       1.190  -1.752  -1.522  0.00  0.00    +0.174 C 
BRANCH  49  50
ATOM     50  O   UNL     1       2.231  -2.055  -0.583  0.00  0.00    -0.387 OA
ATOM     51  H   UNL     1       3.037  -1.581  -0.889  0.00  0.00    +0.210 HD
ENDBRANCH  49  50
BRANCH  48  52
ATOM     52  O   UNL     1       2.302  -3.166  -3.206  0.00  0.00    -0.386 OA
ATOM     53  H   UNL     1       2.103  -3.738  -2.441  0.00  0.00    +0.210 HD
ENDBRANCH  48  52
BRANCH  47  54
ATOM     54  O   UNL     1       3.839  -0.849  -2.361  0.00  0.00    -0.383 OA
ATOM     55  H   UNL     1       4.192   0.059  -2.274  0.00  0.00    +0.210 HD
ENDBRANCH  47  54
ENDBRANCH  42  46
ENDBRANCH   1  42
TORSDOF 17
