REMARK  Name = 
REMARK  16 active torsions:
REMARK  status: ('A' for Active; 'I' for Inactive)
REMARK    1  A    between atoms: C_1  and  C_2
REMARK    2  A    between atoms: C_3  and  O_48
REMARK    3  A    between atoms: C_5  and  O_47
REMARK    4  A    between atoms: C_7  and  O_46
REMARK    5  A    between atoms: C_8  and  O_11
REMARK    6  A    between atoms: O_11  and  C_12
REMARK    7  A    between atoms: C_14  and  O_45
REMARK    8  A    between atoms: C_19  and  C_25
REMARK    9  A    between atoms: C_20  and  O_23
REMARK   10  A    between atoms: O_23  and  C_24
REMARK   11  A    between atoms: C_27  and  O_32
REMARK   12  A    between atoms: C_28  and  O_31
REMARK   13  A    between atoms: O_32  and  C_33
REMARK   14  A    between atoms: C_35  and  O_44
REMARK   15  A    between atoms: C_36  and  O_43
REMARK   16  A    between atoms: C_38  and  O_42
REMARK                            x       y       z     vdW  Elec       q    Type
REMARK                         _______ _______ _______ _____ _____    ______ ____
ROOT
ATOM      1  C   UNL     1       2.678   2.810  -3.191  0.00  0.00    +0.131 A 
ATOM      2  C   UNL     1       1.411   3.314  -2.891  0.00  0.00    +0.093 A 
ATOM      3  C   UNL     1       1.201   4.704  -2.843  0.00  0.00    +0.147 A 
ATOM      4  O   UNL     1      -0.084   5.128  -2.603  0.00  0.00    -0.451 OA
ATOM      5  C   UNL     1      -0.351   6.488  -2.627  0.00  0.00    +0.181 A 
ATOM      6  C   UNL     1       0.574   7.464  -2.748  0.00  0.00    +0.211 A 
ATOM      7  C   UNL     1       2.006   7.037  -2.900  0.00  0.00    +0.238 A 
ATOM      8  O   UNL     1       2.926   7.839  -2.874  0.00  0.00    -0.283 OA
ATOM      9  C   UNL     1       2.260   5.587  -3.045  0.00  0.00    +0.109 A 
ATOM     10  C   UNL     1       3.529   5.070  -3.347  0.00  0.00    +0.135 A 
ATOM     11  C   UNL     1       3.735   3.693  -3.410  0.00  0.00    +0.092 A 
ENDROOT
BRANCH   5  12
ATOM     12  C   UNL     1      -1.780   6.813  -2.442  0.00  0.00    +0.025 A 
ATOM     13  C   UNL     1      -2.253   7.157  -1.172  0.00  0.00    +0.015 A 
ATOM     14  C   UNL     1      -3.585   7.529  -0.995  0.00  0.00    +0.050 A 
ATOM     15  C   UNL     1      -4.467   7.539  -2.072  0.00  0.00    +0.159 A 
ATOM     16  C   UNL     1      -4.036   7.186  -3.357  0.00  0.00    +0.166 A 
ATOM     17  C   UNL     1      -2.684   6.822  -3.522  0.00  0.00    +0.061 A 
BRANCH  15  18
ATOM     18  O   UNL     1      -5.750   7.863  -1.747  0.00  0.00    -0.503 OA
ATOM     19  H   UNL     1      -6.323   7.418  -2.398  0.00  0.00    +0.292 HD
ENDBRANCH  15  18
BRANCH  16  20
ATOM     20  O   UNL     1      -4.787   7.080  -4.495  0.00  0.00    -0.457 OA
BRANCH  20  21
ATOM     21  C   UNL     1      -5.982   7.856  -4.663  0.00  0.00    +0.339 C 
ATOM     22  O   UNL     1      -7.055   7.351  -3.837  0.00  0.00    -0.337 OA
ATOM     23  C   UNL     1      -8.207   8.227  -3.853  0.00  0.00    +0.198 C 
ATOM     24  C   UNL     1      -8.612   8.622  -5.281  0.00  0.00    +0.171 C 
ATOM     25  C   UNL     1      -7.963   7.649  -6.268  0.00  0.00    +0.180 C 
ATOM     26  C   UNL     1      -6.427   7.775  -6.164  0.00  0.00    +0.214 C 
BRANCH  24  27
ATOM     27  O   UNL     1      -8.146   9.950  -5.540  0.00  0.00    -0.387 OA
ATOM     28  H   UNL     1      -8.439  10.202  -6.435  0.00  0.00    +0.210 HD
ENDBRANCH  24  27
BRANCH  25  29
ATOM     29  O   UNL     1      -8.381   6.298  -6.003  0.00  0.00    -0.386 OA
ATOM     30  H   UNL     1      -8.043   6.054  -5.109  0.00  0.00    +0.210 HD
ENDBRANCH  25  29
BRANCH  26  31
ATOM     31  O   UNL     1      -5.831   6.693  -6.894  0.00  0.00    -0.383 OA
ATOM     32  H   UNL     1      -6.231   5.872  -6.551  0.00  0.00    +0.210 HD
ENDBRANCH  26  31
ENDBRANCH  20  21
ENDBRANCH  16  20
ENDBRANCH   5  12
BRANCH   6  33
ATOM     33  O   UNL     1       0.175   8.798  -2.704  0.00  0.00    -0.488 OA
ATOM     34  C   UNL     1       1.167   9.806  -2.863  0.00  0.00    +0.277 C 
ENDBRANCH   6  33
BRANCH  10  35
ATOM     35  O   UNL     1       4.583   5.896  -3.613  0.00  0.00    -0.506 OA
ATOM     36  H   UNL     1       5.387   5.384  -3.794  0.00  0.00    +0.292 HD
ENDBRANCH  10  35
BRANCH   1  37
ATOM     37  O   UNL     1       3.021   1.488  -3.272  0.00  0.00    -0.461 OA
BRANCH  37  41
ATOM     38  C   UNL     1      -0.904  -0.297  -3.408  0.00  0.00    +0.041 C 
ATOM     39  C   UNL     1       0.336  -0.956  -2.810  0.00  0.00    +0.150 C 
ATOM     40  O   UNL     1       1.334   0.042  -2.534  0.00  0.00    -0.334 OA
ATOM     41  C   UNL     1       1.997   0.574  -3.685  0.00  0.00    +0.339 C 
ATOM     42  C   UNL     1       2.700  -0.569  -4.450  0.00  0.00    +0.214 C 
ATOM     43  C   UNL     1       1.626  -1.567  -4.906  0.00  0.00    +0.180 C 
ATOM     44  C   UNL     1       0.861  -2.111  -3.688  0.00  0.00    +0.174 C 
BRANCH  42  45
ATOM     45  O   UNL     1       3.643  -1.230  -3.572  0.00  0.00    -0.383 OA
ATOM     46  H   UNL     1       3.982  -0.537  -2.970  0.00  0.00    +0.210 HD
ENDBRANCH  42  45
BRANCH  43  47
ATOM     47  O   UNL     1       2.192  -2.620  -5.691  0.00  0.00    -0.386 OA
ATOM     48  H   UNL     1       2.001  -3.463  -5.236  0.00  0.00    +0.210 HD
ENDBRANCH  43  47
BRANCH  44  49
ATOM     49  O   UNL     1       1.715  -2.970  -2.916  0.00  0.00    -0.387 OA
ATOM     50  H   UNL     1       2.563  -2.489  -2.790  0.00  0.00    +0.210 HD
ENDBRANCH  44  49
ENDBRANCH  37  41
ENDBRANCH   1  37
TORSDOF 14
