REMARK  Name = 
REMARK  18 active torsions:
REMARK  status: ('A' for Active; 'I' for Inactive)
REMARK    1  A    between atoms: C_1  and  O_2
REMARK    2  A    between atoms: O_2  and  C_3
REMARK    3  A    between atoms: C_4  and  O_48
REMARK    4  A    between atoms: C_7  and  C_9
REMARK    5  A    between atoms: C_10  and  O_22
REMARK    6  A    between atoms: C_14  and  O_21
REMARK    7  A    between atoms: C_16  and  O_20
REMARK    8  A    between atoms: O_22  and  C_23
REMARK    9  A    between atoms: C_25  and  O_36
REMARK   10  A    between atoms: C_26  and  O_35
REMARK   11  A    between atoms: C_28  and  O_34
REMARK   12  A    between atoms: C_30  and  C_32
REMARK   13  A    between atoms: C_32  and  O_33
REMARK   14  A    between atoms: O_36  and  C_37
REMARK   15  A    between atoms: C_39  and  O_47
REMARK   16  A    between atoms: C_41  and  C_44
REMARK   17  A    between atoms: C_41  and  O_46
REMARK   18  A    between atoms: C_44  and  O_45
REMARK                            x       y       z     vdW  Elec       q    Type
REMARK                         _______ _______ _______ _____ _____    ______ ____
ROOT
ATOM      1  O   UNL     1       5.905  -0.695  -3.485  0.00  0.00    -0.453 OA
ENDROOT
BRANCH   1  12
ATOM      2  C   UNL     1       7.863  -1.972  -4.105  0.00  0.00    +0.181 A 
ATOM      3  O   UNL     1       9.183  -1.953  -4.614  0.00  0.00    -0.451 OA
ATOM      4  C   UNL     1       9.863  -0.759  -4.744  0.00  0.00    +0.147 A 
ATOM      5  C   UNL     1       9.330   0.453  -4.335  0.00  0.00    +0.109 A 
ATOM      6  C   UNL     1      10.063   1.649  -4.456  0.00  0.00    +0.135 A 
ATOM      7  C   UNL     1      11.344   1.645  -4.982  0.00  0.00    +0.091 A 
ATOM      8  C   UNL     1      11.878   0.430  -5.399  0.00  0.00    +0.124 A 
ATOM      9  C   UNL     1       7.976   0.454  -3.813  0.00  0.00    +0.238 A 
ATOM     10  O   UNL     1       7.446   1.528  -3.540  0.00  0.00    -0.283 OA
ATOM     11  C   UNL     1      11.148  -0.762  -5.297  0.00  0.00    +0.092 A 
ATOM     12  C   UNL     1       7.248  -0.835  -3.690  0.00  0.00    +0.214 A 
BRANCH   2  15
ATOM     13  C   UNL     1       5.385  -4.961  -3.611  0.00  0.00    +0.162 A 
ATOM     14  C   UNL     1       5.900  -3.668  -3.864  0.00  0.00    +0.061 A 
ATOM     15  C   UNL     1       7.270  -3.376  -4.044  0.00  0.00    +0.025 A 
ATOM     16  C   UNL     1       8.102  -4.501  -4.113  0.00  0.00    +0.015 A 
ATOM     17  C   UNL     1       7.603  -5.805  -3.940  0.00  0.00    +0.050 A 
ATOM     18  C   UNL     1       6.256  -6.037  -3.677  0.00  0.00    +0.158 A 
BRANCH  18  19
ATOM     19  O   UNL     1       5.873  -7.341  -3.562  0.00  0.00    -0.503 OA
ATOM     20  H   UNL     1       4.944  -7.399  -3.840  0.00  0.00    +0.292 HD
ENDBRANCH  18  19
BRANCH  13  22
ATOM     21  C   UNL     1       3.501  -6.012  -2.497  0.00  0.00    +0.277 C 
ATOM     22  O   UNL     1       4.039  -5.006  -3.357  0.00  0.00    -0.491 OA
ENDBRANCH  13  22
ENDBRANCH   2  15
BRANCH   8  23
ATOM     23  O   UNL     1      13.136   0.377  -5.923  0.00  0.00    -0.507 OA
ATOM     24  H   UNL     1      13.534   1.266  -5.898  0.00  0.00    +0.292 HD
ENDBRANCH   8  23
BRANCH   6  25
ATOM     25  O   UNL     1       9.575   2.871  -4.077  0.00  0.00    -0.506 OA
ATOM     26  H   UNL     1       8.645   2.753  -3.780  0.00  0.00    +0.292 HD
ENDBRANCH   6  25
ENDBRANCH   1  12
BRANCH   1  27
ATOM     27  C   UNL     1       5.291  -0.762  -2.189  0.00  0.00    +0.340 C 
ATOM     28  O   UNL     1       4.083  -1.555  -2.363  0.00  0.00    -0.331 OA
ATOM     29  C   UNL     1       3.311  -1.082  -3.488  0.00  0.00    +0.179 C 
ATOM     30  C   UNL     1       2.810   0.348  -3.231  0.00  0.00    +0.177 C 
ATOM     31  C   UNL     1       3.935   1.284  -2.733  0.00  0.00    +0.180 C 
ATOM     32  C   UNL     1       4.816   0.621  -1.633  0.00  0.00    +0.221 C 
BRANCH  31  33
ATOM     33  O   UNL     1       4.659   1.695  -3.912  0.00  0.00    -0.386 OA
ATOM     34  H   UNL     1       5.464   1.145  -3.982  0.00  0.00    +0.210 HD
ENDBRANCH  31  33
BRANCH  30  35
ATOM     35  O   UNL     1       2.262   0.873  -4.456  0.00  0.00    -0.386 OA
ATOM     36  H   UNL     1       3.008   1.367  -4.869  0.00  0.00    +0.210 HD
ENDBRANCH  30  35
BRANCH  32  37
ATOM     37  O   UNL     1       5.900   1.487  -1.252  0.00  0.00    -0.337 OA
BRANCH  37  38
ATOM     38  C   UNL     1       6.046   1.901   0.108  0.00  0.00    +0.282 C 
ATOM     39  O   UNL     1       5.184   1.312   1.091  0.00  0.00    -0.346 OA
ATOM     40  C   UNL     1       4.607   2.364   1.888  0.00  0.00    +0.202 C 
ATOM     41  C   UNL     1       5.425   3.644   1.693  0.00  0.00    +0.142 C 
ATOM     42  C   UNL     1       6.044   3.442   0.305  0.00  0.00    +0.206 C 
BRANCH  42  43
ATOM     43  O   UNL     1       5.301   4.135  -0.702  0.00  0.00    -0.384 OA
ATOM     44  H   UNL     1       5.941   4.357  -1.406  0.00  0.00    +0.210 HD
ENDBRANCH  42  43
BRANCH  41  45
ATOM     45  O   UNL     1       6.474   3.747   2.675  0.00  0.00    -0.381 OA
ATOM     46  H   UNL     1       6.914   2.887   2.771  0.00  0.00    +0.210 HD
ENDBRANCH  41  45
BRANCH  41  47
ATOM     47  C   UNL     1       4.542   4.899   1.852  0.00  0.00    +0.195 C 
BRANCH  47  48
ATOM     48  O   UNL     1       3.419   4.908   0.976  0.00  0.00    -0.392 OA
ATOM     49  H   UNL     1       3.791   4.814   0.071  0.00  0.00    +0.210 HD
ENDBRANCH  47  48
ENDBRANCH  41  47
ENDBRANCH  37  38
ENDBRANCH  32  37
BRANCH  29  50
ATOM     50  C   UNL     1       2.155  -2.052  -3.807  0.00  0.00    +0.190 C 
BRANCH  50  51
ATOM     51  O   UNL     1       1.454  -1.699  -4.999  0.00  0.00    -0.392 OA
ATOM     52  H   UNL     1       1.443  -0.719  -5.059  0.00  0.00    +0.210 HD
ENDBRANCH  50  51
ENDBRANCH  29  50
ENDBRANCH   1  27
TORSDOF 17
