REMARK  Name = 
REMARK  13 active torsions:
REMARK  status: ('A' for Active; 'I' for Inactive)
REMARK    1  A    between atoms: C_1  and  O_2
REMARK    2  A    between atoms: O_2  and  C_3
REMARK    3  A    between atoms: C_4  and  C_30
REMARK    4  A    between atoms: C_8  and  O_15
REMARK    5  A    between atoms: C_10  and  O_14
REMARK    6  A    between atoms: O_15  and  C_16
REMARK    7  A    between atoms: C_18  and  O_29
REMARK    8  A    between atoms: C_19  and  O_28
REMARK    9  A    between atoms: C_21  and  O_27
REMARK   10  A    between atoms: C_23  and  C_25
REMARK   11  A    between atoms: C_25  and  O_26
REMARK   12  A    between atoms: C_32  and  O_37
REMARK   13  A    between atoms: C_33  and  O_36
REMARK                            x       y       z     vdW  Elec       q    Type
REMARK                         _______ _______ _______ _____ _____    ______ ____
ROOT
ATOM      1  C   UNL     1       3.150   0.718  -0.682  0.00  0.00    +0.211 A 
ATOM      2  C   UNL     1       2.998   2.204  -0.566  0.00  0.00    +0.238 A 
ATOM      3  O   UNL     1       2.412   2.727   0.370  0.00  0.00    -0.283 OA
ATOM      4  C   UNL     1       3.634   3.006  -1.636  0.00  0.00    +0.109 A 
ATOM      5  C   UNL     1       4.672   2.416  -2.353  0.00  0.00    +0.147 A 
ATOM      6  C   UNL     1       5.408   3.150  -3.293  0.00  0.00    +0.093 A 
ATOM      7  C   UNL     1       5.035   4.458  -3.601  0.00  0.00    +0.131 A 
ATOM      8  C   UNL     1       3.962   5.043  -2.918  0.00  0.00    +0.092 A 
ATOM      9  O   UNL     1       5.000   1.092  -2.210  0.00  0.00    -0.451 OA
ATOM     10  C   UNL     1       3.273   4.323  -1.932  0.00  0.00    +0.135 A 
ATOM     11  C   UNL     1       4.123   0.278  -1.508  0.00  0.00    +0.181 A 
ENDROOT
BRANCH  11  12
ATOM     12  C   UNL     1       4.329  -1.154  -1.787  0.00  0.00    +0.025 A 
ATOM     13  C   UNL     1       3.680  -1.731  -2.895  0.00  0.00    +0.015 A 
ATOM     14  C   UNL     1       3.840  -3.082  -3.193  0.00  0.00    +0.050 A 
ATOM     15  C   UNL     1       4.656  -3.859  -2.385  0.00  0.00    +0.158 A 
ATOM     16  C   UNL     1       5.316  -3.300  -1.292  0.00  0.00    +0.159 A 
ATOM     17  C   UNL     1       5.157  -1.950  -0.982  0.00  0.00    +0.060 A 
BRANCH  15  18
ATOM     18  O   UNL     1       4.807  -5.187  -2.670  0.00  0.00    -0.503 OA
ATOM     19  H   UNL     1       5.393  -5.525  -1.963  0.00  0.00    +0.292 HD
ENDBRANCH  15  18
BRANCH  16  20
ATOM     20  O   UNL     1       6.113  -4.129  -0.552  0.00  0.00    -0.503 OA
ATOM     21  H   UNL     1       6.537  -3.599   0.146  0.00  0.00    +0.292 HD
ENDBRANCH  16  20
ENDBRANCH  11  12
BRANCH   1  23
ATOM     22  C   UNL     1       1.047   0.186   0.323  0.00  0.00    +0.277 C 
ATOM     23  O   UNL     1       2.399  -0.177   0.067  0.00  0.00    -0.488 OA
ENDBRANCH   1  23
BRANCH  10  24
ATOM     24  O   UNL     1       2.207   4.907  -1.309  0.00  0.00    -0.506 OA
ATOM     25  H   UNL     1       2.285   5.874  -1.349  0.00  0.00    +0.292 HD
ENDBRANCH  10  24
BRANCH   7  26
ATOM     26  O   UNL     1       5.660   5.253  -4.526  0.00  0.00    -0.461 OA
BRANCH  26  27
ATOM     27  C   UNL     1       6.245   4.592  -5.665  0.00  0.00    +0.339 C 
ATOM     28  O   UNL     1       7.617   4.235  -5.460  0.00  0.00    -0.331 OA
ATOM     29  C   UNL     1       8.510   5.353  -5.313  0.00  0.00    +0.179 C 
ATOM     30  C   UNL     1       8.430   6.328  -6.506  0.00  0.00    +0.177 C 
ATOM     31  C   UNL     1       6.984   6.758  -6.753  0.00  0.00    +0.180 C 
ATOM     32  C   UNL     1       6.114   5.504  -6.911  0.00  0.00    +0.214 C 
BRANCH  30  33
ATOM     33  O   UNL     1       9.242   7.485  -6.265  0.00  0.00    -0.386 OA
ATOM     34  H   UNL     1       8.650   8.141  -5.838  0.00  0.00    +0.210 HD
ENDBRANCH  30  33
BRANCH  31  35
ATOM     35  O   UNL     1       6.589   7.618  -5.668  0.00  0.00    -0.386 OA
ATOM     36  H   UNL     1       6.247   7.064  -4.941  0.00  0.00    +0.210 HD
ENDBRANCH  31  35
BRANCH  32  37
ATOM     37  O   UNL     1       4.770   5.891  -7.203  0.00  0.00    -0.383 OA
ATOM     38  H   UNL     1       4.163   5.193  -6.906  0.00  0.00    +0.210 HD
ENDBRANCH  32  37
BRANCH  29  39
ATOM     39  C   UNL     1       9.947   4.817  -5.185  0.00  0.00    +0.190 C 
BRANCH  39  40
ATOM     40  O   UNL     1      10.890   5.848  -4.905  0.00  0.00    -0.392 OA
ATOM     41  H   UNL     1      10.687   6.598  -5.495  0.00  0.00    +0.210 HD
ENDBRANCH  39  40
ENDBRANCH  29  39
ENDBRANCH  26  27
ENDBRANCH   7  26
TORSDOF 12
