REMARK  Name = 
REMARK  14 active torsions:
REMARK  status: ('A' for Active; 'I' for Inactive)
REMARK    1  A    between atoms: C_3  and  O_40
REMARK    2  A    between atoms: C_4  and  O_39
REMARK    3  A    between atoms: C_6  and  C_7
REMARK    4  A    between atoms: C_8  and  O_20
REMARK    5  A    between atoms: C_12  and  O_19
REMARK    6  A    between atoms: C_14  and  O_18
REMARK    7  A    between atoms: O_20  and  C_21
REMARK    8  A    between atoms: C_23  and  O_38
REMARK    9  A    between atoms: C_25  and  O_33
REMARK   10  A    between atoms: C_26  and  O_32
REMARK   11  A    between atoms: C_28  and  C_30
REMARK   12  A    between atoms: C_30  and  O_31
REMARK   13  A    between atoms: O_33  and  S_34
REMARK   14  A    between atoms: S_34  and  O_37
REMARK                            x       y       z     vdW  Elec       q    Type
REMARK                         _______ _______ _______ _____ _____    ______ ____
ROOT
ATOM      1  C   UNL     1      -1.370  -2.609   0.777  0.00  0.00    +0.181 A 
ATOM      2  O   UNL     1      -0.727  -3.823   0.938  0.00  0.00    -0.451 OA
ATOM      3  C   UNL     1      -1.299  -4.958   0.453  0.00  0.00    +0.147 A 
ATOM      4  C   UNL     1      -2.604  -5.002  -0.012  0.00  0.00    +0.109 A 
ATOM      5  C   UNL     1      -3.128  -6.231  -0.436  0.00  0.00    +0.135 A 
ATOM      6  C   UNL     1      -2.341  -7.387  -0.422  0.00  0.00    +0.091 A 
ATOM      7  C   UNL     1      -1.021  -7.306   0.007  0.00  0.00    +0.124 A 
ATOM      8  C   UNL     1      -3.350  -3.728  -0.084  0.00  0.00    +0.238 A 
ATOM      9  O   UNL     1      -4.512  -3.728  -0.484  0.00  0.00    -0.283 OA
ATOM     10  C   UNL     1      -0.496  -6.100   0.449  0.00  0.00    +0.092 A 
ATOM     11  C   UNL     1      -2.608  -2.462   0.256  0.00  0.00    +0.214 A 
ENDROOT
BRANCH   1  13
ATOM     12  C   UNL     1       0.724  -1.397   0.400  0.00  0.00    +0.015 A 
ATOM     13  C   UNL     1      -0.447  -1.533   1.175  0.00  0.00    +0.025 A 
ATOM     14  C   UNL     1      -0.596  -0.775   2.341  0.00  0.00    +0.060 A 
ATOM     15  C   UNL     1       0.456   0.044   2.743  0.00  0.00    +0.159 A 
ATOM     16  C   UNL     1       1.635   0.120   2.002  0.00  0.00    +0.158 A 
ATOM     17  C   UNL     1       1.766  -0.569   0.813  0.00  0.00    +0.050 A 
BRANCH  15  18
ATOM     18  O   UNL     1       0.361   0.752   3.911  0.00  0.00    -0.503 OA
ATOM     19  H   UNL     1       1.215   1.230   3.974  0.00  0.00    +0.292 HD
ENDBRANCH  15  18
BRANCH  16  20
ATOM     20  O   UNL     1       2.666   0.861   2.509  0.00  0.00    -0.503 OA
ATOM     21  H   UNL     1       3.464   0.656   1.991  0.00  0.00    +0.292 HD
ENDBRANCH  16  20
ENDBRANCH   1  13
BRANCH   5  22
ATOM     22  O   UNL     1      -4.410  -6.378  -0.893  0.00  0.00    -0.506 OA
ATOM     23  H   UNL     1      -4.856  -5.506  -0.839  0.00  0.00    +0.292 HD
ENDBRANCH   5  22
BRANCH   7  24
ATOM     24  O   UNL     1      -0.195  -8.389   0.014  0.00  0.00    -0.507 OA
ATOM     25  H   UNL     1      -0.699  -9.177  -0.253  0.00  0.00    +0.292 HD
ENDBRANCH   7  24
BRANCH  11  26
ATOM     26  O   UNL     1      -3.259  -1.260   0.019  0.00  0.00    -0.453 OA
BRANCH  26  27
ATOM     27  C   UNL     1      -2.574  -0.341  -0.857  0.00  0.00    +0.340 C 
ATOM     28  O   UNL     1      -2.650   0.968  -0.296  0.00  0.00    -0.331 OA
ATOM     29  C   UNL     1      -3.154   2.097  -1.025  0.00  0.00    +0.179 C 
ATOM     30  C   UNL     1      -4.042   1.827  -2.261  0.00  0.00    +0.179 C 
ATOM     31  C   UNL     1      -4.428   0.351  -2.354  0.00  0.00    +0.217 C 
ATOM     32  C   UNL     1      -3.141  -0.476  -2.277  0.00  0.00    +0.216 C 
BRANCH  30  33
ATOM     33  O   UNL     1      -3.396   2.260  -3.470  0.00  0.00    -0.386 OA
ATOM     34  H   UNL     1      -2.990   1.474  -3.897  0.00  0.00    +0.210 HD
ENDBRANCH  30  33
BRANCH  32  35
ATOM     35  O   UNL     1      -2.183  -0.019  -3.265  0.00  0.00    -0.383 OA
ATOM     36  H   UNL     1      -1.373   0.291  -2.818  0.00  0.00    +0.210 HD
ENDBRANCH  32  35
BRANCH  29  37
ATOM     37  C   UNL     1      -2.012   3.089  -1.327  0.00  0.00    +0.190 C 
BRANCH  37  38
ATOM     38  O   UNL     1      -1.203   3.359  -0.182  0.00  0.00    -0.392 OA
ATOM     39  H   UNL     1      -1.786   3.402   0.595  0.00  0.00    +0.210 HD
ENDBRANCH  37  38
ENDBRANCH  29  37
BRANCH  31  40
ATOM     40  O   UNL     1      -5.095   0.063  -3.584  0.00  0.00    -0.207 OA
BRANCH  40  41
ATOM     41  S   UNL     1      -6.614   0.605  -3.777  0.00  0.00    +0.208 S 
ATOM     42  O   UNL     1      -6.577   1.972  -4.234  0.00  0.00    -0.118 OA
ATOM     43  O   UNL     1      -7.379   0.209  -2.616  0.00  0.00    -0.118 OA
BRANCH  41  44
ATOM     44  O   UNL     1      -7.162  -0.311  -4.980  0.00  0.00    -0.231 OA
ATOM     45  H   UNL     1      -7.576  -1.103  -4.582  0.00  0.00    +0.247 HD
ENDBRANCH  41  44
ENDBRANCH  40  41
ENDBRANCH  31  40
ENDBRANCH  26  27
ENDBRANCH  11  26
TORSDOF 14
