REMARK  Name = 
REMARK  16 active torsions:
REMARK  status: ('A' for Active; 'I' for Inactive)
REMARK    1  A    between atoms: C_1  and  C_2
REMARK    2  A    between atoms: C_3  and  O_47
REMARK    3  A    between atoms: C_5  and  O_46
REMARK    4  A    between atoms: C_6  and  O_45
REMARK    5  A    between atoms: C_8  and  O_11
REMARK    6  A    between atoms: O_11  and  C_12
REMARK    7  A    between atoms: C_14  and  O_23
REMARK    8  A    between atoms: C_17  and  C_21
REMARK    9  A    between atoms: C_19  and  O_20
REMARK   10  A    between atoms: C_21  and  O_22
REMARK   11  A    between atoms: O_23  and  C_24
REMARK   12  A    between atoms: C_25  and  C_37
REMARK   13  A    between atoms: C_29  and  O_36
REMARK   14  A    between atoms: C_31  and  O_35
REMARK   15  A    between atoms: C_39  and  O_44
REMARK   16  A    between atoms: C_40  and  O_43
REMARK                            x       y       z     vdW  Elec       q    Type
REMARK                         _______ _______ _______ _____ _____    ______ ____
ROOT
ATOM      1  O   UNL     1       2.737   3.393  -0.388  0.00  0.00    -0.453 OA
ENDROOT
BRANCH   1   2
ATOM      2  C   UNL     1       3.380   3.342   0.872  0.00  0.00    +0.214 A 
ATOM      3  C   UNL     1       4.846   2.941   1.014  0.00  0.00    +0.238 A 
ATOM      4  O   UNL     1       5.698   3.203   0.175  0.00  0.00    -0.283 OA
ATOM      5  C   UNL     1       5.215   2.218   2.251  0.00  0.00    +0.109 A 
ATOM      6  C   UNL     1       4.452   2.508   3.366  0.00  0.00    +0.147 A 
ATOM      7  C   UNL     1       4.701   1.891   4.601  0.00  0.00    +0.092 A 
ATOM      8  C   UNL     1       5.727   0.955   4.690  0.00  0.00    +0.124 A 
ATOM      9  C   UNL     1       6.516   0.660   3.583  0.00  0.00    +0.091 A 
ATOM     10  O   UNL     1       3.452   3.435   3.296  0.00  0.00    -0.451 OA
ATOM     11  C   UNL     1       6.264   1.299   2.364  0.00  0.00    +0.135 A 
ATOM     12  C   UNL     1       2.780   3.623   2.074  0.00  0.00    +0.181 A 
BRANCH  12  13
ATOM     13  C   UNL     1       1.386   4.114   2.377  0.00  0.00    +0.025 A 
ATOM     14  C   UNL     1       1.067   4.501   3.707  0.00  0.00    +0.015 A 
ATOM     15  C   UNL     1      -0.235   4.786   4.144  0.00  0.00    +0.050 A 
ATOM     16  C   UNL     1      -1.258   4.719   3.220  0.00  0.00    +0.158 A 
ATOM     17  C   UNL     1      -0.973   4.447   1.883  0.00  0.00    +0.159 A 
ATOM     18  C   UNL     1       0.326   4.145   1.453  0.00  0.00    +0.060 A 
BRANCH  16  19
ATOM     19  O   UNL     1      -2.542   4.921   3.632  0.00  0.00    -0.503 OA
ATOM     20  H   UNL     1      -3.093   4.745   2.845  0.00  0.00    +0.292 HD
ENDBRANCH  16  19
BRANCH  17  21
ATOM     21  O   UNL     1      -2.013   4.515   1.005  0.00  0.00    -0.503 OA
ATOM     22  H   UNL     1      -1.721   5.111   0.290  0.00  0.00    +0.292 HD
ENDBRANCH  17  21
ENDBRANCH  12  13
BRANCH   8  23
ATOM     23  O   UNL     1       5.997   0.284   5.847  0.00  0.00    -0.507 OA
ATOM     24  H   UNL     1       5.384   0.569   6.545  0.00  0.00    +0.292 HD
ENDBRANCH   8  23
BRANCH  11  25
ATOM     25  O   UNL     1       7.029   0.972   1.283  0.00  0.00    -0.506 OA
ATOM     26  H   UNL     1       7.784   0.433   1.572  0.00  0.00    +0.292 HD
ENDBRANCH  11  25
ENDBRANCH   1   2
BRANCH   1  31
ATOM     27  C   UNL     1       2.791   2.587  -2.892  0.00  0.00    +0.221 C 
ATOM     28  C   UNL     1       3.546   3.350  -3.995  0.00  0.00    +0.180 C 
ATOM     29  C   UNL     1       3.871   4.678  -3.346  0.00  0.00    +0.179 C 
ATOM     30  O   UNL     1       4.224   4.385  -1.989  0.00  0.00    -0.331 OA
ATOM     31  C   UNL     1       3.529   3.176  -1.590  0.00  0.00    +0.340 C 
BRANCH  28  32
ATOM     32  O   UNL     1       2.900   3.581  -5.231  0.00  0.00    -0.386 OA
ATOM     33  H   UNL     1       1.933   3.477  -5.093  0.00  0.00    +0.210 HD
ENDBRANCH  28  32
BRANCH  27  34
ATOM     34  O   UNL     1       1.360   2.720  -2.987  0.00  0.00    -0.337 OA
BRANCH  34  38
ATOM     35  C   UNL     1       0.879   0.010  -6.540  0.00  0.00    +0.041 C 
ATOM     36  C   UNL     1       0.275   1.396  -6.311  0.00  0.00    +0.149 C 
ATOM     37  O   UNL     1       0.957   2.126  -5.271  0.00  0.00    -0.343 OA
ATOM     38  C   UNL     1       0.708   1.781  -3.907  0.00  0.00    +0.282 C 
ATOM     39  C   UNL     1      -0.815   1.808  -3.639  0.00  0.00    +0.201 C 
ATOM     40  C   UNL     1      -1.563   0.922  -4.648  0.00  0.00    +0.179 C 
ATOM     41  C   UNL     1      -1.244   1.332  -6.099  0.00  0.00    +0.174 C 
BRANCH  39  42
ATOM     42  O   UNL     1      -1.344   3.147  -3.750  0.00  0.00    -0.384 OA
ATOM     43  H   UNL     1      -2.314   3.052  -3.657  0.00  0.00    +0.210 HD
ENDBRANCH  39  42
BRANCH  40  44
ATOM     44  O   UNL     1      -2.974   1.042  -4.416  0.00  0.00    -0.386 OA
ATOM     45  H   UNL     1      -3.214   0.486  -3.657  0.00  0.00    +0.210 HD
ENDBRANCH  40  44
BRANCH  41  46
ATOM     46  O   UNL     1      -1.818   2.608  -6.423  0.00  0.00    -0.387 OA
ATOM     47  H   UNL     1      -1.661   3.202  -5.662  0.00  0.00    +0.210 HD
ENDBRANCH  41  46
ENDBRANCH  34  38
ENDBRANCH  27  34
BRANCH  29  48
ATOM     48  C   UNL     1       4.993   5.399  -4.104  0.00  0.00    +0.190 C 
BRANCH  48  49
ATOM     49  O   UNL     1       5.175   6.720  -3.597  0.00  0.00    -0.392 OA
ATOM     50  H   UNL     1       5.286   6.616  -2.634  0.00  0.00    +0.210 HD
ENDBRANCH  48  49
ENDBRANCH  29  48
ENDBRANCH   1  31
TORSDOF 15
