REMARK  Name = 
REMARK  21 active torsions:
REMARK  status: ('A' for Active; 'I' for Inactive)
REMARK    1  A    between atoms: C_2  and  O_59
REMARK    2  A    between atoms: C_3  and  O_58
REMARK    3  A    between atoms: C_5  and  O_45
REMARK    4  A    between atoms: C_6  and  O_9
REMARK    5  A    between atoms: O_9  and  C_10
REMARK    6  A    between atoms: C_10  and  C_11
REMARK    7  A    between atoms: C_12  and  O_44
REMARK    8  A    between atoms: C_14  and  O_43
REMARK    9  A    between atoms: C_16  and  O_42
REMARK   10  A    between atoms: C_17  and  O_20
REMARK   11  A    between atoms: O_20  and  C_21
REMARK   12  A    between atoms: C_22  and  C_34
REMARK   13  A    between atoms: C_26  and  O_33
REMARK   14  A    between atoms: C_28  and  O_32
REMARK   15  A    between atoms: C_36  and  O_41
REMARK   16  A    between atoms: C_37  and  O_40
REMARK   17  A    between atoms: O_45  and  C_46
REMARK   18  A    between atoms: C_46  and  C_48
REMARK   19  A    between atoms: C_49  and  C_50
REMARK   20  A    between atoms: C_52  and  O_57
REMARK   21  A    between atoms: C_53  and  O_56
REMARK                            x       y       z     vdW  Elec       q    Type
REMARK                         _______ _______ _______ _____ _____    ______ ____
ROOT
ATOM      1  C   UNL     1       3.560  -3.590   0.124  0.00  0.00    +0.179 C 
ATOM      2  O   UNL     1       4.829  -3.393  -0.562  0.00  0.00    -0.331 OA
ATOM      3  C   UNL     1       4.655  -3.426  -2.001  0.00  0.00    +0.340 C 
ATOM      4  C   UNL     1       4.312  -4.874  -2.408  0.00  0.00    +0.214 C 
ATOM      5  C   UNL     1       2.975  -5.234  -1.729  0.00  0.00    +0.180 C 
ATOM      6  C   UNL     1       3.024  -4.997  -0.214  0.00  0.00    +0.177 C 
ENDROOT
BRANCH   4   7
ATOM      7  O   UNL     1       5.365  -5.768  -1.988  0.00  0.00    -0.383 OA
ATOM      8  H   UNL     1       5.655  -5.475  -1.106  0.00  0.00    +0.210 HD
ENDBRANCH   4   7
BRANCH   6   9
ATOM      9  O   UNL     1       1.733  -5.269   0.336  0.00  0.00    -0.386 OA
ATOM     10  H   UNL     1       1.767  -5.091   1.295  0.00  0.00    +0.210 HD
ENDBRANCH   6   9
BRANCH   5  11
ATOM     11  O   UNL     1       2.607  -6.594  -1.982  0.00  0.00    -0.386 OA
ATOM     12  H   UNL     1       1.859  -6.776  -1.379  0.00  0.00    +0.210 HD
ENDBRANCH   5  11
BRANCH   3  13
ATOM     13  O   UNL     1       5.810  -2.930  -2.681  0.00  0.00    -0.453 OA
BRANCH  13  14
ATOM     14  C   UNL     1       5.566  -1.901  -3.600  0.00  0.00    +0.214 A 
ATOM     15  C   UNL     1       4.280  -1.853  -4.379  0.00  0.00    +0.238 A 
ATOM     16  O   UNL     1       3.475  -2.777  -4.333  0.00  0.00    -0.283 OA
ATOM     17  C   UNL     1       4.023  -0.672  -5.212  0.00  0.00    +0.109 A 
ATOM     18  C   UNL     1       5.069   0.227  -5.393  0.00  0.00    +0.147 A 
ATOM     19  C   UNL     1       4.915   1.306  -6.277  0.00  0.00    +0.092 A 
ATOM     20  C   UNL     1       3.715   1.466  -6.963  0.00  0.00    +0.124 A 
ATOM     21  C   UNL     1       2.650   0.599  -6.757  0.00  0.00    +0.091 A 
ATOM     22  O   UNL     1       6.274   0.113  -4.745  0.00  0.00    -0.451 OA
ATOM     23  C   UNL     1       2.797  -0.462  -5.870  0.00  0.00    +0.135 A 
ATOM     24  C   UNL     1       6.479  -0.935  -3.849  0.00  0.00    +0.181 A 
BRANCH  24  25
ATOM     25  C   UNL     1       7.812  -0.874  -3.170  0.00  0.00    +0.025 A 
ATOM     26  C   UNL     1       8.411   0.371  -2.886  0.00  0.00    +0.015 A 
ATOM     27  C   UNL     1       9.646   0.452  -2.220  0.00  0.00    +0.050 A 
ATOM     28  C   UNL     1      10.286  -0.713  -1.834  0.00  0.00    +0.158 A 
ATOM     29  C   UNL     1       9.732  -1.950  -2.130  0.00  0.00    +0.159 A 
ATOM     30  C   UNL     1       8.520  -2.037  -2.810  0.00  0.00    +0.060 A 
BRANCH  29  31
ATOM     31  O   UNL     1      10.409  -3.067  -1.721  0.00  0.00    -0.503 OA
ATOM     32  H   UNL     1       9.877  -3.848  -1.960  0.00  0.00    +0.292 HD
ENDBRANCH  29  31
BRANCH  28  33
ATOM     33  O   UNL     1      11.466  -0.642  -1.152  0.00  0.00    -0.503 OA
ATOM     34  H   UNL     1      11.699  -1.574  -0.967  0.00  0.00    +0.292 HD
ENDBRANCH  28  33
ENDBRANCH  24  25
BRANCH  23  35
ATOM     35  O   UNL     1       1.723  -1.275  -5.639  0.00  0.00    -0.506 OA
ATOM     36  H   UNL     1       1.053  -1.146  -6.330  0.00  0.00    +0.292 HD
ENDBRANCH  23  35
BRANCH  20  37
ATOM     37  O   UNL     1       3.528   2.476  -7.855  0.00  0.00    -0.507 OA
ATOM     38  H   UNL     1       4.359   2.967  -7.964  0.00  0.00    +0.292 HD
ENDBRANCH  20  37
ENDBRANCH  13  14
ENDBRANCH   3  13
BRANCH   1  39
ATOM     39  C   UNL     1       2.620  -2.404  -0.191  0.00  0.00    +0.197 C 
BRANCH  39  40
ATOM     40  O   UNL     1       1.418  -2.312   0.562  0.00  0.00    -0.345 OA
BRANCH  40  43
ATOM     41  C   UNL     1       0.847   1.215  -0.082  0.00  0.00    +0.197 C 
ATOM     42  O   UNL     1       1.439   0.021   0.410  0.00  0.00    -0.345 OA
ATOM     43  C   UNL     1       0.690  -1.159   0.091  0.00  0.00    +0.294 C 
ATOM     44  C   UNL     1      -0.730  -1.108   0.681  0.00  0.00    +0.263 C 
ATOM     45  C   UNL     1      -1.409   0.188   0.212  0.00  0.00    +0.191 C 
ATOM     46  C   UNL     1      -0.541   1.417   0.514  0.00  0.00    +0.172 C 
BRANCH  46  47
ATOM     47  O   UNL     1      -1.175   2.589  -0.009  0.00  0.00    -0.387 OA
ATOM     48  H   UNL     1      -1.135   2.563  -0.981  0.00  0.00    +0.210 HD
ENDBRANCH  46  47
BRANCH  45  49
ATOM     49  O   UNL     1      -2.701   0.347   0.805  0.00  0.00    -0.385 OA
ATOM     50  H   UNL     1      -2.918   1.298   0.742  0.00  0.00    +0.210 HD
ENDBRANCH  45  49
BRANCH  44  51
ATOM     51  O   UNL     1      -0.643  -1.108   2.121  0.00  0.00    -0.450 OA
BRANCH  51  52
ATOM     52  C   UNL     1      -1.128  -2.215   2.730  0.00  0.00    +0.332 C 
ATOM     53  O   UNL     1      -1.644  -3.187   2.203  0.00  0.00    -0.246 OA
BRANCH  52  54
ATOM     54  C   UNL     1      -0.953  -2.039   4.184  0.00  0.00    +0.092 C 
ATOM     55  C   UNL     1      -1.468  -2.950   5.024  0.00  0.00    +0.015 C 
BRANCH  55  56
ATOM     56  C   UNL     1      -1.482  -2.799   6.485  0.00  0.00    -0.021 A 
ATOM     57  C   UNL     1      -0.495  -2.084   7.185  0.00  0.00    +0.012 A 
ATOM     58  C   UNL     1      -0.602  -1.886   8.564  0.00  0.00    +0.050 A 
ATOM     59  C   UNL     1      -1.688  -2.415   9.242  0.00  0.00    +0.158 A 
ATOM     60  C   UNL     1      -2.645  -3.169   8.572  0.00  0.00    +0.159 A 
ATOM     61  C   UNL     1      -2.544  -3.377   7.200  0.00  0.00    +0.057 A 
BRANCH  60  62
ATOM     62  O   UNL     1      -3.687  -3.671   9.302  0.00  0.00    -0.503 OA
ATOM     63  H   UNL     1      -4.271  -4.161   8.698  0.00  0.00    +0.292 HD
ENDBRANCH  60  62
BRANCH  59  64
ATOM     64  O   UNL     1      -1.820  -2.177  10.579  0.00  0.00    -0.503 OA
ATOM     65  H   UNL     1      -2.668  -2.603  10.820  0.00  0.00    +0.292 HD
ENDBRANCH  59  64
ENDBRANCH  55  56
ENDBRANCH  52  54
ENDBRANCH  51  52
ENDBRANCH  44  51
ENDBRANCH  40  43
ENDBRANCH  39  40
ENDBRANCH   1  39
TORSDOF 21
