REMARK  Name = 
REMARK  29 active torsions:
REMARK  status: ('A' for Active; 'I' for Inactive)
REMARK    1  A    between atoms: C_3  and  O_75
REMARK    2  A    between atoms: C_4  and  O_74
REMARK    3  A    between atoms: C_6  and  C_7
REMARK    4  A    between atoms: C_8  and  C_9
REMARK    5  A    between atoms: C_9  and  O_11
REMARK    6  A    between atoms: O_11  and  C_12
REMARK    7  A    between atoms: C_12  and  C_13
REMARK    8  A    between atoms: C_14  and  O_73
REMARK    9  A    between atoms: C_16  and  O_72
REMARK   10  A    between atoms: C_17  and  O_71
REMARK   11  A    between atoms: C_19  and  O_22
REMARK   12  A    between atoms: O_22  and  C_23
REMARK   13  A    between atoms: C_24  and  O_35
REMARK   14  A    between atoms: C_27  and  C_33
REMARK   15  A    between atoms: C_28  and  O_32
REMARK   16  A    between atoms: C_30  and  O_31
REMARK   17  A    between atoms: C_33  and  O_34
REMARK   18  A    between atoms: O_35  and  C_36
REMARK   19  A    between atoms: C_37  and  O_70
REMARK   20  A    between atoms: C_39  and  O_69
REMARK   21  A    between atoms: C_41  and  C_67
REMARK   22  A    between atoms: C_43  and  O_45
REMARK   23  A    between atoms: O_45  and  C_46
REMARK   24  A    between atoms: C_47  and  C_59
REMARK   25  A    between atoms: C_51  and  O_58
REMARK   26  A    between atoms: C_53  and  O_57
REMARK   27  A    between atoms: C_61  and  O_66
REMARK   28  A    between atoms: C_62  and  O_65
REMARK   29  A    between atoms: C_67  and  O_68
REMARK                            x       y       z     vdW  Elec       q    Type
REMARK                         _______ _______ _______ _____ _____    ______ ____
ROOT
ATOM      1  C   UNL     1      -6.898  -4.250  -4.477  0.00  0.00    +0.208 C 
ATOM      2  C   UNL     1      -7.999  -5.298  -4.618  0.00  0.00    +0.179 C 
ATOM      3  C   UNL     1      -8.095  -6.185  -3.392  0.00  0.00    +0.177 C 
ATOM      4  C   UNL     1      -6.731  -6.784  -2.987  0.00  0.00    +0.178 C 
ATOM      5  O   UNL     1      -5.598  -5.927  -3.104  0.00  0.00    -0.341 OA
ATOM      6  C   UNL     1      -5.527  -4.944  -4.151  0.00  0.00    +0.283 C 
ENDROOT
BRANCH   3   7
ATOM      7  O   UNL     1      -9.126  -7.153  -3.650  0.00  0.00    -0.386 OA
ATOM      8  H   UNL     1      -8.793  -8.031  -3.360  0.00  0.00    +0.210 HD
ENDBRANCH   3   7
BRANCH   2   9
ATOM      9  O   UNL     1      -7.781  -6.107  -5.782  0.00  0.00    -0.386 OA
ATOM     10  H   UNL     1      -8.453  -6.818  -5.724  0.00  0.00    +0.210 HD
ENDBRANCH   2   9
BRANCH   6  11
ATOM     11  O   UNL     1      -4.725  -5.390  -5.300  0.00  0.00    -0.337 OA
BRANCH  11  12
ATOM     12  C   UNL     1      -4.359  -4.325  -6.227  0.00  0.00    +0.221 C 
ATOM     13  C   UNL     1      -3.717  -4.692  -7.597  0.00  0.00    +0.340 C 
ATOM     14  O   UNL     1      -2.357  -5.172  -7.457  0.00  0.00    -0.331 OA
ATOM     15  C   UNL     1      -1.450  -4.182  -6.869  0.00  0.00    +0.179 C 
ATOM     16  C   UNL     1      -1.966  -3.780  -5.471  0.00  0.00    +0.177 C 
ATOM     17  C   UNL     1      -3.381  -3.262  -5.650  0.00  0.00    +0.180 C 
BRANCH  16  18
ATOM     18  O   UNL     1      -1.198  -2.724  -4.866  0.00  0.00    -0.386 OA
ATOM     19  H   UNL     1      -1.444  -2.714  -3.919  0.00  0.00    +0.210 HD
ENDBRANCH  16  18
BRANCH  17  20
ATOM     20  O   UNL     1      -3.833  -2.606  -4.467  0.00  0.00    -0.386 OA
ATOM     21  H   UNL     1      -3.209  -1.870  -4.304  0.00  0.00    +0.210 HD
ENDBRANCH  17  20
BRANCH  13  22
ATOM     22  O   UNL     1      -4.587  -5.489  -8.434  0.00  0.00    -0.453 OA
BRANCH  22  23
ATOM     23  C   UNL     1      -5.463  -4.877  -9.366  0.00  0.00    +0.214 A 
ATOM     24  C   UNL     1      -5.224  -3.469  -9.925  0.00  0.00    +0.238 A 
ATOM     25  O   UNL     1      -4.279  -2.769  -9.580  0.00  0.00    -0.283 OA
ATOM     26  C   UNL     1      -6.151  -2.925 -10.941  0.00  0.00    +0.109 A 
ATOM     27  C   UNL     1      -7.159  -3.752 -11.384  0.00  0.00    +0.147 A 
ATOM     28  C   UNL     1      -8.033  -3.350 -12.406  0.00  0.00    +0.092 A 
ATOM     29  C   UNL     1      -7.887  -2.095 -12.981  0.00  0.00    +0.124 A 
ATOM     30  C   UNL     1      -6.905  -1.227 -12.530  0.00  0.00    +0.091 A 
ATOM     31  O   UNL     1      -7.366  -4.990 -10.869  0.00  0.00    -0.451 OA
ATOM     32  C   UNL     1      -6.042  -1.640 -11.507  0.00  0.00    +0.135 A 
ATOM     33  C   UNL     1      -6.557  -5.524  -9.865  0.00  0.00    +0.181 A 
BRANCH  33  34
ATOM     34  C   UNL     1      -7.135  -6.867  -9.472  0.00  0.00    +0.025 A 
ATOM     35  C   UNL     1      -8.409  -7.233 -10.000  0.00  0.00    +0.015 A 
ATOM     36  C   UNL     1      -9.075  -8.408  -9.644  0.00  0.00    +0.050 A 
ATOM     37  C   UNL     1      -8.467  -9.262  -8.754  0.00  0.00    +0.158 A 
ATOM     38  C   UNL     1      -7.199  -8.971  -8.259  0.00  0.00    +0.159 A 
ATOM     39  C   UNL     1      -6.532  -7.788  -8.606  0.00  0.00    +0.060 A 
BRANCH  37  40
ATOM     40  O   UNL     1      -9.126 -10.394  -8.371  0.00  0.00    -0.503 OA
ATOM     41  H   UNL     1      -8.539 -10.809  -7.710  0.00  0.00    +0.292 HD
ENDBRANCH  37  40
BRANCH  38  42
ATOM     42  O   UNL     1      -6.635  -9.896  -7.420  0.00  0.00    -0.503 OA
ATOM     43  H   UNL     1      -5.700  -9.650  -7.305  0.00  0.00    +0.292 HD
ENDBRANCH  38  42
ENDBRANCH  33  34
BRANCH  32  44
ATOM     44  O   UNL     1      -5.094  -0.752 -11.080  0.00  0.00    -0.506 OA
ATOM     45  H   UNL     1      -5.135   0.064 -11.603  0.00  0.00    +0.292 HD
ENDBRANCH  32  44
BRANCH  29  46
ATOM     46  O   UNL     1      -8.700  -1.666 -13.988  0.00  0.00    -0.507 OA
ATOM     47  H   UNL     1      -9.313  -2.378 -14.235  0.00  0.00    +0.292 HD
ENDBRANCH  29  46
ENDBRANCH  22  23
ENDBRANCH  13  22
BRANCH  15  48
ATOM     48  C   UNL     1      -1.158  -2.939  -7.777  0.00  0.00    +0.190 C 
BRANCH  48  49
ATOM     49  O   UNL     1      -0.213  -2.035  -7.202  0.00  0.00    -0.392 OA
ATOM     50  H   UNL     1      -0.497  -1.859  -6.279  0.00  0.00    +0.210 HD
ENDBRANCH  48  49
ENDBRANCH  15  48
ENDBRANCH  11  12
ENDBRANCH   6  11
BRANCH   4  51
ATOM     51  C   UNL     1      -6.396  -8.180  -3.523  0.00  0.00    +0.190 C 
BRANCH  51  52
ATOM     52  O   UNL     1      -7.459  -9.094  -3.238  0.00  0.00    -0.392 OA
ATOM     53  H   UNL     1      -7.071  -9.989  -3.233  0.00  0.00    +0.210 HD
ENDBRANCH  51  52
ENDBRANCH   4  51
BRANCH   1  54
ATOM     54  O   UNL     1      -7.334  -3.244  -3.513  0.00  0.00    -0.338 OA
BRANCH  54  57
ATOM     55  C   UNL     1      -6.387   0.067  -2.207  0.00  0.00    +0.190 C 
ATOM     56  O   UNL     1      -7.120  -1.162  -2.422  0.00  0.00    -0.339 OA
ATOM     57  C   UNL     1      -6.576  -2.013  -3.447  0.00  0.00    +0.282 C 
ATOM     58  C   UNL     1      -6.579  -1.194  -4.772  0.00  0.00    +0.201 C 
ATOM     59  C   UNL     1      -5.750   0.087  -4.631  0.00  0.00    +0.179 C 
ATOM     60  C   UNL     1      -6.282   0.919  -3.480  0.00  0.00    +0.178 C 
BRANCH  58  61
ATOM     61  O   UNL     1      -5.976  -1.870  -5.857  0.00  0.00    -0.384 OA
ATOM     62  H   UNL     1      -5.176  -2.212  -5.416  0.00  0.00    +0.210 HD
ENDBRANCH  58  61
BRANCH  59  63
ATOM     63  O   UNL     1      -5.792   0.853  -5.847  0.00  0.00    -0.386 OA
ATOM     64  H   UNL     1      -6.259   0.322  -6.520  0.00  0.00    +0.210 HD
ENDBRANCH  59  63
BRANCH  60  65
ATOM     65  O   UNL     1      -5.425   2.042  -3.266  0.00  0.00    -0.386 OA
ATOM     66  H   UNL     1      -5.971   2.764  -2.910  0.00  0.00    +0.210 HD
ENDBRANCH  60  65
BRANCH  55  67
ATOM     67  C   UNL     1      -5.017  -0.159  -1.533  0.00  0.00    +0.266 C 
BRANCH  67  68
ATOM     68  O   UNL     1      -5.238  -0.842  -0.289  0.00  0.00    -0.459 OA
BRANCH  68  69
ATOM     69  C   UNL     1      -4.669  -2.063  -0.166  0.00  0.00    +0.332 C 
ATOM     70  O   UNL     1      -3.886  -2.585  -0.943  0.00  0.00    -0.246 OA
BRANCH  69  72
ATOM     71  C   UNL     1      -4.801  -3.898   1.438  0.00  0.00    +0.015 C 
ATOM     72  C   UNL     1      -5.191  -2.675   1.078  0.00  0.00    +0.092 C 
BRANCH  71  74
ATOM     73  C   UNL     1      -5.713  -3.974   3.791  0.00  0.00    +0.012 A 
ATOM     74  C   UNL     1      -5.311  -4.621   2.617  0.00  0.00    -0.021 A 
ATOM     75  C   UNL     1      -5.361  -6.018   2.555  0.00  0.00    +0.057 A 
ATOM     76  C   UNL     1      -5.823  -6.738   3.647  0.00  0.00    +0.159 A 
ATOM     77  C   UNL     1      -6.234  -6.086   4.806  0.00  0.00    +0.158 A 
ATOM     78  C   UNL     1      -6.191  -4.692   4.887  0.00  0.00    +0.050 A 
BRANCH  77  79
ATOM     79  O   UNL     1      -6.678  -6.848   5.850  0.00  0.00    -0.503 OA
ATOM     80  H   UNL     1      -6.887  -6.256   6.592  0.00  0.00    +0.292 HD
ENDBRANCH  77  79
BRANCH  76  81
ATOM     81  O   UNL     1      -5.876  -8.101   3.563  0.00  0.00    -0.503 OA
ATOM     82  H   UNL     1      -6.226  -8.383   4.418  0.00  0.00    +0.292 HD
ENDBRANCH  76  81
ENDBRANCH  71  74
ENDBRANCH  69  72
ENDBRANCH  68  69
ENDBRANCH  67  68
ENDBRANCH  55  67
ENDBRANCH  54  57
ENDBRANCH   1  54
TORSDOF 29
