REMARK  Name = 
REMARK  28 active torsions:
REMARK  status: ('A' for Active; 'I' for Inactive)
REMARK    1  A    between atoms: C_1  and  O_2
REMARK    2  A    between atoms: O_2  and  C_3
REMARK    3  A    between atoms: C_4  and  O_74
REMARK    4  A    between atoms: C_7  and  C_9
REMARK    5  A    between atoms: C_10  and  C_11
REMARK    6  A    between atoms: C_11  and  O_13
REMARK    7  A    between atoms: O_13  and  C_14
REMARK    8  A    between atoms: C_15  and  O_24
REMARK    9  A    between atoms: C_19  and  O_23
REMARK   10  A    between atoms: C_21  and  O_22
REMARK   11  A    between atoms: O_24  and  C_25
REMARK   12  A    between atoms: C_26  and  O_73
REMARK   13  A    between atoms: C_28  and  O_72
REMARK   14  A    between atoms: C_30  and  C_70
REMARK   15  A    between atoms: C_32  and  O_34
REMARK   16  A    between atoms: O_34  and  C_35
REMARK   17  A    between atoms: C_36  and  C_62
REMARK   18  A    between atoms: C_40  and  O_47
REMARK   19  A    between atoms: C_42  and  O_46
REMARK   20  A    between atoms: O_47  and  C_48
REMARK   21  A    between atoms: C_50  and  O_61
REMARK   22  A    between atoms: C_51  and  O_60
REMARK   23  A    between atoms: C_52  and  O_59
REMARK   24  A    between atoms: C_54  and  C_57
REMARK   25  A    between atoms: C_57  and  O_58
REMARK   26  A    between atoms: C_64  and  O_69
REMARK   27  A    between atoms: C_65  and  O_68
REMARK   28  A    between atoms: C_70  and  O_71
REMARK                            x       y       z     vdW  Elec       q    Type
REMARK                         _______ _______ _______ _____ _____    ______ ____
ROOT
ATOM      1  O   UNL     1      -5.775  -9.580  -2.451  0.00  0.00    -0.453 OA
ENDROOT
BRANCH   1   2
ATOM      2  C   UNL     1      -5.539  -9.630  -3.837  0.00  0.00    +0.214 A 
ATOM      3  C   UNL     1      -4.643 -10.696  -4.463  0.00  0.00    +0.238 A 
ATOM      4  O   UNL     1      -4.014 -11.511  -3.797  0.00  0.00    -0.283 OA
ATOM      5  C   UNL     1      -4.489 -10.724  -5.921  0.00  0.00    +0.109 A 
ATOM      6  C   UNL     1      -5.048  -9.682  -6.618  0.00  0.00    +0.147 A 
ATOM      7  C   UNL     1      -4.943  -9.603  -8.001  0.00  0.00    +0.093 A 
ATOM      8  C   UNL     1      -4.366 -10.634  -8.729  0.00  0.00    +0.131 A 
ATOM      9  C   UNL     1      -3.762 -11.687  -8.035  0.00  0.00    +0.092 A 
ATOM     10  O   UNL     1      -5.759  -8.684  -6.044  0.00  0.00    -0.451 OA
ATOM     11  C   UNL     1      -3.801 -11.715  -6.632  0.00  0.00    +0.135 A 
ATOM     12  C   UNL     1      -6.014  -8.679  -4.684  0.00  0.00    +0.181 A 
BRANCH  12  13
ATOM     13  C   UNL     1      -6.795  -7.440  -4.366  0.00  0.00    +0.025 A 
ATOM     14  C   UNL     1      -6.585  -6.301  -5.193  0.00  0.00    +0.015 A 
ATOM     15  C   UNL     1      -7.252  -5.092  -4.995  0.00  0.00    +0.050 A 
ATOM     16  C   UNL     1      -8.140  -4.998  -3.946  0.00  0.00    +0.158 A 
ATOM     17  C   UNL     1      -8.410  -6.108  -3.147  0.00  0.00    +0.159 A 
ATOM     18  C   UNL     1      -7.764  -7.336  -3.360  0.00  0.00    +0.060 A 
BRANCH  17  19
ATOM     19  O   UNL     1      -9.325  -5.933  -2.143  0.00  0.00    -0.503 OA
ATOM     20  H   UNL     1      -9.426  -6.782  -1.680  0.00  0.00    +0.292 HD
ENDBRANCH  17  19
BRANCH  16  21
ATOM     21  O   UNL     1      -8.730  -3.794  -3.689  0.00  0.00    -0.503 OA
ATOM     22  H   UNL     1      -9.241  -3.941  -2.869  0.00  0.00    +0.292 HD
ENDBRANCH  16  21
ENDBRANCH  12  13
BRANCH  11  23
ATOM     23  O   UNL     1      -3.186 -12.745  -5.977  0.00  0.00    -0.506 OA
ATOM     24  H   UNL     1      -2.543 -13.186  -6.554  0.00  0.00    +0.292 HD
ENDBRANCH  11  23
BRANCH   8  25
ATOM     25  O   UNL     1      -4.409 -10.733 -10.098  0.00  0.00    -0.461 OA
BRANCH  25  26
ATOM     26  C   UNL     1      -4.922  -9.590 -10.825  0.00  0.00    +0.339 C 
ATOM     27  O   UNL     1      -6.246  -9.186 -10.472  0.00  0.00    -0.331 OA
ATOM     28  C   UNL     1      -7.256 -10.184 -10.685  0.00  0.00    +0.179 C 
ATOM     29  C   UNL     1      -7.313 -10.609 -12.159  0.00  0.00    +0.177 C 
ATOM     30  C   UNL     1      -5.923 -10.940 -12.712  0.00  0.00    +0.180 C 
ATOM     31  C   UNL     1      -4.882  -9.877 -12.333  0.00  0.00    +0.214 C 
BRANCH  31  32
ATOM     32  O   UNL     1      -3.589 -10.313 -12.781  0.00  0.00    -0.383 OA
ATOM     33  H   UNL     1      -3.262 -10.962 -12.129  0.00  0.00    +0.210 HD
ENDBRANCH  31  32
BRANCH  30  34
ATOM     34  O   UNL     1      -6.027 -11.025 -14.148  0.00  0.00    -0.386 OA
ATOM     35  H   UNL     1      -5.166 -10.728 -14.506  0.00  0.00    +0.210 HD
ENDBRANCH  30  34
BRANCH  29  36
ATOM     36  O   UNL     1      -7.873  -9.562 -12.966  0.00  0.00    -0.386 OA
ATOM     37  H   UNL     1      -7.725  -9.850 -13.891  0.00  0.00    +0.210 HD
ENDBRANCH  29  36
BRANCH  28  38
ATOM     38  C   UNL     1      -8.608  -9.609 -10.217  0.00  0.00    +0.190 C 
BRANCH  38  39
ATOM     39  O   UNL     1      -8.573  -9.166  -8.858  0.00  0.00    -0.392 OA
ATOM     40  H   UNL     1      -8.105  -9.828  -8.327  0.00  0.00    +0.210 HD
ENDBRANCH  38  39
ENDBRANCH  28  38
ENDBRANCH  25  26
ENDBRANCH   8  25
ENDBRANCH   1   2
BRANCH   1  42
ATOM     41  C   UNL     1      -3.738 -10.387  -1.266  0.00  0.00    +0.221 C 
ATOM     42  C   UNL     1      -5.241 -10.669  -1.653  0.00  0.00    +0.340 C 
ATOM     43  O   UNL     1      -6.037 -10.928  -0.475  0.00  0.00    -0.331 OA
ATOM     44  C   UNL     1      -5.564 -12.077   0.279  0.00  0.00    +0.179 C 
ATOM     45  C   UNL     1      -4.126 -11.817   0.745  0.00  0.00    +0.177 C 
ATOM     46  C   UNL     1      -3.224 -11.595  -0.471  0.00  0.00    +0.180 C 
BRANCH  46  47
ATOM     47  O   UNL     1      -1.880 -11.497   0.010  0.00  0.00    -0.386 OA
ATOM     48  H   UNL     1      -1.255 -11.443  -0.744  0.00  0.00    +0.210 HD
ENDBRANCH  46  47
BRANCH  45  49
ATOM     49  O   UNL     1      -3.601 -12.899   1.516  0.00  0.00    -0.386 OA
ATOM     50  H   UNL     1      -2.635 -12.721   1.546  0.00  0.00    +0.210 HD
ENDBRANCH  45  49
BRANCH  41  51
ATOM     51  O   UNL     1      -3.598  -9.124  -0.561  0.00  0.00    -0.336 OA
BRANCH  51  57
ATOM     52  C   UNL     1      -1.375  -8.541  -1.583  0.00  0.00    +0.263 C 
ATOM     53  C   UNL     1      -1.911  -7.370  -2.429  0.00  0.00    +0.191 C 
ATOM     54  C   UNL     1      -2.069  -6.089  -1.596  0.00  0.00    +0.172 C 
ATOM     55  C   UNL     1      -2.855  -6.365  -0.313  0.00  0.00    +0.197 C 
ATOM     56  O   UNL     1      -2.264  -7.442   0.416  0.00  0.00    -0.345 OA
ATOM     57  C   UNL     1      -2.244  -8.689  -0.308  0.00  0.00    +0.294 C 
BRANCH  54  58
ATOM     58  O   UNL     1      -0.779  -5.561  -1.258  0.00  0.00    -0.387 OA
ATOM     59  H   UNL     1      -0.493  -6.007  -0.437  0.00  0.00    +0.210 HD
ENDBRANCH  54  58
BRANCH  53  60
ATOM     60  O   UNL     1      -3.154  -7.722  -3.051  0.00  0.00    -0.385 OA
ATOM     61  H   UNL     1      -3.819  -7.892  -2.351  0.00  0.00    +0.210 HD
ENDBRANCH  53  60
BRANCH  52  62
ATOM     62  O   UNL     1       0.021  -8.284  -1.268  0.00  0.00    -0.450 OA
BRANCH  62  63
ATOM     63  C   UNL     1       0.815  -9.373  -1.120  0.00  0.00    +0.332 C 
ATOM     64  O   UNL     1       0.447 -10.531  -1.038  0.00  0.00    -0.246 OA
BRANCH  63  66
ATOM     65  C   UNL     1       3.272  -9.669  -0.863  0.00  0.00    +0.015 C 
ATOM     66  C   UNL     1       2.218  -8.906  -1.198  0.00  0.00    +0.092 C 
BRANCH  65  69
ATOM     67  C   UNL     1       6.391  -8.181  -2.446  0.00  0.00    +0.162 A 
ATOM     68  C   UNL     1       5.052  -8.517  -2.221  0.00  0.00    +0.057 A 
ATOM     69  C   UNL     1       4.666  -9.239  -1.077  0.00  0.00    -0.021 A 
ATOM     70  C   UNL     1       5.660  -9.626  -0.155  0.00  0.00    +0.012 A 
ATOM     71  C   UNL     1       6.999  -9.289  -0.372  0.00  0.00    +0.050 A 
ATOM     72  C   UNL     1       7.349  -8.580  -1.513  0.00  0.00    +0.158 A 
BRANCH  72  73
ATOM     73  O   UNL     1       8.672  -8.290  -1.716  0.00  0.00    -0.503 OA
ATOM     74  H   UNL     1       8.703  -7.826  -2.575  0.00  0.00    +0.292 HD
ENDBRANCH  72  73
BRANCH  67  76
ATOM     75  C   UNL     1       5.948  -7.082  -4.510  0.00  0.00    +0.277 C 
ATOM     76  O   UNL     1       6.891  -7.509  -3.535  0.00  0.00    -0.491 OA
ENDBRANCH  67  76
ENDBRANCH  65  69
ENDBRANCH  63  66
ENDBRANCH  62  63
ENDBRANCH  52  62
ENDBRANCH  51  57
ENDBRANCH  41  51
BRANCH  44  77
ATOM     77  C   UNL     1      -5.673 -13.442  -0.459  0.00  0.00    +0.190 C 
BRANCH  77  78
ATOM     78  O   UNL     1      -7.010 -13.730  -0.857  0.00  0.00    -0.392 OA
ATOM     79  H   UNL     1      -7.526 -13.865  -0.044  0.00  0.00    +0.210 HD
ENDBRANCH  77  78
ENDBRANCH  44  77
ENDBRANCH   1  42
TORSDOF 27
