REMARK  Name = 
REMARK  17 active torsions:
REMARK  status: ('A' for Active; 'I' for Inactive)
REMARK    1  A    between atoms: C_1  and  C_2
REMARK    2  A    between atoms: C_3  and  O_48
REMARK    3  A    between atoms: C_5  and  O_47
REMARK    4  A    between atoms: C_7  and  O_46
REMARK    5  A    between atoms: C_8  and  O_11
REMARK    6  A    between atoms: O_11  and  C_12
REMARK    7  A    between atoms: C_14  and  O_45
REMARK    8  A    between atoms: C_19  and  C_37
REMARK    9  A    between atoms: C_20  and  O_23
REMARK   10  A    between atoms: O_23  and  C_24
REMARK   11  A    between atoms: C_26  and  O_36
REMARK   12  A    between atoms: C_27  and  O_35
REMARK   13  A    between atoms: C_28  and  O_34
REMARK   14  A    between atoms: C_30  and  C_32
REMARK   15  A    between atoms: C_32  and  O_33
REMARK   16  A    between atoms: C_39  and  O_44
REMARK   17  A    between atoms: C_40  and  O_43
REMARK                            x       y       z     vdW  Elec       q    Type
REMARK                         _______ _______ _______ _____ _____    ______ ____
ROOT
ATOM      1  C   UNL     1       2.695   2.907  -3.297  0.00  0.00    +0.131 A 
ATOM      2  C   UNL     1       1.455   3.425  -2.901  0.00  0.00    +0.093 A 
ATOM      3  C   UNL     1       1.272   4.810  -2.791  0.00  0.00    +0.147 A 
ATOM      4  O   UNL     1       0.054   5.291  -2.371  0.00  0.00    -0.451 OA
ATOM      5  C   UNL     1      -0.204   6.670  -2.452  0.00  0.00    +0.181 A 
ATOM      6  C   UNL     1       0.762   7.604  -2.666  0.00  0.00    +0.214 A 
ATOM      7  C   UNL     1       2.158   7.068  -2.691  0.00  0.00    +0.238 A 
ATOM      8  O   UNL     1       3.131   7.703  -2.305  0.00  0.00    -0.283 OA
ATOM      9  C   UNL     1       2.332   5.668  -3.068  0.00  0.00    +0.109 A 
ATOM     10  C   UNL     1       3.545   5.157  -3.540  0.00  0.00    +0.135 A 
ATOM     11  C   UNL     1       3.725   3.786  -3.652  0.00  0.00    +0.092 A 
ENDROOT
BRANCH   5  12
ATOM     12  C   UNL     1      -1.647   6.991  -2.197  0.00  0.00    +0.025 A 
ATOM     13  C   UNL     1      -2.663   6.073  -2.540  0.00  0.00    +0.015 A 
ATOM     14  C   UNL     1      -4.010   6.329  -2.238  0.00  0.00    +0.050 A 
ATOM     15  C   UNL     1      -4.354   7.505  -1.599  0.00  0.00    +0.158 A 
ATOM     16  C   UNL     1      -3.374   8.425  -1.254  0.00  0.00    +0.159 A 
ATOM     17  C   UNL     1      -2.036   8.167  -1.527  0.00  0.00    +0.060 A 
BRANCH  15  18
ATOM     18  O   UNL     1      -5.662   7.748  -1.291  0.00  0.00    -0.503 OA
ATOM     19  H   UNL     1      -5.651   8.606  -0.822  0.00  0.00    +0.292 HD
ENDBRANCH  15  18
BRANCH  16  20
ATOM     20  O   UNL     1      -3.782   9.573  -0.625  0.00  0.00    -0.503 OA
ATOM     21  H   UNL     1      -3.004  10.138  -0.485  0.00  0.00    +0.292 HD
ENDBRANCH  16  20
ENDBRANCH   5  12
BRANCH  10  22
ATOM     22  O   UNL     1       4.552   5.998  -3.924  0.00  0.00    -0.506 OA
ATOM     23  H   UNL     1       5.391   5.507  -3.979  0.00  0.00    +0.292 HD
ENDBRANCH  10  22
BRANCH   6  24
ATOM     24  O   UNL     1       0.461   8.972  -2.830  0.00  0.00    -0.453 OA
BRANCH  24  25
ATOM     25  C   UNL     1       1.519   9.928  -2.621  0.00  0.00    +0.340 C 
ATOM     26  O   UNL     1       1.650  10.252  -1.232  0.00  0.00    -0.331 OA
ATOM     27  C   UNL     1       0.712  11.216  -0.729  0.00  0.00    +0.179 C 
ATOM     28  C   UNL     1       0.805  12.530  -1.513  0.00  0.00    +0.177 C 
ATOM     29  C   UNL     1       0.448  12.248  -2.970  0.00  0.00    +0.180 C 
ATOM     30  C   UNL     1       1.376  11.171  -3.538  0.00  0.00    +0.214 C 
BRANCH  28  31
ATOM     31  O   UNL     1       2.135  13.064  -1.471  0.00  0.00    -0.386 OA
ATOM     32  H   UNL     1       2.092  13.935  -1.909  0.00  0.00    +0.210 HD
ENDBRANCH  28  31
BRANCH  29  33
ATOM     33  O   UNL     1       0.567  13.481  -3.702  0.00  0.00    -0.386 OA
ATOM     34  H   UNL     1       1.312  13.386  -4.326  0.00  0.00    +0.210 HD
ENDBRANCH  29  33
BRANCH  30  35
ATOM     35  O   UNL     1       0.981  10.837  -4.876  0.00  0.00    -0.383 OA
ATOM     36  H   UNL     1       0.163  10.310  -4.817  0.00  0.00    +0.210 HD
ENDBRANCH  30  35
BRANCH  27  37
ATOM     37  C   UNL     1       0.986  11.404   0.773  0.00  0.00    +0.190 C 
BRANCH  37  38
ATOM     38  O   UNL     1       2.321  11.807   1.048  0.00  0.00    -0.392 OA
ATOM     39  H   UNL     1       2.868  11.452   0.319  0.00  0.00    +0.210 HD
ENDBRANCH  37  38
ENDBRANCH  27  37
ENDBRANCH  24  25
ENDBRANCH   6  24
BRANCH   1  40
ATOM     40  O   UNL     1       3.066   1.594  -3.377  0.00  0.00    -0.461 OA
BRANCH  40  44
ATOM     41  C   UNL     1      -0.570  -0.120  -1.841  0.00  0.00    +0.041 C 
ATOM     42  C   UNL     1       0.808  -0.344  -1.222  0.00  0.00    +0.150 C 
ATOM     43  O   UNL     1       1.721   0.674  -1.663  0.00  0.00    -0.334 OA
ATOM     44  C   UNL     1       2.119   0.576  -3.035  0.00  0.00    +0.339 C 
ATOM     45  C   UNL     1       2.836  -0.778  -3.252  0.00  0.00    +0.214 C 
ATOM     46  C   UNL     1       1.848  -1.906  -2.925  0.00  0.00    +0.180 C 
ATOM     47  C   UNL     1       1.342  -1.767  -1.478  0.00  0.00    +0.174 C 
BRANCH  47  48
ATOM     48  O   UNL     1       2.393  -2.062  -0.547  0.00  0.00    -0.387 OA
ATOM     49  H   UNL     1       3.184  -1.557  -0.840  0.00  0.00    +0.210 HD
ENDBRANCH  47  48
BRANCH  46  50
ATOM     50  O   UNL     1       2.431  -3.188  -3.174  0.00  0.00    -0.386 OA
ATOM     51  H   UNL     1       2.237  -3.761  -2.409  0.00  0.00    +0.210 HD
ENDBRANCH  46  50
BRANCH  45  52
ATOM     52  O   UNL     1       3.980  -0.863  -2.366  0.00  0.00    -0.383 OA
ATOM     53  H   UNL     1       4.313   0.050  -2.260  0.00  0.00    +0.210 HD
ENDBRANCH  45  52
ENDBRANCH  40  44
ENDBRANCH   1  40
TORSDOF 16
