REMARK  Name = 
REMARK  13 active torsions:
REMARK  status: ('A' for Active; 'I' for Inactive)
REMARK    1  A    between atoms: C_1  and  C_2
REMARK    2  A    between atoms: C_2  and  C_3
REMARK    3  A    between atoms: C_2  and  C_4
REMARK    4  A    between atoms: C_4  and  C_5
REMARK    5  A    between atoms: C_5  and  O_7
REMARK    6  A    between atoms: O_7  and  C_8
REMARK    7  A    between atoms: C_9  and  O_29
REMARK    8  A    between atoms: C_11  and  C_14
REMARK    9  A    between atoms: C_15  and  O_27
REMARK   10  A    between atoms: C_19  and  O_26
REMARK   11  A    between atoms: C_21  and  O_25
REMARK   12  A    between atoms: O_27  and  C_28
REMARK   13  A    between atoms: O_29  and  C_30
REMARK                            x       y       z     vdW  Elec       q    Type
REMARK                         _______ _______ _______ _____ _____    ______ ____
ROOT
ATOM      1  C   UNL     1      10.799  -1.576   1.896  0.00  0.00    +0.181 A 
ATOM      2  O   UNL     1      11.379  -0.457   1.253  0.00  0.00    -0.451 OA
ATOM      3  C   UNL     1      12.689  -0.486   0.835  0.00  0.00    +0.147 A 
ATOM      4  C   UNL     1      13.507  -1.576   1.062  0.00  0.00    +0.109 A 
ATOM      5  C   UNL     1      14.840  -1.577   0.613  0.00  0.00    +0.135 A 
ATOM      6  C   UNL     1      15.361  -0.476  -0.053  0.00  0.00    +0.091 A 
ATOM      7  C   UNL     1      14.535   0.619  -0.275  0.00  0.00    +0.124 A 
ATOM      8  C   UNL     1      12.956  -2.719   1.769  0.00  0.00    +0.238 A 
ATOM      9  O   UNL     1      13.686  -3.690   1.972  0.00  0.00    -0.283 OA
ATOM     10  C   UNL     1      13.204   0.623   0.161  0.00  0.00    +0.092 A 
ATOM     11  C   UNL     1      11.520  -2.698   2.189  0.00  0.00    +0.211 A 
ENDROOT
BRANCH   1  15
ATOM     12  C   UNL     1       6.552  -1.021   2.430  0.00  0.00    +0.173 A 
ATOM     13  C   UNL     1       7.085  -2.267   2.110  0.00  0.00    +0.051 A 
ATOM     14  C   UNL     1       8.450  -2.403   1.890  0.00  0.00    +0.015 A 
ATOM     15  C   UNL     1       9.337  -1.349   2.100  0.00  0.00    +0.025 A 
ATOM     16  C   UNL     1       8.774  -0.069   2.362  0.00  0.00    +0.061 A 
ATOM     17  C   UNL     1       7.378   0.108   2.493  0.00  0.00    +0.163 A 
BRANCH  17  18
ATOM     18  O   UNL     1       6.726   1.304   2.658  0.00  0.00    -0.491 OA
ATOM     19  C   UNL     1       7.468   2.511   2.547  0.00  0.00    +0.277 C 
ENDBRANCH  17  18
BRANCH  12  20
ATOM     20  O   UNL     1       5.153  -0.890   2.497  0.00  0.00    -0.422 OA
BRANCH  20  21
ATOM     21  C   UNL     1       4.500  -1.845   3.273  0.00  0.00    +0.313 C 
ATOM     22  O   UNL     1       4.988  -2.496   4.189  0.00  0.00    -0.250 OA
BRANCH  21  23
ATOM     23  C   UNL     1       3.091  -2.037   2.758  0.00  0.00    +0.124 C 
BRANCH  23  25
ATOM     24  C   UNL     1       2.046  -0.452   4.411  0.00  0.00    +0.008 C 
ATOM     25  C   UNL     1       2.042  -1.878   3.860  0.00  0.00    -0.007 C 
ATOM     26  C   UNL     1       0.654  -2.232   3.323  0.00  0.00    +0.008 C 
ENDBRANCH  23  25
ENDBRANCH  21  23
ENDBRANCH  20  21
ENDBRANCH  12  20
ENDBRANCH   1  15
BRANCH   5  27
ATOM     27  O   UNL     1      15.692  -2.635   0.798  0.00  0.00    -0.506 OA
ATOM     28  H   UNL     1      15.198  -3.339   1.281  0.00  0.00    +0.292 HD
ENDBRANCH   5  27
BRANCH   7  29
ATOM     29  O   UNL     1      15.010   1.720  -0.929  0.00  0.00    -0.507 OA
ATOM     30  H   UNL     1      15.941   1.568  -1.162  0.00  0.00    +0.292 HD
ENDBRANCH   7  29
BRANCH  11  31
ATOM     31  O   UNL     1      11.223  -3.886   2.791  0.00  0.00    -0.488 OA
ATOM     32  C   UNL     1      10.121  -4.316   3.549  0.00  0.00    +0.277 C 
ENDBRANCH  11  31
TORSDOF 9
