REMARK  Name = 
REMARK  22 active torsions:
REMARK  status: ('A' for Active; 'I' for Inactive)
REMARK    1  A    between atoms: C_1  and  C_2
REMARK    2  A    between atoms: C_3  and  O_61
REMARK    3  A    between atoms: C_5  and  O_60
REMARK    4  A    between atoms: C_6  and  O_34
REMARK    5  A    between atoms: C_8  and  O_11
REMARK    6  A    between atoms: O_11  and  C_12
REMARK    7  A    between atoms: C_13  and  C_25
REMARK    8  A    between atoms: C_17  and  O_24
REMARK    9  A    between atoms: C_19  and  O_23
REMARK   10  A    between atoms: C_27  and  O_32
REMARK   11  A    between atoms: C_28  and  O_31
REMARK   12  A    between atoms: O_32  and  C_33
REMARK   13  A    between atoms: O_34  and  C_35
REMARK   14  A    between atoms: C_37  and  O_59
REMARK   15  A    between atoms: C_38  and  O_58
REMARK   16  A    between atoms: C_40  and  O_57
REMARK   17  A    between atoms: C_42  and  C_44
REMARK   18  A    between atoms: C_44  and  O_45
REMARK   19  A    between atoms: O_45  and  C_46
REMARK   20  A    between atoms: C_46  and  C_48
REMARK   21  A    between atoms: C_49  and  C_50
REMARK   22  A    between atoms: C_53  and  O_56
REMARK                            x       y       z     vdW  Elec       q    Type
REMARK                         _______ _______ _______ _____ _____    ______ ____
ROOT
ATOM      1  C   UNL     1       0.403   0.015   0.746  0.00  0.00    +0.041 C 
ATOM      2  C   UNL     1       1.919   0.068   0.589  0.00  0.00    +0.150 C 
ATOM      3  O   UNL     1       2.453   1.110  -0.245  0.00  0.00    -0.334 OA
ATOM      4  C   UNL     1       2.686   0.918  -1.674  0.00  0.00    +0.340 C 
ATOM      5  C   UNL     1       2.919  -0.595  -2.223  0.00  0.00    +0.221 C 
ATOM      6  C   UNL     1       2.060  -1.467  -1.313  0.00  0.00    +0.180 C 
ATOM      7  C   UNL     1       2.488  -1.260   0.168  0.00  0.00    +0.174 C 
ENDROOT
BRANCH   6   8
ATOM      8  O   UNL     1       1.880  -2.830  -1.679  0.00  0.00    -0.386 OA
ATOM      9  H   UNL     1       2.649  -3.145  -2.186  0.00  0.00    +0.210 HD
ENDBRANCH   6   8
BRANCH   7  10
ATOM     10  O   UNL     1       3.892  -1.062   0.455  0.00  0.00    -0.387 OA
ATOM     11  H   UNL     1       4.296  -0.561  -0.287  0.00  0.00    +0.210 HD
ENDBRANCH   7  10
BRANCH   5  12
ATOM     12  O   UNL     1       4.315  -1.022  -2.212  0.00  0.00    -0.337 OA
BRANCH  12  13
ATOM     13  C   UNL     1       4.633  -2.251  -2.936  0.00  0.00    +0.282 C 
ATOM     14  O   UNL     1       4.203  -3.454  -2.246  0.00  0.00    -0.339 OA
ATOM     15  C   UNL     1       4.739  -3.528  -0.903  0.00  0.00    +0.190 C 
ATOM     16  C   UNL     1       6.270  -3.516  -0.836  0.00  0.00    +0.178 C 
ATOM     17  C   UNL     1       6.907  -2.529  -1.848  0.00  0.00    +0.179 C 
ATOM     18  C   UNL     1       6.146  -2.457  -3.182  0.00  0.00    +0.201 C 
BRANCH  17  19
ATOM     19  O   UNL     1       6.991  -1.188  -1.330  0.00  0.00    -0.386 OA
ATOM     20  H   UNL     1       7.257  -1.227  -0.396  0.00  0.00    +0.210 HD
ENDBRANCH  17  19
BRANCH  16  21
ATOM     21  O   UNL     1       6.797  -4.820  -1.053  0.00  0.00    -0.386 OA
ATOM     22  H   UNL     1       7.585  -4.890  -0.480  0.00  0.00    +0.210 HD
ENDBRANCH  16  21
BRANCH  18  23
ATOM     23  O   UNL     1       6.707  -1.442  -4.022  0.00  0.00    -0.384 OA
ATOM     24  H   UNL     1       7.014  -0.745  -3.406  0.00  0.00    +0.210 HD
ENDBRANCH  18  23
BRANCH  15  25
ATOM     25  C   UNL     1       3.927  -4.500   0.002  0.00  0.00    +0.266 C 
BRANCH  25  26
ATOM     26  O   UNL     1       3.744  -4.048   1.377  0.00  0.00    -0.459 OA
BRANCH  26  27
ATOM     27  C   UNL     1       4.749  -4.269   2.252  0.00  0.00    +0.332 C 
ATOM     28  O   UNL     1       5.844  -4.713   1.963  0.00  0.00    -0.246 OA
BRANCH  27  29
ATOM     29  C   UNL     1       4.334  -3.911   3.628  0.00  0.00    +0.092 C 
ATOM     30  C   UNL     1       5.196  -4.057   4.651  0.00  0.00    +0.015 C 
BRANCH  30  31
ATOM     31  C   UNL     1       4.888  -3.847   6.075  0.00  0.00    -0.025 A 
ATOM     32  C   UNL     1       3.969  -2.896   6.535  0.00  0.00    +0.011 A 
ATOM     33  C   UNL     1       3.724  -2.763   7.909  0.00  0.00    +0.046 A 
ATOM     34  C   UNL     1       4.400  -3.557   8.824  0.00  0.00    +0.117 A 
ATOM     35  C   UNL     1       5.342  -4.479   8.392  0.00  0.00    +0.046 A 
ATOM     36  C   UNL     1       5.589  -4.616   7.021  0.00  0.00    +0.011 A 
BRANCH  34  37
ATOM     37  O   UNL     1       4.102  -3.399  10.144  0.00  0.00    -0.507 OA
ATOM     38  H   UNL     1       4.584  -4.068  10.658  0.00  0.00    +0.292 HD
ENDBRANCH  34  37
ENDBRANCH  30  31
ENDBRANCH  27  29
ENDBRANCH  26  27
ENDBRANCH  25  26
ENDBRANCH  15  25
ENDBRANCH  12  13
ENDBRANCH   5  12
BRANCH   4  39
ATOM     39  O   UNL     1       3.819   1.780  -2.015  0.00  0.00    -0.453 OA
BRANCH  39  40
ATOM     40  C   UNL     1       3.659   2.781  -2.972  0.00  0.00    +0.214 A 
ATOM     41  C   UNL     1       2.689   2.542  -4.113  0.00  0.00    +0.238 A 
ATOM     42  O   UNL     1       2.185   1.438  -4.287  0.00  0.00    -0.283 OA
ATOM     43  C   UNL     1       2.402   3.639  -5.049  0.00  0.00    +0.109 A 
ATOM     44  C   UNL     1       3.219   4.756  -4.969  0.00  0.00    +0.147 A 
ATOM     45  C   UNL     1       3.059   5.831  -5.857  0.00  0.00    +0.092 A 
ATOM     46  C   UNL     1       2.049   5.775  -6.811  0.00  0.00    +0.124 A 
ATOM     47  C   UNL     1       1.221   4.667  -6.909  0.00  0.00    +0.091 A 
ATOM     48  O   UNL     1       4.222   4.869  -4.048  0.00  0.00    -0.451 OA
ATOM     49  C   UNL     1       1.398   3.597  -6.030  0.00  0.00    +0.135 A 
ATOM     50  C   UNL     1       4.428   3.908  -3.041  0.00  0.00    +0.181 A 
BRANCH  50  51
ATOM     51  C   UNL     1       5.637   4.345  -2.195  0.00  0.00    +0.025 A 
ATOM     52  C   UNL     1       6.444   5.401  -2.715  0.00  0.00    +0.015 A 
ATOM     53  C   UNL     1       7.625   5.845  -2.111  0.00  0.00    +0.050 A 
ATOM     54  C   UNL     1       8.021   5.275  -0.925  0.00  0.00    +0.158 A 
ATOM     55  C   UNL     1       7.246   4.280  -0.318  0.00  0.00    +0.162 A 
ATOM     56  C   UNL     1       6.065   3.809  -0.957  0.00  0.00    +0.061 A 
BRANCH  55  57
ATOM     57  O   UNL     1       7.784   3.857   0.871  0.00  0.00    -0.491 OA
ATOM     58  C   UNL     1       6.929   3.154   1.755  0.00  0.00    +0.277 C 
ENDBRANCH  55  57
BRANCH  54  59
ATOM     59  O   UNL     1       9.180   5.727  -0.352  0.00  0.00    -0.503 OA
ATOM     60  H   UNL     1       9.261   5.239   0.490  0.00  0.00    +0.292 HD
ENDBRANCH  54  59
ENDBRANCH  50  51
BRANCH  49  61
ATOM     61  O   UNL     1       0.554   2.524  -6.145  0.00  0.00    -0.506 OA
ATOM     62  H   UNL     1       0.030   2.608  -6.957  0.00  0.00    +0.292 HD
ENDBRANCH  49  61
BRANCH  46  63
ATOM     63  O   UNL     1       1.837   6.804  -7.680  0.00  0.00    -0.507 OA
ATOM     64  H   UNL     1       2.418   7.552  -7.468  0.00  0.00    +0.292 HD
ENDBRANCH  46  63
ENDBRANCH  39  40
ENDBRANCH   4  39
TORSDOF 20
