REMARK  Name = 
REMARK  21 active torsions:
REMARK  status: ('A' for Active; 'I' for Inactive)
REMARK    1  A    between atoms: C_1  and  C_2
REMARK    2  A    between atoms: C_3  and  O_52
REMARK    3  A    between atoms: C_5  and  O_48
REMARK    4  A    between atoms: C_6  and  O_47
REMARK    5  A    between atoms: C_8  and  O_11
REMARK    6  A    between atoms: O_11  and  C_12
REMARK    7  A    between atoms: C_12  and  C_13
REMARK    8  A    between atoms: C_14  and  O_46
REMARK    9  A    between atoms: C_16  and  O_45
REMARK   10  A    between atoms: C_18  and  O_44
REMARK   11  A    between atoms: C_19  and  O_22
REMARK   12  A    between atoms: O_22  and  C_23
REMARK   13  A    between atoms: C_24  and  C_36
REMARK   14  A    between atoms: C_28  and  O_35
REMARK   15  A    between atoms: C_30  and  O_34
REMARK   16  A    between atoms: C_38  and  O_43
REMARK   17  A    between atoms: C_39  and  O_42
REMARK   18  A    between atoms: O_48  and  C_49
REMARK   19  A    between atoms: C_49  and  C_51
REMARK   20  A    between atoms: O_52  and  C_53
REMARK   21  A    between atoms: C_53  and  C_55
REMARK                            x       y       z     vdW  Elec       q    Type
REMARK                         _______ _______ _______ _____ _____    ______ ____
ROOT
ATOM      1  C   UNL     1       3.140   3.929  -4.392  0.00  0.00    +0.179 C 
ATOM      2  O   UNL     1       3.617   4.930  -3.470  0.00  0.00    -0.331 OA
ATOM      3  C   UNL     1       2.655   5.866  -2.911  0.00  0.00    +0.340 C 
ATOM      4  C   UNL     1       1.817   6.525  -4.041  0.00  0.00    +0.214 C 
ATOM      5  C   UNL     1       1.112   5.394  -4.791  0.00  0.00    +0.180 C 
ATOM      6  C   UNL     1       2.167   4.509  -5.456  0.00  0.00    +0.177 C 
ENDROOT
BRANCH   6   7
ATOM      7  O   UNL     1       1.493   3.501  -6.221  0.00  0.00    -0.386 OA
ATOM      8  H   UNL     1       2.137   3.137  -6.855  0.00  0.00    +0.210 HD
ENDBRANCH   6   7
BRANCH   5   9
ATOM      9  O   UNL     1       0.207   5.891  -5.785  0.00  0.00    -0.386 OA
ATOM     10  H   UNL     1      -0.054   5.108  -6.307  0.00  0.00    +0.210 HD
ENDBRANCH   5   9
BRANCH   4  11
ATOM     11  O   UNL     1       2.641   7.285  -4.956  0.00  0.00    -0.383 OA
ATOM     12  H   UNL     1       3.571   7.049  -4.792  0.00  0.00    +0.210 HD
ENDBRANCH   4  11
BRANCH   3  13
ATOM     13  O   UNL     1       3.429   6.855  -2.211  0.00  0.00    -0.453 OA
BRANCH  13  14
ATOM     14  C   UNL     1       2.968   7.464  -1.051  0.00  0.00    +0.214 A 
ATOM     15  C   UNL     1       1.531   7.575  -0.693  0.00  0.00    +0.238 A 
ATOM     16  O   UNL     1       0.677   7.122  -1.422  0.00  0.00    -0.283 OA
ATOM     17  C   UNL     1       1.212   8.143   0.659  0.00  0.00    +0.109 A 
ATOM     18  C   UNL     1       2.256   8.658   1.426  0.00  0.00    +0.147 A 
ATOM     19  C   UNL     1       2.045   9.190   2.705  0.00  0.00    +0.092 A 
ATOM     20  C   UNL     1       0.763   9.183   3.229  0.00  0.00    +0.124 A 
ATOM     21  C   UNL     1      -0.297   8.660   2.495  0.00  0.00    +0.091 A 
ATOM     22  O   UNL     1       3.556   8.628   1.009  0.00  0.00    -0.451 OA
ATOM     23  C   UNL     1      -0.071   8.143   1.214  0.00  0.00    +0.135 A 
ATOM     24  C   UNL     1       3.847   7.927  -0.137  0.00  0.00    +0.181 A 
BRANCH  24  25
ATOM     25  C   UNL     1       5.230   7.457  -0.135  0.00  0.00    +0.025 A 
ATOM     26  C   UNL     1       5.454   6.189   0.434  0.00  0.00    +0.015 A 
ATOM     27  C   UNL     1       6.740   5.677   0.539  0.00  0.00    +0.050 A 
ATOM     28  C   UNL     1       7.793   6.403  -0.008  0.00  0.00    +0.158 A 
ATOM     29  C   UNL     1       7.565   7.647  -0.601  0.00  0.00    +0.159 A 
ATOM     30  C   UNL     1       6.295   8.206  -0.621  0.00  0.00    +0.060 A 
BRANCH  28  31
ATOM     31  O   UNL     1       9.048   5.867  -0.012  0.00  0.00    -0.503 OA
ATOM     32  H   UNL     1       8.935   4.911  -0.167  0.00  0.00    +0.292 HD
ENDBRANCH  28  31
BRANCH  29  33
ATOM     33  O   UNL     1       8.544   8.345  -1.249  0.00  0.00    -0.503 OA
ATOM     34  H   UNL     1       9.312   8.368  -0.655  0.00  0.00    +0.292 HD
ENDBRANCH  29  33
ENDBRANCH  24  25
BRANCH  23  35
ATOM     35  O   UNL     1      -1.121   7.601   0.531  0.00  0.00    -0.506 OA
ATOM     36  H   UNL     1      -1.952   7.756   1.011  0.00  0.00    +0.292 HD
ENDBRANCH  23  35
BRANCH  20  37
ATOM     37  O   UNL     1       0.497   9.663   4.476  0.00  0.00    -0.507 OA
ATOM     38  H   UNL     1       1.308  10.038   4.860  0.00  0.00    +0.292 HD
ENDBRANCH  20  37
ENDBRANCH  13  14
ENDBRANCH   3  13
BRANCH   1  39
ATOM     39  C   UNL     1       2.578   2.652  -3.706  0.00  0.00    +0.197 C 
BRANCH  39  40
ATOM     40  O   UNL     1       3.547   1.785  -3.122  0.00  0.00    -0.346 OA
BRANCH  40  44
ATOM     41  C   UNL     1       6.473   1.303  -0.019  0.00  0.00    +0.042 C 
ATOM     42  C   UNL     1       5.164   0.523  -0.120  0.00  0.00    +0.163 C 
ATOM     43  O   UNL     1       4.580   0.658  -1.424  0.00  0.00    -0.342 OA
ATOM     44  C   UNL     1       3.936   1.908  -1.757  0.00  0.00    +0.283 C 
ATOM     45  C   UNL     1       2.832   2.222  -0.703  0.00  0.00    +0.214 C 
ATOM     46  C   UNL     1       3.529   2.247   0.673  0.00  0.00    +0.253 C 
ATOM     47  C   UNL     1       4.177   0.886   1.009  0.00  0.00    +0.248 C 
BRANCH  45  48
ATOM     48  O   UNL     1       1.734   1.300  -0.742  0.00  0.00    -0.383 OA
ATOM     49  H   UNL     1       1.879   0.621  -0.056  0.00  0.00    +0.210 HD
ENDBRANCH  45  48
BRANCH  46  50
ATOM     50  O   UNL     1       2.636   2.675   1.720  0.00  0.00    -0.455 OA
BRANCH  50  51
ATOM     51  C   UNL     1       3.294   3.290   2.757  0.00  0.00    +0.304 C 
ATOM     52  C   UNL     1       2.339   3.819   3.787  0.00  0.00    +0.136 C 
ATOM     53  O   UNL     1       4.508   3.439   2.817  0.00  0.00    -0.251 OA
ENDBRANCH  50  51
ENDBRANCH  46  50
BRANCH  47  54
ATOM     54  O   UNL     1       3.147  -0.140   1.113  0.00  0.00    -0.455 OA
BRANCH  54  55
ATOM     55  C   UNL     1       3.501  -1.279   1.789  0.00  0.00    +0.304 C 
ATOM     56  C   UNL     1       2.405  -2.299   1.734  0.00  0.00    +0.136 C 
ATOM     57  O   UNL     1       4.585  -1.450   2.337  0.00  0.00    -0.251 OA
ENDBRANCH  54  55
ENDBRANCH  47  54
ENDBRANCH  40  44
ENDBRANCH  39  40
ENDBRANCH   1  39
TORSDOF 18
