REMARK  Name = 
REMARK  19 active torsions:
REMARK  status: ('A' for Active; 'I' for Inactive)
REMARK    1  A    between atoms: C_1  and  C_2
REMARK    2  A    between atoms: C_3  and  O_50
REMARK    3  A    between atoms: C_5  and  O_49
REMARK    4  A    between atoms: C_6  and  O_48
REMARK    5  A    between atoms: C_8  and  O_11
REMARK    6  A    between atoms: O_11  and  C_12
REMARK    7  A    between atoms: C_13  and  O_24
REMARK    8  A    between atoms: C_16  and  C_22
REMARK    9  A    between atoms: C_17  and  O_21
REMARK   10  A    between atoms: C_19  and  O_20
REMARK   11  A    between atoms: C_22  and  O_23
REMARK   12  A    between atoms: O_24  and  C_25
REMARK   13  A    between atoms: C_26  and  C_38
REMARK   14  A    between atoms: C_30  and  O_37
REMARK   15  A    between atoms: C_32  and  O_36
REMARK   16  A    between atoms: C_40  and  O_46
REMARK   17  A    between atoms: C_41  and  O_44
REMARK   18  A    between atoms: O_44  and  C_45
REMARK   19  A    between atoms: O_46  and  C_47
REMARK                            x       y       z     vdW  Elec       q    Type
REMARK                         _______ _______ _______ _____ _____    ______ ____
ROOT
ATOM      1  C   UNL     1       2.070   2.743  -3.192  0.00  0.00    +0.221 C 
ATOM      2  C   UNL     1       1.039   2.184  -4.202  0.00  0.00    +0.180 C 
ATOM      3  C   UNL     1       1.487   2.354  -5.662  0.00  0.00    +0.177 C 
ATOM      4  C   UNL     1       1.883   3.798  -5.944  0.00  0.00    +0.179 C 
ATOM      5  O   UNL     1       2.918   4.160  -5.037  0.00  0.00    -0.331 OA
ATOM      6  C   UNL     1       2.661   4.111  -3.640  0.00  0.00    +0.340 C 
ENDROOT
BRANCH   3   7
ATOM      7  O   UNL     1       2.615   1.506  -5.934  0.00  0.00    -0.386 OA
ATOM      8  H   UNL     1       3.351   1.796  -5.358  0.00  0.00    +0.210 HD
ENDBRANCH   3   7
BRANCH   2   9
ATOM      9  O   UNL     1      -0.260   2.766  -4.036  0.00  0.00    -0.386 OA
ATOM     10  H   UNL     1      -0.224   3.502  -3.401  0.00  0.00    +0.210 HD
ENDBRANCH   2   9
BRANCH   6  11
ATOM     11  O   UNL     1       1.877   5.211  -3.138  0.00  0.00    -0.453 OA
BRANCH  11  12
ATOM     12  C   UNL     1       2.568   6.415  -2.906  0.00  0.00    +0.214 A 
ATOM     13  C   UNL     1       3.814   6.786  -3.648  0.00  0.00    +0.238 A 
ATOM     14  O   UNL     1       4.295   6.083  -4.520  0.00  0.00    -0.283 OA
ATOM     15  C   UNL     1       4.472   8.057  -3.321  0.00  0.00    +0.109 A 
ATOM     16  C   UNL     1       3.822   8.915  -2.441  0.00  0.00    +0.147 A 
ATOM     17  C   UNL     1       4.355  10.186  -2.206  0.00  0.00    +0.092 A 
ATOM     18  C   UNL     1       5.545  10.564  -2.832  0.00  0.00    +0.124 A 
ATOM     19  C   UNL     1       6.226   9.694  -3.671  0.00  0.00    +0.091 A 
ATOM     20  O   UNL     1       2.675   8.568  -1.772  0.00  0.00    -0.451 OA
ATOM     21  C   UNL     1       5.692   8.432  -3.910  0.00  0.00    +0.135 A 
ATOM     22  C   UNL     1       2.115   7.313  -2.000  0.00  0.00    +0.181 A 
BRANCH  22  23
ATOM     23  C   UNL     1       0.956   7.011  -1.135  0.00  0.00    +0.025 A 
ATOM     24  C   UNL     1       1.132   6.245   0.029  0.00  0.00    +0.015 A 
ATOM     25  C   UNL     1       0.030   5.804   0.775  0.00  0.00    +0.050 A 
ATOM     26  C   UNL     1      -1.262   6.146   0.376  0.00  0.00    +0.162 A 
ATOM     27  C   UNL     1      -1.444   6.997  -0.733  0.00  0.00    +0.162 A 
ATOM     28  C   UNL     1      -0.339   7.416  -1.490  0.00  0.00    +0.061 A 
BRANCH  27  29
ATOM     29  O   UNL     1      -2.747   7.326  -1.008  0.00  0.00    -0.491 OA
ATOM     30  C   UNL     1      -2.979   8.477  -1.805  0.00  0.00    +0.277 C 
ENDBRANCH  27  29
BRANCH  26  31
ATOM     31  O   UNL     1      -2.415   5.682   0.955  0.00  0.00    -0.491 OA
ATOM     32  C   UNL     1      -2.344   5.130   2.258  0.00  0.00    +0.277 C 
ENDBRANCH  26  31
ENDBRANCH  22  23
BRANCH  21  33
ATOM     33  O   UNL     1       6.397   7.570  -4.702  0.00  0.00    -0.506 OA
ATOM     34  H   UNL     1       7.139   8.021  -5.133  0.00  0.00    +0.292 HD
ENDBRANCH  21  33
BRANCH  18  35
ATOM     35  O   UNL     1       6.102  11.789  -2.653  0.00  0.00    -0.507 OA
ATOM     36  H   UNL     1       5.517  12.327  -2.088  0.00  0.00    +0.292 HD
ENDBRANCH  18  35
ENDBRANCH  11  12
ENDBRANCH   6  11
BRANCH   4  37
ATOM     37  C   UNL     1       0.734   4.818  -5.959  0.00  0.00    +0.190 C 
BRANCH  37  38
ATOM     38  O   UNL     1       1.221   6.116  -6.311  0.00  0.00    -0.392 OA
ATOM     39  H   UNL     1       2.091   6.210  -5.875  0.00  0.00    +0.210 HD
ENDBRANCH  37  38
ENDBRANCH   4  37
BRANCH   1  40
ATOM     40  O   UNL     1       3.104   1.744  -3.026  0.00  0.00    -0.337 OA
BRANCH  40  44
ATOM     41  C   UNL     1       7.062   2.042  -1.462  0.00  0.00    +0.041 C 
ATOM     42  C   UNL     1       6.038   1.019  -0.967  0.00  0.00    +0.149 C 
ATOM     43  O   UNL     1       4.959   0.868  -1.908  0.00  0.00    -0.343 OA
ATOM     44  C   UNL     1       4.045   1.971  -1.964  0.00  0.00    +0.282 C 
ATOM     45  C   UNL     1       3.382   2.180  -0.585  0.00  0.00    +0.201 C 
ATOM     46  C   UNL     1       4.475   2.447   0.449  0.00  0.00    +0.179 C 
ATOM     47  C   UNL     1       5.521   1.325   0.452  0.00  0.00    +0.174 C 
BRANCH  47  48
ATOM     48  O   UNL     1       4.898   0.155   1.013  0.00  0.00    -0.387 OA
ATOM     49  H   UNL     1       4.187  -0.107   0.385  0.00  0.00    +0.210 HD
ENDBRANCH  47  48
BRANCH  46  50
ATOM     50  O   UNL     1       3.864   2.558   1.743  0.00  0.00    -0.386 OA
ATOM     51  H   UNL     1       3.901   1.653   2.121  0.00  0.00    +0.210 HD
ENDBRANCH  46  50
BRANCH  45  52
ATOM     52  O   UNL     1       2.615   1.020  -0.210  0.00  0.00    -0.384 OA
ATOM     53  H   UNL     1       2.053   1.287   0.540  0.00  0.00    +0.210 HD
ENDBRANCH  45  52
ENDBRANCH  40  44
ENDBRANCH   1  40
TORSDOF 16
