REMARK  Name = 
REMARK  23 active torsions:
REMARK  status: ('A' for Active; 'I' for Inactive)
REMARK    1  A    between atoms: C_1  and  C_2
REMARK    2  A    between atoms: C_3  and  O_63
REMARK    3  A    between atoms: C_5  and  O_62
REMARK    4  A    between atoms: C_6  and  O_61
REMARK    5  A    between atoms: C_8  and  O_11
REMARK    6  A    between atoms: O_11  and  C_12
REMARK    7  A    between atoms: C_12  and  C_13
REMARK    8  A    between atoms: C_14  and  O_60
REMARK    9  A    between atoms: C_16  and  O_59
REMARK   10  A    between atoms: C_18  and  O_58
REMARK   11  A    between atoms: C_19  and  O_22
REMARK   12  A    between atoms: O_22  and  C_23
REMARK   13  A    between atoms: C_23  and  C_24
REMARK   14  A    between atoms: C_25  and  O_57
REMARK   15  A    between atoms: C_27  and  O_56
REMARK   16  A    between atoms: C_29  and  O_55
REMARK   17  A    between atoms: C_30  and  O_33
REMARK   18  A    between atoms: O_33  and  C_34
REMARK   19  A    between atoms: C_35  and  C_47
REMARK   20  A    between atoms: C_39  and  O_46
REMARK   21  A    between atoms: C_41  and  O_45
REMARK   22  A    between atoms: C_49  and  O_54
REMARK   23  A    between atoms: C_50  and  O_53
REMARK                            x       y       z     vdW  Elec       q    Type
REMARK                         _______ _______ _______ _____ _____    ______ ____
ROOT
ATOM      1  C   UNL     1       4.803   7.646  -0.328  0.00  0.00    +0.179 C 
ATOM      2  O   UNL     1       4.727   8.901  -1.032  0.00  0.00    -0.331 OA
ATOM      3  C   UNL     1       5.126   8.795  -2.417  0.00  0.00    +0.340 C 
ATOM      4  C   UNL     1       6.620   8.376  -2.476  0.00  0.00    +0.214 C 
ATOM      5  C   UNL     1       6.805   7.047  -1.731  0.00  0.00    +0.180 C 
ATOM      6  C   UNL     1       6.266   7.169  -0.296  0.00  0.00    +0.177 C 
ENDROOT
BRANCH   6   7
ATOM      7  O   UNL     1       6.404   5.913   0.377  0.00  0.00    -0.386 OA
ATOM      8  H   UNL     1       6.287   6.089   1.329  0.00  0.00    +0.210 HD
ENDBRANCH   6   7
BRANCH   5   9
ATOM      9  O   UNL     1       8.179   6.642  -1.692  0.00  0.00    -0.386 OA
ATOM     10  H   UNL     1       8.209   5.878  -1.086  0.00  0.00    +0.210 HD
ENDBRANCH   5   9
BRANCH   4  11
ATOM     11  O   UNL     1       7.440   9.395  -1.855  0.00  0.00    -0.383 OA
ATOM     12  H   UNL     1       6.867   9.894  -1.244  0.00  0.00    +0.210 HD
ENDBRANCH   4  11
BRANCH   3  13
ATOM     13  O   UNL     1       4.962  10.080  -3.026  0.00  0.00    -0.453 OA
BRANCH  13  14
ATOM     14  C   UNL     1       4.822  10.190  -4.407  0.00  0.00    +0.214 A 
ATOM     15  C   UNL     1       4.799   8.980  -5.300  0.00  0.00    +0.238 A 
ATOM     16  O   UNL     1       4.845   7.844  -4.846  0.00  0.00    -0.283 OA
ATOM     17  C   UNL     1       4.730   9.193  -6.751  0.00  0.00    +0.109 A 
ATOM     18  C   UNL     1       4.611  10.499  -7.214  0.00  0.00    +0.147 A 
ATOM     19  C   UNL     1       4.539  10.750  -8.592  0.00  0.00    +0.092 A 
ATOM     20  C   UNL     1       4.581   9.682  -9.483  0.00  0.00    +0.124 A 
ATOM     21  C   UNL     1       4.707   8.373  -9.031  0.00  0.00    +0.091 A 
ATOM     22  O   UNL     1       4.584  11.587  -6.379  0.00  0.00    -0.451 OA
ATOM     23  C   UNL     1       4.788   8.130  -7.663  0.00  0.00    +0.135 A 
ATOM     24  C   UNL     1       4.709  11.404  -4.999  0.00  0.00    +0.181 A 
BRANCH  24  25
ATOM     25  C   UNL     1       4.729  12.703  -4.243  0.00  0.00    +0.025 A 
ATOM     26  C   UNL     1       5.278  13.865  -4.834  0.00  0.00    +0.015 A 
ATOM     27  C   UNL     1       5.314  15.090  -4.153  0.00  0.00    +0.050 A 
ATOM     28  C   UNL     1       4.807  15.168  -2.865  0.00  0.00    +0.158 A 
ATOM     29  C   UNL     1       4.259  14.047  -2.260  0.00  0.00    +0.159 A 
ATOM     30  C   UNL     1       4.202  12.831  -2.943  0.00  0.00    +0.060 A 
BRANCH  29  31
ATOM     31  O   UNL     1       3.784  14.180  -0.984  0.00  0.00    -0.503 OA
ATOM     32  H   UNL     1       3.480  13.305  -0.684  0.00  0.00    +0.292 HD
ENDBRANCH  29  31
BRANCH  28  33
ATOM     33  O   UNL     1       4.846  16.358  -2.192  0.00  0.00    -0.503 OA
ATOM     34  H   UNL     1       4.433  16.164  -1.330  0.00  0.00    +0.292 HD
ENDBRANCH  28  33
ENDBRANCH  24  25
BRANCH  23  35
ATOM     35  O   UNL     1       4.924   6.839  -7.241  0.00  0.00    -0.506 OA
ATOM     36  H   UNL     1       5.170   6.264  -7.982  0.00  0.00    +0.292 HD
ENDBRANCH  23  35
BRANCH  20  37
ATOM     37  O   UNL     1       4.504   9.863 -10.830  0.00  0.00    -0.507 OA
ATOM     38  H   UNL     1       4.387  10.807 -11.020  0.00  0.00    +0.292 HD
ENDBRANCH  20  37
ENDBRANCH  13  14
ENDBRANCH   3  13
BRANCH   1  39
ATOM     39  C   UNL     1       3.863   6.533  -0.862  0.00  0.00    +0.197 C 
BRANCH  39  40
ATOM     40  O   UNL     1       2.508   6.984  -0.959  0.00  0.00    -0.346 OA
BRANCH  40  43
ATOM     41  C   UNL     1       1.184   4.300  -3.071  0.00  0.00    +0.178 C 
ATOM     42  O   UNL     1       1.974   5.424  -2.635  0.00  0.00    -0.341 OA
ATOM     43  C   UNL     1       1.636   5.907  -1.326  0.00  0.00    +0.282 C 
ATOM     44  C   UNL     1       0.177   6.408  -1.342  0.00  0.00    +0.201 C 
ATOM     45  C   UNL     1      -0.724   5.218  -1.699  0.00  0.00    +0.179 C 
ATOM     46  C   UNL     1      -0.323   4.648  -3.065  0.00  0.00    +0.177 C 
BRANCH  46  47
ATOM     47  O   UNL     1      -1.190   3.551  -3.367  0.00  0.00    -0.386 OA
ATOM     48  H   UNL     1      -0.839   3.116  -4.168  0.00  0.00    +0.210 HD
ENDBRANCH  46  47
BRANCH  45  49
ATOM     49  O   UNL     1      -2.109   5.579  -1.704  0.00  0.00    -0.386 OA
ATOM     50  H   UNL     1      -2.552   4.893  -2.242  0.00  0.00    +0.210 HD
ENDBRANCH  45  49
BRANCH  44  51
ATOM     51  O   UNL     1       0.029   7.448  -2.332  0.00  0.00    -0.384 OA
ATOM     52  H   UNL     1       0.885   7.515  -2.798  0.00  0.00    +0.210 HD
ENDBRANCH  44  51
BRANCH  41  53
ATOM     53  C   UNL     1       1.576   3.046  -2.273  0.00  0.00    +0.197 C 
BRANCH  53  54
ATOM     54  O   UNL     1       0.942   1.883  -2.786  0.00  0.00    -0.346 OA
BRANCH  54  58
ATOM     55  C   UNL     1       2.933  -0.453   0.267  0.00  0.00    +0.041 C 
ATOM     56  C   UNL     1       3.053  -0.675  -1.239  0.00  0.00    +0.149 C 
ATOM     57  O   UNL     1       2.633   0.486  -1.967  0.00  0.00    -0.343 OA
ATOM     58  C   UNL     1       1.226   0.735  -1.978  0.00  0.00    +0.282 C 
ATOM     59  C   UNL     1       0.431  -0.461  -2.536  0.00  0.00    +0.201 C 
ATOM     60  C   UNL     1       0.797  -1.722  -1.748  0.00  0.00    +0.179 C 
ATOM     61  C   UNL     1       2.320  -1.930  -1.731  0.00  0.00    +0.174 C 
BRANCH  61  62
ATOM     62  O   UNL     1       2.745  -2.244  -3.071  0.00  0.00    -0.387 OA
ATOM     63  H   UNL     1       2.525  -1.457  -3.623  0.00  0.00    +0.210 HD
ENDBRANCH  61  62
BRANCH  60  64
ATOM     64  O   UNL     1       0.164  -2.856  -2.357  0.00  0.00    -0.386 OA
ATOM     65  H   UNL     1       0.820  -3.210  -2.995  0.00  0.00    +0.210 HD
ENDBRANCH  60  64
BRANCH  59  66
ATOM     66  O   UNL     1       0.741  -0.680  -3.931  0.00  0.00    -0.384 OA
ATOM     67  H   UNL     1       0.091  -1.341  -4.237  0.00  0.00    +0.210 HD
ENDBRANCH  59  66
ENDBRANCH  54  58
ENDBRANCH  53  54
ENDBRANCH  41  53
ENDBRANCH  40  43
ENDBRANCH  39  40
ENDBRANCH   1  39
TORSDOF 22
