REMARK  Name = 
REMARK  16 active torsions:
REMARK  status: ('A' for Active; 'I' for Inactive)
REMARK    1  A    between atoms: C_2  and  O_47
REMARK    2  A    between atoms: C_4  and  O_46
REMARK    3  A    between atoms: C_6  and  O_45
REMARK    4  A    between atoms: C_7  and  O_10
REMARK    5  A    between atoms: O_10  and  C_11
REMARK    6  A    between atoms: C_13  and  O_44
REMARK    7  A    between atoms: C_18  and  C_36
REMARK    8  A    between atoms: C_19  and  O_22
REMARK    9  A    between atoms: O_22  and  C_23
REMARK   10  A    between atoms: C_25  and  O_35
REMARK   11  A    between atoms: C_26  and  O_34
REMARK   12  A    between atoms: C_27  and  O_33
REMARK   13  A    between atoms: C_29  and  C_31
REMARK   14  A    between atoms: C_31  and  O_32
REMARK   15  A    between atoms: C_38  and  O_43
REMARK   16  A    between atoms: C_39  and  O_42
REMARK                            x       y       z     vdW  Elec       q    Type
REMARK                         _______ _______ _______ _____ _____    ______ ____
ROOT
ATOM      1  C   UNL     1       2.685  -2.512   0.008  0.00  0.00    +0.131 A 
ATOM      2  C   UNL     1       3.639  -1.551  -0.330  0.00  0.00    +0.093 A 
ATOM      3  C   UNL     1       4.904  -1.957  -0.778  0.00  0.00    +0.147 A 
ATOM      4  O   UNL     1       5.789  -0.974  -1.149  0.00  0.00    -0.451 OA
ATOM      5  C   UNL     1       7.120  -1.321  -1.372  0.00  0.00    +0.181 A 
ATOM      6  C   UNL     1       7.567  -2.596  -1.428  0.00  0.00    +0.214 A 
ATOM      7  C   UNL     1       6.527  -3.663  -1.450  0.00  0.00    +0.238 A 
ATOM      8  O   UNL     1       6.701  -4.729  -2.027  0.00  0.00    -0.283 OA
ATOM      9  C   UNL     1       5.216  -3.311  -0.874  0.00  0.00    +0.109 A 
ATOM     10  C   UNL     1       4.277  -4.266  -0.482  0.00  0.00    +0.135 A 
ATOM     11  C   UNL     1       3.018  -3.868  -0.037  0.00  0.00    +0.092 A 
ENDROOT
BRANCH   5  12
ATOM     12  C   UNL     1       7.995  -0.130  -1.580  0.00  0.00    +0.025 A 
ATOM     13  C   UNL     1       7.770   1.051  -0.846  0.00  0.00    +0.015 A 
ATOM     14  C   UNL     1       8.520   2.205  -1.079  0.00  0.00    +0.050 A 
ATOM     15  C   UNL     1       9.514   2.196  -2.045  0.00  0.00    +0.158 A 
ATOM     16  C   UNL     1       9.755   1.044  -2.792  0.00  0.00    +0.159 A 
ATOM     17  C   UNL     1       8.993  -0.105  -2.579  0.00  0.00    +0.060 A 
BRANCH  15  18
ATOM     18  O   UNL     1      10.241   3.324  -2.278  0.00  0.00    -0.503 OA
ATOM     19  H   UNL     1      10.855   3.086  -3.001  0.00  0.00    +0.292 HD
ENDBRANCH  15  18
BRANCH  16  20
ATOM     20  O   UNL     1      10.744   1.100  -3.731  0.00  0.00    -0.503 OA
ATOM     21  H   UNL     1      10.811   0.236  -4.173  0.00  0.00    +0.292 HD
ENDBRANCH  16  20
ENDBRANCH   5  12
BRANCH  10  22
ATOM     22  O   UNL     1       4.580  -5.597  -0.505  0.00  0.00    -0.506 OA
ATOM     23  H   UNL     1       3.781  -6.128  -0.359  0.00  0.00    +0.292 HD
ENDBRANCH  10  22
BRANCH   6  24
ATOM     24  O   UNL     1       8.921  -2.870  -1.492  0.00  0.00    -0.453 OA
BRANCH  24  25
ATOM     25  C   UNL     1       9.405  -4.187  -1.794  0.00  0.00    +0.340 C 
ATOM     26  O   UNL     1       9.189  -5.158  -0.765  0.00  0.00    -0.331 OA
ATOM     27  C   UNL     1       9.862  -4.952   0.479  0.00  0.00    +0.179 C 
ATOM     28  C   UNL     1      11.368  -4.684   0.305  0.00  0.00    +0.177 C 
ATOM     29  C   UNL     1      11.582  -3.590  -0.744  0.00  0.00    +0.180 C 
ATOM     30  C   UNL     1      10.919  -4.045  -2.053  0.00  0.00    +0.214 C 
BRANCH  28  31
ATOM     31  O   UNL     1      11.959  -4.346   1.566  0.00  0.00    -0.386 OA
ATOM     32  H   UNL     1      12.102  -3.381   1.586  0.00  0.00    +0.210 HD
ENDBRANCH  28  31
BRANCH  29  33
ATOM     33  O   UNL     1      12.973  -3.311  -0.919  0.00  0.00    -0.386 OA
ATOM     34  H   UNL     1      13.324  -3.907  -1.605  0.00  0.00    +0.210 HD
ENDBRANCH  29  33
BRANCH  30  35
ATOM     35  O   UNL     1      11.210  -3.123  -3.115  0.00  0.00    -0.383 OA
ATOM     36  H   UNL     1      11.350  -2.253  -2.700  0.00  0.00    +0.210 HD
ENDBRANCH  30  35
BRANCH  27  37
ATOM     37  C   UNL     1       9.657  -6.222   1.331  0.00  0.00    +0.190 C 
BRANCH  37  38
ATOM     38  O   UNL     1      10.233  -6.130   2.629  0.00  0.00    -0.392 OA
ATOM     39  H   UNL     1      11.122  -5.727   2.530  0.00  0.00    +0.210 HD
ENDBRANCH  37  38
ENDBRANCH  27  37
ENDBRANCH  24  25
ENDBRANCH   6  24
BRANCH   1  40
ATOM     40  O   UNL     1       1.414  -2.253   0.437  0.00  0.00    -0.461 OA
BRANCH  40  43
ATOM     41  C   UNL     1       0.351   1.215   0.287  0.00  0.00    +0.198 C 
ATOM     42  O   UNL     1       0.994   0.031   0.757  0.00  0.00    -0.337 OA
ATOM     43  C   UNL     1       0.765  -1.095  -0.106  0.00  0.00    +0.339 C 
ATOM     44  C   UNL     1      -0.755  -1.400  -0.156  0.00  0.00    +0.214 C 
ATOM     45  C   UNL     1      -1.488  -0.158  -0.683  0.00  0.00    +0.180 C 
ATOM     46  C   UNL     1      -1.167   1.050   0.202  0.00  0.00    +0.171 C 
BRANCH  46  47
ATOM     47  O   UNL     1      -1.779   2.214  -0.360  0.00  0.00    -0.387 OA
ATOM     48  H   UNL     1      -1.721   2.921   0.308  0.00  0.00    +0.210 HD
ENDBRANCH  46  47
BRANCH  45  49
ATOM     49  O   UNL     1      -2.904  -0.364  -0.740  0.00  0.00    -0.386 OA
ATOM     50  H   UNL     1      -3.298   0.523  -0.842  0.00  0.00    +0.210 HD
ENDBRANCH  45  49
BRANCH  44  51
ATOM     51  O   UNL     1      -1.248  -1.730   1.160  0.00  0.00    -0.383 OA
ATOM     52  H   UNL     1      -0.564  -1.463   1.801  0.00  0.00    +0.210 HD
ENDBRANCH  44  51
ENDBRANCH  40  43
ENDBRANCH   1  40
TORSDOF 16
