REMARK  Name = 
REMARK  27 active torsions:
REMARK  status: ('A' for Active; 'I' for Inactive)
REMARK    1  A    between atoms: C_1  and  C_2
REMARK    2  A    between atoms: C_3  and  O_73
REMARK    3  A    between atoms: C_5  and  O_72
REMARK    4  A    between atoms: C_7  and  O_71
REMARK    5  A    between atoms: C_8  and  O_11
REMARK    6  A    between atoms: O_11  and  C_12
REMARK    7  A    between atoms: C_14  and  O_70
REMARK    8  A    between atoms: C_19  and  C_62
REMARK    9  A    between atoms: C_20  and  O_23
REMARK   10  A    between atoms: O_23  and  C_24
REMARK   11  A    between atoms: C_26  and  O_61
REMARK   12  A    between atoms: C_27  and  O_60
REMARK   13  A    between atoms: C_28  and  O_59
REMARK   14  A    between atoms: C_30  and  C_32
REMARK   15  A    between atoms: C_32  and  O_33
REMARK   16  A    between atoms: O_33  and  C_34
REMARK   17  A    between atoms: C_36  and  O_58
REMARK   18  A    between atoms: C_37  and  O_57
REMARK   19  A    between atoms: C_38  and  O_56
REMARK   20  A    between atoms: C_40  and  C_43
REMARK   21  A    between atoms: C_43  and  O_44
REMARK   22  A    between atoms: O_44  and  C_45
REMARK   23  A    between atoms: C_45  and  C_47
REMARK   24  A    between atoms: C_48  and  C_49
REMARK   25  A    between atoms: C_52  and  O_55
REMARK   26  A    between atoms: C_64  and  O_69
REMARK   27  A    between atoms: C_65  and  O_68
REMARK                            x       y       z     vdW  Elec       q    Type
REMARK                         _______ _______ _______ _____ _____    ______ ____
ROOT
ATOM      1  C   UNL     1       1.379  10.031  -3.073  0.00  0.00    +0.340 C 
ATOM      2  O   UNL     1       1.374  10.462  -1.717  0.00  0.00    -0.331 OA
ATOM      3  C   UNL     1       0.697  11.656  -1.354  0.00  0.00    +0.179 C 
ATOM      4  C   UNL     1       0.905  12.793  -2.362  0.00  0.00    +0.177 C 
ATOM      5  C   UNL     1       0.533  12.315  -3.760  0.00  0.00    +0.180 C 
ATOM      6  C   UNL     1       1.378  11.116  -4.165  0.00  0.00    +0.214 C 
ENDROOT
BRANCH   6   7
ATOM      7  O   UNL     1       0.924  10.659  -5.457  0.00  0.00    -0.383 OA
ATOM      8  H   UNL     1       0.020  10.308  -5.335  0.00  0.00    +0.210 HD
ENDBRANCH   6   7
BRANCH   4   9
ATOM      9  O   UNL     1       2.280  13.212  -2.397  0.00  0.00    -0.386 OA
ATOM     10  H   UNL     1       2.333  13.854  -3.134  0.00  0.00    +0.210 HD
ENDBRANCH   4   9
BRANCH   5  11
ATOM     11  O   UNL     1       0.770  13.397  -4.683  0.00  0.00    -0.386 OA
ATOM     12  H   UNL     1       1.221  13.014  -5.463  0.00  0.00    +0.210 HD
ENDBRANCH   5  11
BRANCH   3  13
ATOM     13  C   UNL     1       1.267  12.002   0.033  0.00  0.00    +0.197 C 
BRANCH  13  14
ATOM     14  O   UNL     1       0.595  13.091   0.680  0.00  0.00    -0.346 OA
BRANCH  14  15
ATOM     15  C   UNL     1       1.387  13.553   1.794  0.00  0.00    +0.282 C 
ATOM     16  O   UNL     1       1.605  12.543   2.774  0.00  0.00    -0.339 OA
ATOM     17  C   UNL     1       0.420  12.125   3.478  0.00  0.00    +0.190 C 
ATOM     18  C   UNL     1      -0.291  13.291   4.167  0.00  0.00    +0.178 C 
ATOM     19  C   UNL     1      -0.532  14.438   3.188  0.00  0.00    +0.179 C 
ATOM     20  C   UNL     1       0.755  14.800   2.437  0.00  0.00    +0.201 C 
BRANCH  18  21
ATOM     21  O   UNL     1       0.496  13.783   5.263  0.00  0.00    -0.386 OA
ATOM     22  H   UNL     1       0.016  14.575   5.581  0.00  0.00    +0.210 HD
ENDBRANCH  18  21
BRANCH  19  23
ATOM     23  O   UNL     1      -1.006  15.564   3.954  0.00  0.00    -0.386 OA
ATOM     24  H   UNL     1      -0.502  16.344   3.650  0.00  0.00    +0.210 HD
ENDBRANCH  19  23
BRANCH  20  25
ATOM     25  O   UNL     1       0.466  15.823   1.474  0.00  0.00    -0.384 OA
ATOM     26  H   UNL     1       0.052  15.374   0.712  0.00  0.00    +0.210 HD
ENDBRANCH  20  25
BRANCH  17  27
ATOM     27  C   UNL     1       0.853  11.068   4.511  0.00  0.00    +0.266 C 
BRANCH  27  28
ATOM     28  O   UNL     1       1.435   9.947   3.825  0.00  0.00    -0.459 OA
BRANCH  28  29
ATOM     29  C   UNL     1       0.527   9.158   3.218  0.00  0.00    +0.332 C 
ATOM     30  O   UNL     1      -0.674   9.135   3.419  0.00  0.00    -0.246 OA
BRANCH  29  31
ATOM     31  C   UNL     1       1.221   8.461   2.124  0.00  0.00    +0.092 C 
ATOM     32  C   UNL     1       0.474   7.910   1.158  0.00  0.00    +0.015 C 
BRANCH  32  33
ATOM     33  C   UNL     1       1.004   7.215  -0.014  0.00  0.00    -0.025 A 
ATOM     34  C   UNL     1       0.102   6.504  -0.816  0.00  0.00    +0.011 A 
ATOM     35  C   UNL     1       0.557   5.746  -1.892  0.00  0.00    +0.046 A 
ATOM     36  C   UNL     1       1.913   5.721  -2.177  0.00  0.00    +0.117 A 
ATOM     37  C   UNL     1       2.817   6.472  -1.437  0.00  0.00    +0.046 A 
ATOM     38  C   UNL     1       2.361   7.224  -0.360  0.00  0.00    +0.011 A 
BRANCH  36  39
ATOM     39  O   UNL     1       2.337   5.002  -3.252  0.00  0.00    -0.507 OA
ATOM     40  H   UNL     1       3.206   5.367  -3.501  0.00  0.00    +0.292 HD
ENDBRANCH  36  39
ENDBRANCH  32  33
ENDBRANCH  29  31
ENDBRANCH  28  29
ENDBRANCH  27  28
ENDBRANCH  17  27
ENDBRANCH  14  15
ENDBRANCH  13  14
ENDBRANCH   3  13
BRANCH   1  41
ATOM     41  O   UNL     1       0.345   9.066  -3.313  0.00  0.00    -0.453 OA
BRANCH  41  47
ATOM     42  C   UNL     1       2.566   4.650  -7.513  0.00  0.00    +0.131 A 
ATOM     43  C   UNL     1       1.271   5.014  -7.109  0.00  0.00    +0.093 A 
ATOM     44  C   UNL     1       1.087   6.058  -6.193  0.00  0.00    +0.147 A 
ATOM     45  O   UNL     1      -0.192   6.340  -5.771  0.00  0.00    -0.451 OA
ATOM     46  C   UNL     1      -0.406   7.337  -4.810  0.00  0.00    +0.181 A 
ATOM     47  C   UNL     1       0.602   8.058  -4.253  0.00  0.00    +0.214 A 
ATOM     48  C   UNL     1       2.003   7.698  -4.647  0.00  0.00    +0.238 A 
ATOM     49  O   UNL     1       3.006   8.096  -4.064  0.00  0.00    -0.283 OA
ATOM     50  C   UNL     1       2.201   6.709  -5.696  0.00  0.00    +0.109 A 
ATOM     51  C   UNL     1       3.499   6.319  -6.079  0.00  0.00    +0.135 A 
ATOM     52  C   UNL     1       3.677   5.300  -6.987  0.00  0.00    +0.092 A 
BRANCH  46  53
ATOM     53  C   UNL     1      -1.865   7.531  -4.468  0.00  0.00    +0.025 A 
ATOM     54  C   UNL     1      -2.848   7.256  -5.444  0.00  0.00    +0.015 A 
ATOM     55  C   UNL     1      -4.219   7.389  -5.175  0.00  0.00    +0.050 A 
ATOM     56  C   UNL     1      -4.632   7.787  -3.917  0.00  0.00    +0.158 A 
ATOM     57  C   UNL     1      -3.698   8.052  -2.925  0.00  0.00    +0.159 A 
ATOM     58  C   UNL     1      -2.332   7.925  -3.193  0.00  0.00    +0.060 A 
BRANCH  57  59
ATOM     59  O   UNL     1      -4.176   8.431  -1.700  0.00  0.00    -0.503 OA
ATOM     60  H   UNL     1      -3.430   8.538  -1.086  0.00  0.00    +0.292 HD
ENDBRANCH  57  59
BRANCH  56  61
ATOM     61  O   UNL     1      -5.967   7.902  -3.657  0.00  0.00    -0.503 OA
ATOM     62  H   UNL     1      -6.015   8.174  -2.718  0.00  0.00    +0.292 HD
ENDBRANCH  56  61
ENDBRANCH  46  53
BRANCH  51  63
ATOM     63  O   UNL     1       4.621   6.870  -5.522  0.00  0.00    -0.506 OA
ATOM     64  H   UNL     1       5.406   6.332  -5.717  0.00  0.00    +0.292 HD
ENDBRANCH  51  63
BRANCH  42  65
ATOM     65  O   UNL     1       2.930   3.663  -8.379  0.00  0.00    -0.461 OA
BRANCH  65  69
ATOM     66  C   UNL     1      -1.019   2.262  -9.281  0.00  0.00    +0.041 C 
ATOM     67  C   UNL     1       0.138   1.371  -8.832  0.00  0.00    +0.150 C 
ATOM     68  O   UNL     1       1.154   2.165  -8.207  0.00  0.00    -0.334 OA
ATOM     69  C   UNL     1       1.902   2.994  -9.098  0.00  0.00    +0.339 C 
ATOM     70  C   UNL     1       2.629   2.123 -10.135  0.00  0.00    +0.214 C 
ATOM     71  C   UNL     1       1.569   1.352 -10.927  0.00  0.00    +0.180 C 
ATOM     72  C   UNL     1       0.707   0.505  -9.972  0.00  0.00    +0.174 C 
BRANCH  70  73
ATOM     73  O   UNL     1       3.511   1.197  -9.450  0.00  0.00    -0.383 OA
ATOM     74  H   UNL     1       3.832   1.670  -8.655  0.00  0.00    +0.210 HD
ENDBRANCH  70  73
BRANCH  71  75
ATOM     75  O   UNL     1       2.171   0.568 -11.959  0.00  0.00    -0.386 OA
ATOM     76  H   UNL     1       1.805  -0.334 -11.901  0.00  0.00    +0.210 HD
ENDBRANCH  71  75
BRANCH  72  77
ATOM     77  O   UNL     1       1.485  -0.564  -9.413  0.00  0.00    -0.387 OA
ATOM     78  H   UNL     1       2.319  -0.165  -9.078  0.00  0.00    +0.210 HD
ENDBRANCH  72  77
ENDBRANCH  65  69
ENDBRANCH  42  65
ENDBRANCH  41  47
ENDBRANCH   1  41
TORSDOF 26
