REMARK  Name = 
REMARK  15 active torsions:
REMARK  status: ('A' for Active; 'I' for Inactive)
REMARK    1  A    between atoms: C_1  and  C_2
REMARK    2  A    between atoms: C_3  and  O_35
REMARK    3  A    between atoms: C_5  and  O_34
REMARK    4  A    between atoms: C_6  and  O_33
REMARK    5  A    between atoms: C_8  and  O_11
REMARK    6  A    between atoms: O_11  and  C_12
REMARK    7  A    between atoms: C_13  and  C_25
REMARK    8  A    between atoms: C_17  and  O_24
REMARK    9  A    between atoms: C_19  and  O_23
REMARK   10  A    between atoms: C_27  and  O_32
REMARK   11  A    between atoms: C_28  and  O_31
REMARK   12  A    between atoms: O_35  and  C_36
REMARK   13  A    between atoms: C_36  and  C_38
REMARK   14  A    between atoms: C_38  and  C_39
REMARK   15  A    between atoms: C_39  and  O_41
REMARK                            x       y       z     vdW  Elec       q    Type
REMARK                         _______ _______ _______ _____ _____    ______ ____
ROOT
ATOM      1  C   UNL     1       2.664   2.774  -3.260  0.00  0.00    +0.214 A 
ATOM      2  C   UNL     1       1.760   3.220  -2.144  0.00  0.00    +0.238 A 
ATOM      3  O   UNL     1       1.179   2.431  -1.406  0.00  0.00    -0.283 OA
ATOM      4  C   UNL     1       1.519   4.645  -1.972  0.00  0.00    +0.109 A 
ATOM      5  C   UNL     1       1.989   5.501  -2.958  0.00  0.00    +0.147 A 
ATOM      6  C   UNL     1       1.702   6.866  -2.868  0.00  0.00    +0.092 A 
ATOM      7  C   UNL     1       0.946   7.342  -1.792  0.00  0.00    +0.124 A 
ATOM      8  C   UNL     1       0.486   6.491  -0.796  0.00  0.00    +0.091 A 
ATOM      9  O   UNL     1       2.719   5.069  -4.039  0.00  0.00    -0.451 OA
ATOM     10  C   UNL     1       0.783   5.141  -0.879  0.00  0.00    +0.135 A 
ATOM     11  C   UNL     1       3.056   3.717  -4.152  0.00  0.00    +0.181 A 
ENDROOT
BRANCH  11  12
ATOM     12  C   UNL     1       3.900   3.415  -5.354  0.00  0.00    +0.025 A 
ATOM     13  C   UNL     1       4.839   4.354  -5.832  0.00  0.00    +0.015 A 
ATOM     14  C   UNL     1       5.653   4.082  -6.944  0.00  0.00    +0.050 A 
ATOM     15  C   UNL     1       5.534   2.865  -7.592  0.00  0.00    +0.158 A 
ATOM     16  C   UNL     1       4.594   1.933  -7.168  0.00  0.00    +0.159 A 
ATOM     17  C   UNL     1       3.766   2.208  -6.076  0.00  0.00    +0.060 A 
BRANCH  15  18
ATOM     18  O   UNL     1       6.348   2.579  -8.651  0.00  0.00    -0.503 OA
ATOM     19  H   UNL     1       6.108   1.666  -8.909  0.00  0.00    +0.292 HD
ENDBRANCH  15  18
BRANCH  16  20
ATOM     20  O   UNL     1       4.514   0.749  -7.849  0.00  0.00    -0.503 OA
ATOM     21  H   UNL     1       3.848   0.196  -7.401  0.00  0.00    +0.292 HD
ENDBRANCH  16  20
ENDBRANCH  11  12
BRANCH   7  22
ATOM     22  O   UNL     1       0.620   8.659  -1.665  0.00  0.00    -0.507 OA
ATOM     23  H   UNL     1       0.969   9.149  -2.427  0.00  0.00    +0.292 HD
ENDBRANCH   7  22
BRANCH  10  24
ATOM     24  O   UNL     1       0.360   4.315   0.124  0.00  0.00    -0.506 OA
ATOM     25  H   UNL     1      -0.267   4.774   0.705  0.00  0.00    +0.292 HD
ENDBRANCH  10  24
BRANCH   1  26
ATOM     26  O   UNL     1       3.066   1.441  -3.389  0.00  0.00    -0.453 OA
BRANCH  26  30
ATOM     27  C   UNL     1       2.988  -1.086   0.040  0.00  0.00    +0.042 C 
ATOM     28  C   UNL     1       2.848  -1.627  -1.390  0.00  0.00    +0.163 C 
ATOM     29  O   UNL     1       3.317  -0.695  -2.388  0.00  0.00    -0.333 OA
ATOM     30  C   UNL     1       2.494   0.486  -2.481  0.00  0.00    +0.340 C 
ATOM     31  C   UNL     1       1.048   0.109  -2.909  0.00  0.00    +0.215 C 
ATOM     32  C   UNL     1       0.478  -0.881  -1.881  0.00  0.00    +0.192 C 
ATOM     33  C   UNL     1       1.411  -2.091  -1.702  0.00  0.00    +0.236 C 
BRANCH  31  34
ATOM     34  O   UNL     1       1.021  -0.442  -4.247  0.00  0.00    -0.383 OA
ATOM     35  H   UNL     1       0.088  -0.681  -4.407  0.00  0.00    +0.210 HD
ENDBRANCH  31  34
BRANCH  32  36
ATOM     36  O   UNL     1      -0.830  -1.311  -2.298  0.00  0.00    -0.385 OA
ATOM     37  H   UNL     1      -0.705  -2.039  -2.942  0.00  0.00    +0.210 HD
ENDBRANCH  32  36
BRANCH  33  38
ATOM     38  O   UNL     1       1.353  -2.779  -2.974  0.00  0.00    -0.456 OA
BRANCH  38  39
ATOM     39  C   UNL     1       1.921  -3.988  -3.127  0.00  0.00    +0.318 C 
ATOM     40  O   UNL     1       2.560  -4.577  -2.266  0.00  0.00    -0.250 OA
BRANCH  39  41
ATOM     41  C   UNL     1       1.758  -4.485  -4.532  0.00  0.00    +0.240 C 
BRANCH  41  42
ATOM     42  C   UNL     1       0.432  -4.177  -5.172  0.00  0.00    +0.316 C 
ATOM     43  O   UNL     1      -0.499  -3.571  -4.662  0.00  0.00    -0.250 OA
BRANCH  42  44
ATOM     44  O   UNL     1       0.344  -4.672  -6.433  0.00  0.00    -0.480 OA
ATOM     45  H   UNL     1       1.136  -5.152  -6.743  0.00  0.00    +0.295 HD
ENDBRANCH  42  44
ENDBRANCH  41  42
ENDBRANCH  39  41
ENDBRANCH  38  39
ENDBRANCH  33  38
ENDBRANCH  26  30
ENDBRANCH   1  26
TORSDOF 14
