REMARK  Name = 
REMARK  10 active torsions:
REMARK  status: ('A' for Active; 'I' for Inactive)
REMARK    1  A    between atoms: C_3  and  O_26
REMARK    2  A    between atoms: C_4  and  O_25
REMARK    3  A    between atoms: C_6  and  C_7
REMARK    4  A    between atoms: C_8  and  O_24
REMARK    5  A    between atoms: C_12  and  O_23
REMARK    6  A    between atoms: C_14  and  O_18
REMARK    7  A    between atoms: O_18  and  S_19
REMARK    8  A    between atoms: S_19  and  O_22
REMARK    9  A    between atoms: O_26  and  S_27
REMARK   10  A    between atoms: S_27  and  O_30
REMARK                            x       y       z     vdW  Elec       q    Type
REMARK                         _______ _______ _______ _____ _____    ______ ____
ROOT
ATOM      1  C   UNL     1      -1.458  -2.546  -0.232  0.00  0.00    +0.181 A 
ATOM      2  O   UNL     1      -0.728  -3.715   0.001  0.00  0.00    -0.451 OA
ATOM      3  C   UNL     1      -1.335  -4.934  -0.177  0.00  0.00    +0.147 A 
ATOM      4  C   UNL     1      -2.683  -5.060  -0.484  0.00  0.00    +0.109 A 
ATOM      5  C   UNL     1      -3.263  -6.328  -0.606  0.00  0.00    +0.135 A 
ATOM      6  C   UNL     1      -2.488  -7.473  -0.459  0.00  0.00    +0.095 A 
ATOM      7  C   UNL     1      -1.123  -7.355  -0.201  0.00  0.00    +0.163 A 
ATOM      8  C   UNL     1      -3.469  -3.848  -0.696  0.00  0.00    +0.238 A 
ATOM      9  O   UNL     1      -4.668  -3.929  -0.950  0.00  0.00    -0.283 OA
ATOM     10  C   UNL     1      -0.551  -6.085  -0.033  0.00  0.00    +0.095 A 
ATOM     11  C   UNL     1      -2.754  -2.547  -0.620  0.00  0.00    +0.208 A 
ENDROOT
BRANCH   1  13
ATOM     12  C   UNL     1       0.724  -1.297  -0.176  0.00  0.00    +0.015 A 
ATOM     13  C   UNL     1      -0.667  -1.306   0.025  0.00  0.00    +0.025 A 
ATOM     14  C   UNL     1      -1.251  -0.138   0.544  0.00  0.00    +0.061 A 
ATOM     15  C   UNL     1      -0.476   0.986   0.829  0.00  0.00    +0.162 A 
ATOM     16  C   UNL     1       0.907   0.967   0.669  0.00  0.00    +0.200 A 
ATOM     17  C   UNL     1       1.506  -0.174   0.141  0.00  0.00    +0.053 A 
BRANCH  15  18
ATOM     18  O   UNL     1      -1.124   2.100   1.285  0.00  0.00    -0.503 OA
ATOM     19  H   UNL     1      -0.468   2.817   1.349  0.00  0.00    +0.292 HD
ENDBRANCH  15  18
BRANCH  16  20
ATOM     20  O   UNL     1       1.587   2.101   1.031  0.00  0.00    -0.321 OA
BRANCH  20  21
ATOM     21  S   UNL     1       3.075   2.002   1.696  0.00  0.00    +0.251 S 
ATOM     22  O   UNL     1       4.053   1.800   0.650  0.00  0.00    -0.108 OA
ATOM     23  O   UNL     1       3.019   1.159   2.869  0.00  0.00    -0.108 OA
BRANCH  21  24
ATOM     24  O   UNL     1       3.295   3.489   2.278  0.00  0.00    -0.222 OA
ATOM     25  H   UNL     1       3.189   3.434   3.251  0.00  0.00    +0.248 HD
ENDBRANCH  21  24
ENDBRANCH  20  21
ENDBRANCH  16  20
ENDBRANCH   1  13
BRANCH   5  26
ATOM     26  O   UNL     1      -4.592  -6.516  -0.877  0.00  0.00    -0.506 OA
ATOM     27  H   UNL     1      -5.007  -5.632  -0.996  0.00  0.00    +0.292 HD
ENDBRANCH   5  26
BRANCH  11  28
ATOM     28  O   UNL     1      -3.489  -1.429  -0.964  0.00  0.00    -0.501 OA
ATOM     29  H   UNL     1      -2.884  -0.761  -1.322  0.00  0.00    +0.292 HD
ENDBRANCH  11  28
BRANCH   7  30
ATOM     30  O   UNL     1      -0.271  -8.423  -0.061  0.00  0.00    -0.347 OA
BRANCH  30  31
ATOM     31  S   UNL     1      -0.496  -9.847  -0.798  0.00  0.00    +0.108 S 
ATOM     32  S   UNL     1      -0.355  -9.771  -2.621  0.00  0.00    +0.118 S 
ATOM     33  O   UNL     1      -1.751 -10.431  -0.401  0.00  0.00    -0.138 OA
BRANCH  31  34
ATOM     34  O   UNL     1       0.600 -10.868  -0.217  0.00  0.00    -0.247 OA
ATOM     35  H   UNL     1       0.119 -11.579   0.258  0.00  0.00    +0.245 HD
ENDBRANCH  31  34
ENDBRANCH  30  31
ENDBRANCH   7  30
TORSDOF 10
