REMARK  Name = 
REMARK  22 active torsions:
REMARK  status: ('A' for Active; 'I' for Inactive)
REMARK    1  A    between atoms: C_2  and  O_61
REMARK    2  A    between atoms: C_4  and  O_60
REMARK    3  A    between atoms: C_5  and  O_59
REMARK    4  A    between atoms: C_7  and  O_10
REMARK    5  A    between atoms: O_10  and  C_11
REMARK    6  A    between atoms: C_12  and  O_23
REMARK    7  A    between atoms: C_15  and  C_21
REMARK    8  A    between atoms: C_16  and  O_20
REMARK    9  A    between atoms: C_18  and  O_19
REMARK   10  A    between atoms: C_21  and  O_22
REMARK   11  A    between atoms: O_23  and  C_24
REMARK   12  A    between atoms: C_25  and  C_51
REMARK   13  A    between atoms: C_29  and  O_36
REMARK   14  A    between atoms: C_31  and  O_35
REMARK   15  A    between atoms: O_36  and  C_37
REMARK   16  A    between atoms: C_39  and  O_50
REMARK   17  A    between atoms: C_40  and  O_49
REMARK   18  A    between atoms: C_42  and  O_48
REMARK   19  A    between atoms: C_44  and  C_46
REMARK   20  A    between atoms: C_46  and  O_47
REMARK   21  A    between atoms: C_53  and  O_58
REMARK   22  A    between atoms: C_54  and  O_57
REMARK                            x       y       z     vdW  Elec       q    Type
REMARK                         _______ _______ _______ _____ _____    ______ ____
ROOT
ATOM      1  C   UNL     1       5.316  -4.519  -0.216  0.00  0.00    +0.214 A 
ATOM      2  C   UNL     1       6.728  -4.391  -0.721  0.00  0.00    +0.238 A 
ATOM      3  O   UNL     1       6.947  -3.739  -1.735  0.00  0.00    -0.283 OA
ATOM      4  C   UNL     1       7.777  -5.086   0.052  0.00  0.00    +0.109 A 
ATOM      5  C   UNL     1       7.457  -5.477   1.346  0.00  0.00    +0.147 A 
ATOM      6  C   UNL     1       8.406  -6.088   2.171  0.00  0.00    +0.093 A 
ATOM      7  C   UNL     1       9.650  -6.454   1.658  0.00  0.00    +0.131 A 
ATOM      8  C   UNL     1       9.976  -6.075   0.350  0.00  0.00    +0.092 A 
ATOM      9  O   UNL     1       6.193  -5.350   1.863  0.00  0.00    -0.451 OA
ATOM     10  C   UNL     1       9.053  -5.372  -0.438  0.00  0.00    +0.135 A 
ATOM     11  C   UNL     1       5.140  -5.072   1.011  0.00  0.00    +0.181 A 
ENDROOT
BRANCH  11  12
ATOM     12  C   UNL     1       3.871  -5.481   1.621  0.00  0.00    +0.025 A 
ATOM     13  C   UNL     1       3.345  -4.735   2.687  0.00  0.00    +0.015 A 
ATOM     14  C   UNL     1       2.216  -5.159   3.391  0.00  0.00    +0.050 A 
ATOM     15  C   UNL     1       1.647  -6.377   3.073  0.00  0.00    +0.158 A 
ATOM     16  C   UNL     1       2.161  -7.152   2.036  0.00  0.00    +0.159 A 
ATOM     17  C   UNL     1       3.265  -6.713   1.295  0.00  0.00    +0.060 A 
BRANCH  16  18
ATOM     18  O   UNL     1       1.561  -8.362   1.806  0.00  0.00    -0.503 OA
ATOM     19  H   UNL     1       1.972  -8.771   1.024  0.00  0.00    +0.292 HD
ENDBRANCH  16  18
BRANCH  15  20
ATOM     20  O   UNL     1       0.594  -6.826   3.814  0.00  0.00    -0.503 OA
ATOM     21  H   UNL     1       0.405  -7.721   3.467  0.00  0.00    +0.292 HD
ENDBRANCH  15  20
ENDBRANCH  11  12
BRANCH  10  22
ATOM     22  O   UNL     1       9.397  -5.024  -1.713  0.00  0.00    -0.506 OA
ATOM     23  H   UNL     1      10.359  -5.073  -1.832  0.00  0.00    +0.292 HD
ENDBRANCH  10  22
BRANCH   7  24
ATOM     24  O   UNL     1      10.433  -7.214   2.501  0.00  0.00    -0.461 OA
BRANCH  24  25
ATOM     25  C   UNL     1      11.385  -8.085   1.859  0.00  0.00    +0.339 C 
ATOM     26  O   UNL     1      10.749  -9.022   0.981  0.00  0.00    -0.331 OA
ATOM     27  C   UNL     1       9.922  -9.974   1.671  0.00  0.00    +0.179 C 
ATOM     28  C   UNL     1      10.744 -10.856   2.632  0.00  0.00    +0.177 C 
ATOM     29  C   UNL     1      11.625 -10.013   3.563  0.00  0.00    +0.180 C 
ATOM     30  C   UNL     1      12.310  -8.844   2.841  0.00  0.00    +0.214 C 
BRANCH  30  31
ATOM     31  O   UNL     1      12.929  -7.978   3.803  0.00  0.00    -0.383 OA
ATOM     32  H   UNL     1      12.385  -8.065   4.614  0.00  0.00    +0.210 HD
ENDBRANCH  30  31
BRANCH  29  33
ATOM     33  O   UNL     1      10.897  -9.483   4.680  0.00  0.00    -0.386 OA
ATOM     34  H   UNL     1      10.162 -10.080   4.901  0.00  0.00    +0.210 HD
ENDBRANCH  29  33
BRANCH  28  35
ATOM     35  O   UNL     1      11.571 -11.758   1.890  0.00  0.00    -0.386 OA
ATOM     36  H   UNL     1      11.907 -12.441   2.498  0.00  0.00    +0.210 HD
ENDBRANCH  28  35
BRANCH  27  37
ATOM     37  C   UNL     1       9.212 -10.837   0.611  0.00  0.00    +0.190 C 
BRANCH  37  38
ATOM     38  O   UNL     1       8.346 -10.072  -0.230  0.00  0.00    -0.392 OA
ATOM     39  H   UNL     1       8.012  -9.315   0.276  0.00  0.00    +0.210 HD
ENDBRANCH  37  38
ENDBRANCH  27  37
ENDBRANCH  24  25
ENDBRANCH   7  24
BRANCH   1  40
ATOM     40  O   UNL     1       4.390  -4.068  -1.124  0.00  0.00    -0.453 OA
BRANCH  40  46
ATOM     41  C   UNL     1       3.241  -1.880  -1.039  0.00  0.00    +0.221 C 
ATOM     42  C   UNL     1       2.966  -1.682  -2.546  0.00  0.00    +0.180 C 
ATOM     43  C   UNL     1       1.773  -2.515  -3.038  0.00  0.00    +0.177 C 
ATOM     44  C   UNL     1       1.867  -3.982  -2.599  0.00  0.00    +0.179 C 
ATOM     45  O   UNL     1       2.061  -4.068  -1.172  0.00  0.00    -0.331 OA
ATOM     46  C   UNL     1       3.220  -3.396  -0.686  0.00  0.00    +0.340 C 
BRANCH  43  47
ATOM     47  O   UNL     1       0.550  -1.968  -2.523  0.00  0.00    -0.386 OA
ATOM     48  H   UNL     1       0.561  -2.078  -1.552  0.00  0.00    +0.210 HD
ENDBRANCH  43  47
BRANCH  42  49
ATOM     49  O   UNL     1       4.116  -2.001  -3.345  0.00  0.00    -0.386 OA
ATOM     50  H   UNL     1       4.814  -2.425  -2.807  0.00  0.00    +0.210 HD
ENDBRANCH  42  49
BRANCH  44  51
ATOM     51  C   UNL     1       2.882  -4.829  -3.391  0.00  0.00    +0.190 C 
BRANCH  51  52
ATOM     52  O   UNL     1       2.866  -6.174  -2.898  0.00  0.00    -0.392 OA
ATOM     53  H   UNL     1       2.987  -6.097  -1.935  0.00  0.00    +0.210 HD
ENDBRANCH  51  52
ENDBRANCH  44  51
BRANCH  41  54
ATOM     54  O   UNL     1       2.304  -1.098  -0.248  0.00  0.00    -0.337 OA
BRANCH  54  57
ATOM     55  C   UNL     1       1.404  -0.952   3.243  0.00  0.00    +0.197 C 
ATOM     56  O   UNL     1       1.392  -0.565   1.865  0.00  0.00    -0.346 OA
ATOM     57  C   UNL     1       2.507  -1.150   1.175  0.00  0.00    +0.282 C 
ATOM     58  C   UNL     1       3.801  -0.474   1.693  0.00  0.00    +0.201 C 
ATOM     59  C   UNL     1       3.926  -0.766   3.197  0.00  0.00    +0.178 C 
ATOM     60  C   UNL     1       2.648  -0.438   3.975  0.00  0.00    +0.171 C 
BRANCH  58  61
ATOM     61  O   UNL     1       4.990  -0.936   1.042  0.00  0.00    -0.384 OA
ATOM     62  H   UNL     1       5.324  -1.728   1.496  0.00  0.00    +0.210 HD
ENDBRANCH  58  61
BRANCH  59  63
ATOM     63  O   UNL     1       5.069  -0.108   3.758  0.00  0.00    -0.386 OA
ATOM     64  H   UNL     1       5.098   0.807   3.424  0.00  0.00    +0.210 HD
ENDBRANCH  59  63
BRANCH  60  65
ATOM     65  O   UNL     1       2.729  -1.068   5.255  0.00  0.00    -0.387 OA
ATOM     66  H   UNL     1       2.114  -0.610   5.853  0.00  0.00    +0.210 HD
ENDBRANCH  60  65
ENDBRANCH  54  57
ENDBRANCH  41  54
ENDBRANCH  40  46
ENDBRANCH   1  40
TORSDOF 22
