REMARK  Name = 
REMARK  19 active torsions:
REMARK  status: ('A' for Active; 'I' for Inactive)
REMARK    1  A    between atoms: C_1  and  O_2
REMARK    2  A    between atoms: O_2  and  C_3
REMARK    3  A    between atoms: C_4  and  O_50
REMARK    4  A    between atoms: C_6  and  C_9
REMARK    5  A    between atoms: C_10  and  O_22
REMARK    6  A    between atoms: C_14  and  O_21
REMARK    7  A    between atoms: C_16  and  O_20
REMARK    8  A    between atoms: O_22  and  C_23
REMARK    9  A    between atoms: C_25  and  O_35
REMARK   10  A    between atoms: C_26  and  O_34
REMARK   11  A    between atoms: C_27  and  O_33
REMARK   12  A    between atoms: C_29  and  C_31
REMARK   13  A    between atoms: C_31  and  O_32
REMARK   14  A    between atoms: O_35  and  C_36
REMARK   15  A    between atoms: C_38  and  O_49
REMARK   16  A    between atoms: C_40  and  O_48
REMARK   17  A    between atoms: C_41  and  O_47
REMARK   18  A    between atoms: C_43  and  C_45
REMARK   19  A    between atoms: C_45  and  O_46
REMARK                            x       y       z     vdW  Elec       q    Type
REMARK                         _______ _______ _______ _____ _____    ______ ____
ROOT
ATOM      1  C   UNL     1       7.457   3.063  -2.580  0.00  0.00    +0.340 C 
ATOM      2  O   UNL     1       7.530   1.963  -3.535  0.00  0.00    -0.331 OA
ATOM      3  C   UNL     1       6.748   2.109  -4.749  0.00  0.00    +0.179 C 
ATOM      4  C   UNL     1       5.351   2.782  -4.608  0.00  0.00    +0.177 C 
ATOM      5  C   UNL     1       5.254   3.814  -3.477  0.00  0.00    +0.180 C 
ATOM      6  C   UNL     1       5.957   3.189  -2.282  0.00  0.00    +0.221 C 
ENDROOT
BRANCH   5   7
ATOM      7  O   UNL     1       3.875   4.087  -3.196  0.00  0.00    -0.386 OA
ATOM      8  H   UNL     1       3.401   4.036  -4.048  0.00  0.00    +0.210 HD
ENDBRANCH   5   7
BRANCH   4   9
ATOM      9  O   UNL     1       4.907   3.361  -5.841  0.00  0.00    -0.386 OA
ATOM     10  H   UNL     1       5.437   4.159  -6.024  0.00  0.00    +0.210 HD
ENDBRANCH   4   9
BRANCH   6  11
ATOM     11  O   UNL     1       5.485   3.455  -0.986  0.00  0.00    -0.337 OA
BRANCH  11  12
ATOM     12  C   UNL     1       5.866   4.539  -0.184  0.00  0.00    +0.282 C 
ATOM     13  O   UNL     1       5.796   4.084   1.186  0.00  0.00    -0.341 OA
ATOM     14  C   UNL     1       4.523   3.480   1.493  0.00  0.00    +0.178 C 
ATOM     15  C   UNL     1       3.340   4.437   1.247  0.00  0.00    +0.177 C 
ATOM     16  C   UNL     1       3.475   5.256  -0.044  0.00  0.00    +0.179 C 
ATOM     17  C   UNL     1       4.909   5.725  -0.339  0.00  0.00    +0.201 C 
BRANCH  17  18
ATOM     18  O   UNL     1       5.332   6.808   0.502  0.00  0.00    -0.384 OA
ATOM     19  H   UNL     1       4.602   6.981   1.125  0.00  0.00    +0.210 HD
ENDBRANCH  17  18
BRANCH  16  20
ATOM     20  O   UNL     1       2.595   6.394   0.055  0.00  0.00    -0.386 OA
ATOM     21  H   UNL     1       1.847   6.224  -0.546  0.00  0.00    +0.210 HD
ENDBRANCH  16  20
BRANCH  15  22
ATOM     22  O   UNL     1       3.151   5.347   2.343  0.00  0.00    -0.386 OA
ATOM     23  H   UNL     1       2.558   6.044   1.989  0.00  0.00    +0.210 HD
ENDBRANCH  15  22
BRANCH  14  24
ATOM     24  C   UNL     1       4.553   2.946   2.930  0.00  0.00    +0.190 C 
BRANCH  24  25
ATOM     25  O   UNL     1       3.425   2.112   3.188  0.00  0.00    -0.392 OA
ATOM     26  H   UNL     1       2.676   2.708   3.367  0.00  0.00    +0.210 HD
ENDBRANCH  24  25
ENDBRANCH  14  24
ENDBRANCH  11  12
ENDBRANCH   6  11
BRANCH   3  27
ATOM     27  C   UNL     1       6.482   0.677  -5.298  0.00  0.00    +0.190 C 
BRANCH  27  28
ATOM     28  O   UNL     1       7.660  -0.119  -5.448  0.00  0.00    -0.392 OA
ATOM     29  H   UNL     1       8.406   0.495  -5.625  0.00  0.00    +0.210 HD
ENDBRANCH  27  28
ENDBRANCH   3  27
BRANCH   1  30
ATOM     30  O   UNL     1       8.161   4.164  -3.175  0.00  0.00    -0.453 OA
BRANCH  30  41
ATOM     31  C   UNL     1       9.966   5.298  -1.959  0.00  0.00    +0.181 A 
ATOM     32  O   UNL     1      10.497   6.527  -1.498  0.00  0.00    -0.451 OA
ATOM     33  C   UNL     1       9.750   7.682  -1.527  0.00  0.00    +0.147 A 
ATOM     34  C   UNL     1       8.415   7.685  -1.890  0.00  0.00    +0.109 A 
ATOM     35  C   UNL     1       7.662   8.870  -1.809  0.00  0.00    +0.135 A 
ATOM     36  C   UNL     1       8.259  10.063  -1.421  0.00  0.00    +0.091 A 
ATOM     37  C   UNL     1       9.613  10.074  -1.127  0.00  0.00    +0.124 A 
ATOM     38  C   UNL     1       7.857   6.445  -2.406  0.00  0.00    +0.238 A 
ATOM     39  O   UNL     1       6.711   6.455  -2.850  0.00  0.00    -0.283 OA
ATOM     40  C   UNL     1      10.365   8.888  -1.175  0.00  0.00    +0.092 A 
ATOM     41  C   UNL     1       8.690   5.199  -2.423  0.00  0.00    +0.214 A 
BRANCH  31  45
ATOM     42  C   UNL     1      13.034   2.134  -1.722  0.00  0.00    +0.161 A 
ATOM     43  C   UNL     1      11.736   1.817  -2.071  0.00  0.00    +0.050 A 
ATOM     44  C   UNL     1      10.768   2.841  -2.187  0.00  0.00    +0.015 A 
ATOM     45  C   UNL     1      11.014   4.196  -1.895  0.00  0.00    +0.025 A 
ATOM     46  C   UNL     1      12.336   4.479  -1.498  0.00  0.00    +0.060 A 
ATOM     47  C   UNL     1      13.317   3.476  -1.458  0.00  0.00    +0.159 A 
BRANCH  47  48
ATOM     48  O   UNL     1      14.609   3.840  -1.178  0.00  0.00    -0.503 OA
ATOM     49  H   UNL     1      15.135   3.031  -1.334  0.00  0.00    +0.292 HD
ENDBRANCH  47  48
BRANCH  42  51
ATOM     50  C   UNL     1      13.844  -0.121  -1.716  0.00  0.00    +0.277 C 
ATOM     51  O   UNL     1      14.097   1.279  -1.633  0.00  0.00    -0.491 OA
ENDBRANCH  42  51
ENDBRANCH  31  45
BRANCH  37  52
ATOM     52  O   UNL     1      10.237  11.234  -0.779  0.00  0.00    -0.507 OA
ATOM     53  H   UNL     1       9.580  11.959  -0.765  0.00  0.00    +0.292 HD
ENDBRANCH  37  52
BRANCH  35  54
ATOM     54  O   UNL     1       6.331   8.945  -2.114  0.00  0.00    -0.506 OA
ATOM     55  H   UNL     1       6.017   8.045  -2.339  0.00  0.00    +0.292 HD
ENDBRANCH  35  54
ENDBRANCH  30  41
ENDBRANCH   1  30
TORSDOF 18
