REMARK  Name = 
REMARK  16 active torsions:
REMARK  status: ('A' for Active; 'I' for Inactive)
REMARK    1  A    between atoms: C_2  and  O_47
REMARK    2  A    between atoms: C_4  and  O_46
REMARK    3  A    between atoms: C_5  and  O_45
REMARK    4  A    between atoms: C_6  and  O_9
REMARK    5  A    between atoms: O_9  and  C_10
REMARK    6  A    between atoms: C_11  and  C_37
REMARK    7  A    between atoms: C_15  and  O_22
REMARK    8  A    between atoms: C_17  and  O_21
REMARK    9  A    between atoms: O_22  and  C_23
REMARK   10  A    between atoms: C_25  and  O_36
REMARK   11  A    between atoms: C_26  and  O_35
REMARK   12  A    between atoms: C_28  and  O_34
REMARK   13  A    between atoms: C_30  and  C_32
REMARK   14  A    between atoms: C_32  and  O_33
REMARK   15  A    between atoms: C_39  and  O_44
REMARK   16  A    between atoms: C_40  and  O_43
REMARK                            x       y       z     vdW  Elec       q    Type
REMARK                         _______ _______ _______ _____ _____    ______ ____
ROOT
ATOM      1  C   UNL     1       2.553  -2.727   0.063  0.00  0.00    +0.214 A 
ATOM      2  C   UNL     1       3.499  -1.603  -0.289  0.00  0.00    +0.238 A 
ATOM      3  O   UNL     1       3.133  -0.439  -0.173  0.00  0.00    -0.283 OA
ATOM      4  C   UNL     1       4.863  -1.969  -0.756  0.00  0.00    +0.109 A 
ATOM      5  C   UNL     1       5.119  -3.316  -0.952  0.00  0.00    +0.147 A 
ATOM      6  C   UNL     1       6.391  -3.766  -1.329  0.00  0.00    +0.093 A 
ATOM      7  C   UNL     1       7.439  -2.869  -1.529  0.00  0.00    +0.131 A 
ATOM      8  C   UNL     1       7.177  -1.504  -1.379  0.00  0.00    +0.092 A 
ATOM      9  O   UNL     1       4.174  -4.295  -0.816  0.00  0.00    -0.451 OA
ATOM     10  C   UNL     1       5.902  -1.059  -0.984  0.00  0.00    +0.135 A 
ATOM     11  C   UNL     1       2.932  -3.982  -0.293  0.00  0.00    +0.181 A 
ENDROOT
BRANCH  11  12
ATOM     12  C   UNL     1       2.100  -5.205  -0.218  0.00  0.00    +0.025 A 
ATOM     13  C   UNL     1       0.794  -5.217  -0.730  0.00  0.00    +0.015 A 
ATOM     14  C   UNL     1      -0.021  -6.343  -0.592  0.00  0.00    +0.050 A 
ATOM     15  C   UNL     1       0.500  -7.489  -0.017  0.00  0.00    +0.158 A 
ATOM     16  C   UNL     1       1.823  -7.528   0.410  0.00  0.00    +0.159 A 
ATOM     17  C   UNL     1       2.625  -6.393   0.326  0.00  0.00    +0.060 A 
BRANCH  16  18
ATOM     18  O   UNL     1       2.291  -8.710   0.913  0.00  0.00    -0.503 OA
ATOM     19  H   UNL     1       3.258  -8.644   1.006  0.00  0.00    +0.292 HD
ENDBRANCH  16  18
BRANCH  15  20
ATOM     20  O   UNL     1      -0.302  -8.583   0.122  0.00  0.00    -0.503 OA
ATOM     21  H   UNL     1       0.284  -9.278   0.484  0.00  0.00    +0.292 HD
ENDBRANCH  15  20
ENDBRANCH  11  12
BRANCH  10  22
ATOM     22  O   UNL     1       5.693   0.279  -0.808  0.00  0.00    -0.506 OA
ATOM     23  H   UNL     1       6.481   0.785  -1.066  0.00  0.00    +0.292 HD
ENDBRANCH  10  22
BRANCH   7  24
ATOM     24  O   UNL     1       8.737  -3.217  -1.832  0.00  0.00    -0.461 OA
BRANCH  24  25
ATOM     25  C   UNL     1       8.960  -4.603  -2.173  0.00  0.00    +0.339 C 
ATOM     26  O   UNL     1       8.929  -5.458  -1.027  0.00  0.00    -0.331 OA
ATOM     27  C   UNL     1      10.072  -5.394  -0.156  0.00  0.00    +0.179 C 
ATOM     28  C   UNL     1      11.392  -5.643  -0.917  0.00  0.00    +0.177 C 
ATOM     29  C   UNL     1      11.512  -4.686  -2.108  0.00  0.00    +0.180 C 
ATOM     30  C   UNL     1      10.259  -4.788  -2.984  0.00  0.00    +0.214 C 
BRANCH  29  31
ATOM     31  O   UNL     1      11.766  -3.338  -1.697  0.00  0.00    -0.386 OA
ATOM     32  H   UNL     1      11.060  -3.034  -1.100  0.00  0.00    +0.210 HD
ENDBRANCH  29  31
BRANCH  30  33
ATOM     33  O   UNL     1      10.340  -3.883  -4.089  0.00  0.00    -0.383 OA
ATOM     34  H   UNL     1      10.660  -3.035  -3.728  0.00  0.00    +0.210 HD
ENDBRANCH  30  33
BRANCH  28  35
ATOM     35  O   UNL     1      11.421  -6.995  -1.388  0.00  0.00    -0.386 OA
ATOM     36  H   UNL     1      12.248  -7.138  -1.883  0.00  0.00    +0.210 HD
ENDBRANCH  28  35
BRANCH  27  37
ATOM     37  C   UNL     1       9.880  -6.470   0.931  0.00  0.00    +0.190 C 
BRANCH  37  38
ATOM     38  O   UNL     1       8.736  -6.193   1.756  0.00  0.00    -0.392 OA
ATOM     39  H   UNL     1       8.750  -5.252   1.993  0.00  0.00    +0.210 HD
ENDBRANCH  37  38
ENDBRANCH  27  37
ENDBRANCH  24  25
ENDBRANCH   7  24
BRANCH   1  40
ATOM     40  O   UNL     1       1.379  -2.311   0.673  0.00  0.00    -0.453 OA
BRANCH  40  43
ATOM     41  C   UNL     1      -1.182  -4.521   1.967  0.00  0.00    +0.198 C 
ATOM     42  O   UNL     1      -0.542  -3.558   1.116  0.00  0.00    -0.337 OA
ATOM     43  C   UNL     1       0.727  -3.140   1.639  0.00  0.00    +0.339 C 
ATOM     44  C   UNL     1       0.452  -2.328   2.921  0.00  0.00    +0.214 C 
ATOM     45  C   UNL     1      -0.283  -3.245   3.917  0.00  0.00    +0.180 C 
ATOM     46  C   UNL     1      -1.547  -3.874   3.298  0.00  0.00    +0.171 C 
BRANCH  46  47
ATOM     47  O   UNL     1      -2.562  -2.887   3.070  0.00  0.00    -0.387 OA
ATOM     48  H   UNL     1      -2.273  -2.359   2.300  0.00  0.00    +0.210 HD
ENDBRANCH  46  47
BRANCH  45  49
ATOM     49  O   UNL     1      -0.622  -2.516   5.096  0.00  0.00    -0.386 OA
ATOM     50  H   UNL     1      -1.212  -1.801   4.777  0.00  0.00    +0.210 HD
ENDBRANCH  45  49
BRANCH  44  51
ATOM     51  O   UNL     1      -0.388  -1.187   2.644  0.00  0.00    -0.383 OA
ATOM     52  H   UNL     1      -0.263  -0.972   1.698  0.00  0.00    +0.210 HD
ENDBRANCH  44  51
ENDBRANCH  40  43
ENDBRANCH   1  40
TORSDOF 16
