REMARK  Name = 
REMARK  23 active torsions:
REMARK  status: ('A' for Active; 'I' for Inactive)
REMARK    1  A    between atoms: C_1  and  C_2
REMARK    2  A    between atoms: C_4  and  O_63
REMARK    3  A    between atoms: C_6  and  O_62
REMARK    4  A    between atoms: C_7  and  O_61
REMARK    5  A    between atoms: C_8  and  O_11
REMARK    6  A    between atoms: O_11  and  C_12
REMARK    7  A    between atoms: C_12  and  C_13
REMARK    8  A    between atoms: C_14  and  O_60
REMARK    9  A    between atoms: C_16  and  O_59
REMARK   10  A    between atoms: C_18  and  O_58
REMARK   11  A    between atoms: C_19  and  O_22
REMARK   12  A    between atoms: O_22  and  C_23
REMARK   13  A    between atoms: C_25  and  O_57
REMARK   14  A    between atoms: C_30  and  C_49
REMARK   15  A    between atoms: C_31  and  O_34
REMARK   16  A    between atoms: O_34  and  C_35
REMARK   17  A    between atoms: C_37  and  O_48
REMARK   18  A    between atoms: C_38  and  O_47
REMARK   19  A    between atoms: C_39  and  O_46
REMARK   20  A    between atoms: C_41  and  C_43
REMARK   21  A    between atoms: C_43  and  O_45
REMARK   22  A    between atoms: C_51  and  O_56
REMARK   23  A    between atoms: C_52  and  O_55
REMARK                            x       y       z     vdW  Elec       q    Type
REMARK                         _______ _______ _______ _____ _____    ______ ____
ROOT
ATOM      1  C   UNL     1       4.191   6.933  -1.061  0.00  0.00    +0.131 A 
ATOM      2  C   UNL     1       4.826   8.023  -0.421  0.00  0.00    +0.093 A 
ATOM      3  C   UNL     1       5.521   7.829   0.787  0.00  0.00    +0.147 A 
ATOM      4  O   UNL     1       6.138   8.891   1.422  0.00  0.00    -0.451 OA
ATOM      5  C   UNL     1       6.968   8.631   2.539  0.00  0.00    +0.181 A 
ATOM      6  C   UNL     1       7.049   7.423   3.154  0.00  0.00    +0.214 A 
ATOM      7  C   UNL     1       6.020   6.441   2.714  0.00  0.00    +0.238 A 
ATOM      8  O   UNL     1       5.509   5.645   3.488  0.00  0.00    -0.283 OA
ATOM      9  C   UNL     1       5.545   6.558   1.340  0.00  0.00    +0.109 A 
ATOM     10  C   UNL     1       5.033   5.462   0.647  0.00  0.00    +0.135 A 
ATOM     11  C   UNL     1       4.370   5.646  -0.558  0.00  0.00    +0.092 A 
ENDROOT
BRANCH   5  12
ATOM     12  C   UNL     1       7.702   9.840   3.029  0.00  0.00    +0.025 A 
ATOM     13  C   UNL     1       8.183  10.834   2.154  0.00  0.00    +0.015 A 
ATOM     14  C   UNL     1       8.848  11.975   2.641  0.00  0.00    +0.050 A 
ATOM     15  C   UNL     1       9.032  12.127   4.006  0.00  0.00    +0.158 A 
ATOM     16  C   UNL     1       8.544  11.174   4.888  0.00  0.00    +0.159 A 
ATOM     17  C   UNL     1       7.869  10.053   4.413  0.00  0.00    +0.060 A 
BRANCH  16  18
ATOM     18  O   UNL     1       8.741  11.379   6.225  0.00  0.00    -0.503 OA
ATOM     19  H   UNL     1       8.308  10.661   6.717  0.00  0.00    +0.292 HD
ENDBRANCH  16  18
BRANCH  15  20
ATOM     20  O   UNL     1       9.685  13.226   4.488  0.00  0.00    -0.503 OA
ATOM     21  H   UNL     1       9.677  13.118   5.459  0.00  0.00    +0.292 HD
ENDBRANCH  15  20
ENDBRANCH   5  12
BRANCH  10  22
ATOM     22  O   UNL     1       5.211   4.202   1.135  0.00  0.00    -0.506 OA
ATOM     23  H   UNL     1       4.909   3.535   0.499  0.00  0.00    +0.292 HD
ENDBRANCH  10  22
BRANCH   6  24
ATOM     24  O   UNL     1       7.865   7.127   4.258  0.00  0.00    -0.453 OA
BRANCH  24  25
ATOM     25  C   UNL     1       8.419   5.786   4.231  0.00  0.00    +0.340 C 
ATOM     26  O   UNL     1       7.513   4.780   4.688  0.00  0.00    -0.322 OA
ATOM     27  C   UNL     1       7.196   4.850   6.085  0.00  0.00    +0.261 C 
ATOM     28  C   UNL     1       8.444   4.624   6.935  0.00  0.00    +0.185 C 
ATOM     29  C   UNL     1       9.478   5.689   6.562  0.00  0.00    +0.180 C 
ATOM     30  C   UNL     1       9.735   5.691   5.045  0.00  0.00    +0.214 C 
BRANCH  27  31
ATOM     31  C   UNL     1       6.101   3.835   6.423  0.00  0.00    +0.337 C 
ATOM     32  O   UNL     1       5.890   3.370   7.534  0.00  0.00    -0.248 OA
BRANCH  31  33
ATOM     33  O   UNL     1       5.292   3.584   5.359  0.00  0.00    -0.479 OA
ATOM     34  H   UNL     1       5.575   4.126   4.576  0.00  0.00    +0.295 HD
ENDBRANCH  31  33
ENDBRANCH  27  31
BRANCH  30  35
ATOM     35  O   UNL     1      10.686   6.713   4.723  0.00  0.00    -0.383 OA
ATOM     36  H   UNL     1      10.281   7.578   4.918  0.00  0.00    +0.210 HD
ENDBRANCH  30  35
BRANCH  29  37
ATOM     37  O   UNL     1      10.698   5.403   7.269  0.00  0.00    -0.386 OA
ATOM     38  H   UNL     1      11.436   5.649   6.676  0.00  0.00    +0.210 HD
ENDBRANCH  29  37
BRANCH  28  39
ATOM     39  O   UNL     1       9.028   3.339   6.663  0.00  0.00    -0.386 OA
ATOM     40  H   UNL     1       9.819   3.288   7.235  0.00  0.00    +0.210 HD
ENDBRANCH  28  39
ENDBRANCH  24  25
ENDBRANCH   6  24
BRANCH   1  41
ATOM     41  O   UNL     1       3.438   7.196  -2.184  0.00  0.00    -0.461 OA
BRANCH  41  44
ATOM     42  C   UNL     1       1.780   4.182  -3.572  0.00  0.00    +0.179 C 
ATOM     43  O   UNL     1       2.800   5.149  -3.230  0.00  0.00    -0.331 OA
ATOM     44  C   UNL     1       2.343   6.279  -2.453  0.00  0.00    +0.339 C 
ATOM     45  C   UNL     1       1.242   7.032  -3.242  0.00  0.00    +0.214 C 
ATOM     46  C   UNL     1       0.097   6.052  -3.551  0.00  0.00    +0.180 C 
ATOM     47  C   UNL     1       0.627   4.853  -4.346  0.00  0.00    +0.177 C 
BRANCH  47  48
ATOM     48  O   UNL     1      -0.468   3.981  -4.634  0.00  0.00    -0.386 OA
ATOM     49  H   UNL     1      -0.116   3.224  -5.139  0.00  0.00    +0.210 HD
ENDBRANCH  47  48
BRANCH  46  50
ATOM     50  O   UNL     1      -0.962   6.684  -4.277  0.00  0.00    -0.386 OA
ATOM     51  H   UNL     1      -1.479   5.955  -4.676  0.00  0.00    +0.210 HD
ENDBRANCH  46  50
BRANCH  45  52
ATOM     52  O   UNL     1       1.771   7.565  -4.472  0.00  0.00    -0.383 OA
ATOM     53  H   UNL     1       2.586   7.075  -4.685  0.00  0.00    +0.210 HD
ENDBRANCH  45  52
BRANCH  42  54
ATOM     54  C   UNL     1       1.347   3.355  -2.340  0.00  0.00    +0.197 C 
BRANCH  54  55
ATOM     55  O   UNL     1       0.538   2.233  -2.709  0.00  0.00    -0.346 OA
BRANCH  55  59
ATOM     56  C   UNL     1       0.310   1.048   1.440  0.00  0.00    +0.041 C 
ATOM     57  C   UNL     1       0.825   0.175   0.299  0.00  0.00    +0.149 C 
ATOM     58  O   UNL     1       1.159   0.981  -0.845  0.00  0.00    -0.343 OA
ATOM     59  C   UNL     1       0.046   1.535  -1.549  0.00  0.00    +0.282 C 
ATOM     60  C   UNL     1      -0.897   0.417  -2.038  0.00  0.00    +0.201 C 
ATOM     61  C   UNL     1      -1.348  -0.434  -0.845  0.00  0.00    +0.179 C 
ATOM     62  C   UNL     1      -0.134  -0.971  -0.069  0.00  0.00    +0.174 C 
BRANCH  62  63
ATOM     63  O   UNL     1       0.579  -1.932  -0.867  0.00  0.00    -0.387 OA
ATOM     64  H   UNL     1       0.829  -1.481  -1.701  0.00  0.00    +0.210 HD
ENDBRANCH  62  63
BRANCH  61  65
ATOM     65  O   UNL     1      -2.167  -1.517  -1.297  0.00  0.00    -0.386 OA
ATOM     66  H   UNL     1      -1.586  -2.055  -1.872  0.00  0.00    +0.210 HD
ENDBRANCH  61  65
BRANCH  60  67
ATOM     67  O   UNL     1      -0.188  -0.429  -2.976  0.00  0.00    -0.384 OA
ATOM     68  H   UNL     1       0.390   0.181  -3.478  0.00  0.00    +0.210 HD
ENDBRANCH  60  67
ENDBRANCH  55  59
ENDBRANCH  54  55
ENDBRANCH  42  54
ENDBRANCH  41  44
ENDBRANCH   1  41
TORSDOF 22
