REMARK  Name = 
REMARK  14 active torsions:
REMARK  status: ('A' for Active; 'I' for Inactive)
REMARK    1  A    between atoms: C_1  and  O_2
REMARK    2  A    between atoms: O_2  and  C_3
REMARK    3  A    between atoms: C_4  and  O_38
REMARK    4  A    between atoms: C_6  and  C_9
REMARK    5  A    between atoms: C_10  and  O_36
REMARK    6  A    between atoms: C_14  and  O_35
REMARK    7  A    between atoms: C_16  and  O_20
REMARK    8  A    between atoms: O_20  and  C_21
REMARK    9  A    between atoms: C_23  and  O_34
REMARK   10  A    between atoms: C_24  and  O_33
REMARK   11  A    between atoms: C_26  and  O_32
REMARK   12  A    between atoms: C_28  and  C_30
REMARK   13  A    between atoms: C_30  and  O_31
REMARK   14  A    between atoms: O_36  and  C_37
REMARK                            x       y       z     vdW  Elec       q    Type
REMARK                         _______ _______ _______ _____ _____    ______ ____
ROOT
ATOM      1  C   UNL     1       5.057  -4.979   1.054  0.00  0.00    +0.181 A 
ATOM      2  O   UNL     1       6.425  -4.974   1.368  0.00  0.00    -0.451 OA
ATOM      3  C   UNL     1       7.091  -6.164   1.550  0.00  0.00    +0.147 A 
ATOM      4  C   UNL     1       6.449  -7.382   1.438  0.00  0.00    +0.109 A 
ATOM      5  C   UNL     1       7.152  -8.578   1.629  0.00  0.00    +0.135 A 
ATOM      6  C   UNL     1       8.514  -8.564   1.912  0.00  0.00    +0.092 A 
ATOM      7  C   UNL     1       9.199  -7.352   1.974  0.00  0.00    +0.131 A 
ATOM      8  C   UNL     1       5.038  -7.399   1.074  0.00  0.00    +0.238 A 
ATOM      9  O   UNL     1       4.495  -8.482   0.859  0.00  0.00    -0.283 OA
ATOM     10  C   UNL     1       8.473  -6.149   1.814  0.00  0.00    +0.093 A 
ATOM     11  C   UNL     1       4.316  -6.105   0.914  0.00  0.00    +0.211 A 
ENDROOT
BRANCH   1  15
ATOM     12  C   UNL     1       3.636  -1.053  -0.071  0.00  0.00    +0.161 A 
ATOM     13  C   UNL     1       4.173  -1.934  -1.008  0.00  0.00    +0.050 A 
ATOM     14  C   UNL     1       4.645  -3.191  -0.609  0.00  0.00    +0.015 A 
ATOM     15  C   UNL     1       4.570  -3.614   0.728  0.00  0.00    +0.025 A 
ATOM     16  C   UNL     1       4.071  -2.716   1.681  0.00  0.00    +0.060 A 
ATOM     17  C   UNL     1       3.623  -1.448   1.273  0.00  0.00    +0.159 A 
BRANCH  12  19
ATOM     18  C   UNL     1       2.928   0.517  -1.715  0.00  0.00    +0.277 C 
ATOM     19  O   UNL     1       3.136   0.197  -0.341  0.00  0.00    -0.491 OA
ENDBRANCH  12  19
BRANCH  17  20
ATOM     20  O   UNL     1       3.156  -0.577   2.222  0.00  0.00    -0.503 OA
ATOM     21  H   UNL     1       2.962   0.251   1.749  0.00  0.00    +0.292 HD
ENDBRANCH  17  20
ENDBRANCH   1  15
BRANCH   5  22
ATOM     22  O   UNL     1       6.563  -9.815   1.535  0.00  0.00    -0.506 OA
ATOM     23  H   UNL     1       5.633  -9.683   1.233  0.00  0.00    +0.292 HD
ENDBRANCH   5  22
BRANCH  11  24
ATOM     24  O   UNL     1       3.001  -6.317   0.616  0.00  0.00    -0.488 OA
ATOM     25  C   UNL     1       1.974  -5.356   0.545  0.00  0.00    +0.277 C 
ENDBRANCH  11  24
BRANCH   7  26
ATOM     26  O   UNL     1      10.559  -7.212   2.111  0.00  0.00    -0.461 OA
BRANCH  26  27
ATOM     27  C   UNL     1      11.368  -8.356   2.464  0.00  0.00    +0.339 C 
ATOM     28  O   UNL     1      12.433  -7.926   3.339  0.00  0.00    -0.331 OA
ATOM     29  C   UNL     1      13.348  -7.018   2.698  0.00  0.00    +0.179 C 
ATOM     30  C   UNL     1      14.091  -7.727   1.548  0.00  0.00    +0.177 C 
ATOM     31  C   UNL     1      13.081  -8.279   0.536  0.00  0.00    +0.180 C 
ATOM     32  C   UNL     1      11.972  -9.090   1.233  0.00  0.00    +0.214 C 
BRANCH  30  33
ATOM     33  O   UNL     1      14.864  -8.826   2.041  0.00  0.00    -0.386 OA
ATOM     34  H   UNL     1      15.495  -9.082   1.343  0.00  0.00    +0.210 HD
ENDBRANCH  30  33
BRANCH  31  35
ATOM     35  O   UNL     1      12.530  -7.246  -0.290  0.00  0.00    -0.386 OA
ATOM     36  H   UNL     1      11.961  -6.671   0.254  0.00  0.00    +0.210 HD
ENDBRANCH  31  35
BRANCH  32  37
ATOM     37  O   UNL     1      10.984  -9.496   0.279  0.00  0.00    -0.383 OA
ATOM     38  H   UNL     1      11.184  -9.039  -0.561  0.00  0.00    +0.210 HD
ENDBRANCH  32  37
BRANCH  29  39
ATOM     39  C   UNL     1      14.278  -6.429   3.771  0.00  0.00    +0.190 C 
BRANCH  39  40
ATOM     40  O   UNL     1      15.093  -7.397   4.419  0.00  0.00    -0.392 OA
ATOM     41  H   UNL     1      14.593  -8.236   4.398  0.00  0.00    +0.210 HD
ENDBRANCH  39  40
ENDBRANCH  29  39
ENDBRANCH  26  27
ENDBRANCH   7  26
TORSDOF 12
