REMARK  Name = 
REMARK  16 active torsions:
REMARK  status: ('A' for Active; 'I' for Inactive)
REMARK    1  A    between atoms: C_2  and  O_47
REMARK    2  A    between atoms: C_4  and  O_46
REMARK    3  A    between atoms: C_5  and  O_31
REMARK    4  A    between atoms: C_6  and  O_9
REMARK    5  A    between atoms: O_9  and  C_10
REMARK    6  A    between atoms: C_11  and  C_23
REMARK    7  A    between atoms: C_15  and  O_22
REMARK    8  A    between atoms: C_17  and  O_21
REMARK    9  A    between atoms: C_25  and  O_30
REMARK   10  A    between atoms: C_26  and  O_29
REMARK   11  A    between atoms: O_31  and  C_32
REMARK   12  A    between atoms: C_34  and  O_45
REMARK   13  A    between atoms: C_36  and  O_44
REMARK   14  A    between atoms: C_37  and  O_43
REMARK   15  A    between atoms: C_39  and  C_41
REMARK   16  A    between atoms: C_41  and  O_42
REMARK                            x       y       z     vdW  Elec       q    Type
REMARK                         _______ _______ _______ _____ _____    ______ ____
ROOT
ATOM      1  C   UNL     1       0.819   1.906   0.602  0.00  0.00    +0.198 C 
ATOM      2  O   UNL     1       1.235   0.973   1.611  0.00  0.00    -0.337 OA
ATOM      3  C   UNL     1       0.916  -0.364   1.223  0.00  0.00    +0.340 C 
ATOM      4  C   UNL     1      -0.575  -0.553   0.713  0.00  0.00    +0.221 C 
ATOM      5  C   UNL     1      -1.349   0.735   0.308  0.00  0.00    +0.180 C 
ATOM      6  C   UNL     1      -0.687   2.057   0.680  0.00  0.00    +0.171 C 
ENDROOT
BRANCH   6   7
ATOM      7  O   UNL     1      -1.132   3.067  -0.231  0.00  0.00    -0.387 OA
ATOM      8  H   UNL     1      -1.259   3.888   0.278  0.00  0.00    +0.210 HD
ENDBRANCH   6   7
BRANCH   5   9
ATOM      9  O   UNL     1      -2.710   0.776   0.763  0.00  0.00    -0.386 OA
ATOM     10  H   UNL     1      -2.726   0.493   1.696  0.00  0.00    +0.210 HD
ENDBRANCH   5   9
BRANCH   4  11
ATOM     11  O   UNL     1      -1.357  -1.482   1.517  0.00  0.00    -0.337 OA
BRANCH  11  12
ATOM     12  C   UNL     1      -2.452  -2.103   0.821  0.00  0.00    +0.282 C 
ATOM     13  O   UNL     1      -3.401  -2.671   1.730  0.00  0.00    -0.341 OA
ATOM     14  C   UNL     1      -3.183  -4.029   2.132  0.00  0.00    +0.178 C 
ATOM     15  C   UNL     1      -3.021  -4.964   0.924  0.00  0.00    +0.177 C 
ATOM     16  C   UNL     1      -1.875  -4.473   0.052  0.00  0.00    +0.179 C 
ATOM     17  C   UNL     1      -2.017  -3.011  -0.359  0.00  0.00    +0.201 C 
BRANCH  15  18
ATOM     18  O   UNL     1      -4.237  -5.035   0.166  0.00  0.00    -0.386 OA
ATOM     19  H   UNL     1      -4.132  -5.761  -0.474  0.00  0.00    +0.210 HD
ENDBRANCH  15  18
BRANCH  16  20
ATOM     20  O   UNL     1      -1.756  -5.319  -1.101  0.00  0.00    -0.386 OA
ATOM     21  H   UNL     1      -2.504  -5.071  -1.680  0.00  0.00    +0.210 HD
ENDBRANCH  16  20
BRANCH  17  22
ATOM     22  O   UNL     1      -2.928  -2.855  -1.467  0.00  0.00    -0.384 OA
ATOM     23  H   UNL     1      -3.015  -1.895  -1.632  0.00  0.00    +0.210 HD
ENDBRANCH  17  22
BRANCH  14  24
ATOM     24  C   UNL     1      -4.402  -4.487   2.956  0.00  0.00    +0.190 C 
BRANCH  24  25
ATOM     25  O   UNL     1      -4.579  -3.697   4.131  0.00  0.00    -0.392 OA
ATOM     26  H   UNL     1      -5.113  -2.930   3.852  0.00  0.00    +0.210 HD
ENDBRANCH  24  25
ENDBRANCH  14  24
ENDBRANCH  11  12
ENDBRANCH   4  11
BRANCH   3  27
ATOM     27  O   UNL     1       1.194  -1.443   2.136  0.00  0.00    -0.453 OA
BRANCH  27  28
ATOM     28  C   UNL     1       2.059  -1.515   3.198  0.00  0.00    +0.214 A 
ATOM     29  C   UNL     1       2.988  -2.704   3.170  0.00  0.00    +0.238 A 
ATOM     30  O   UNL     1       3.238  -3.241   2.090  0.00  0.00    -0.283 OA
ATOM     31  C   UNL     1       3.533  -3.216   4.450  0.00  0.00    +0.109 A 
ATOM     32  C   UNL     1       3.446  -2.364   5.537  0.00  0.00    +0.147 A 
ATOM     33  C   UNL     1       4.018  -2.714   6.769  0.00  0.00    +0.092 A 
ATOM     34  C   UNL     1       4.664  -3.940   6.906  0.00  0.00    +0.124 A 
ATOM     35  C   UNL     1       4.720  -4.832   5.845  0.00  0.00    +0.091 A 
ATOM     36  O   UNL     1       2.826  -1.145   5.465  0.00  0.00    -0.451 OA
ATOM     37  C   UNL     1       4.153  -4.468   4.614  0.00  0.00    +0.135 A 
ATOM     38  C   UNL     1       1.995  -0.850   4.378  0.00  0.00    +0.181 A 
BRANCH  38  39
ATOM     39  C   UNL     1       1.001   0.190   4.762  0.00  0.00    +0.025 A 
ATOM     40  C   UNL     1      -0.317   0.164   4.278  0.00  0.00    +0.015 A 
ATOM     41  C   UNL     1      -1.289   1.060   4.729  0.00  0.00    +0.050 A 
ATOM     42  C   UNL     1      -0.965   1.957   5.728  0.00  0.00    +0.158 A 
ATOM     43  C   UNL     1       0.324   2.006   6.242  0.00  0.00    +0.159 A 
ATOM     44  C   UNL     1       1.307   1.137   5.766  0.00  0.00    +0.060 A 
BRANCH  42  45
ATOM     45  O   UNL     1      -1.940   2.766   6.232  0.00  0.00    -0.503 OA
ATOM     46  H   UNL     1      -1.523   3.200   7.004  0.00  0.00    +0.292 HD
ENDBRANCH  42  45
BRANCH  43  47
ATOM     47  O   UNL     1       0.562   2.887   7.264  0.00  0.00    -0.503 OA
ATOM     48  H   UNL     1       1.507   2.849   7.488  0.00  0.00    +0.292 HD
ENDBRANCH  43  47
ENDBRANCH  38  39
BRANCH  34  49
ATOM     49  O   UNL     1       5.264  -4.312   8.072  0.00  0.00    -0.507 OA
ATOM     50  H   UNL     1       5.230  -3.575   8.705  0.00  0.00    +0.292 HD
ENDBRANCH  34  49
BRANCH  37  51
ATOM     51  O   UNL     1       4.191  -5.373   3.591  0.00  0.00    -0.506 OA
ATOM     52  H   UNL     1       4.681  -6.170   3.852  0.00  0.00    +0.292 HD
ENDBRANCH  37  51
ENDBRANCH  27  28
ENDBRANCH   3  27
TORSDOF 16
