REMARK  Name = 
REMARK  12 active torsions:
REMARK  status: ('A' for Active; 'I' for Inactive)
REMARK    1  A    between atoms: C_3  and  O_36
REMARK    2  A    between atoms: C_4  and  O_35
REMARK    3  A    between atoms: C_6  and  C_7
REMARK    4  A    between atoms: C_8  and  O_20
REMARK    5  A    between atoms: C_12  and  O_19
REMARK    6  A    between atoms: C_14  and  O_18
REMARK    7  A    between atoms: O_20  and  C_21
REMARK    8  A    between atoms: C_23  and  O_34
REMARK    9  A    between atoms: C_24  and  O_33
REMARK   10  A    between atoms: C_25  and  O_32
REMARK   11  A    between atoms: C_27  and  C_30
REMARK   12  A    between atoms: C_30  and  O_31
REMARK                            x       y       z     vdW  Elec       q    Type
REMARK                         _______ _______ _______ _____ _____    ______ ____
ROOT
ATOM      1  C   UNL     1      -1.191  -2.707   0.421  0.00  0.00    +0.181 A 
ATOM      2  O   UNL     1      -0.528  -3.919   0.546  0.00  0.00    -0.451 OA
ATOM      3  C   UNL     1      -1.143  -5.086   0.217  0.00  0.00    +0.147 A 
ATOM      4  C   UNL     1      -2.465  -5.139  -0.184  0.00  0.00    +0.109 A 
ATOM      5  C   UNL     1      -3.008  -6.395  -0.494  0.00  0.00    +0.135 A 
ATOM      6  C   UNL     1      -2.235  -7.562  -0.415  0.00  0.00    +0.091 A 
ATOM      7  C   UNL     1      -0.907  -7.474  -0.014  0.00  0.00    +0.124 A 
ATOM      8  C   UNL     1      -3.204  -3.859  -0.286  0.00  0.00    +0.238 A 
ATOM      9  O   UNL     1      -4.378  -3.869  -0.645  0.00  0.00    -0.283 OA
ATOM     10  C   UNL     1      -0.361  -6.242   0.300  0.00  0.00    +0.092 A 
ATOM     11  C   UNL     1      -2.464  -2.572  -0.004  0.00  0.00    +0.214 A 
ENDROOT
BRANCH   1  13
ATOM     12  C   UNL     1       0.913  -1.561  -0.011  0.00  0.00    +0.015 A 
ATOM     13  C   UNL     1      -0.237  -1.645   0.798  0.00  0.00    +0.025 A 
ATOM     14  C   UNL     1      -0.236  -1.027   2.056  0.00  0.00    +0.060 A 
ATOM     15  C   UNL     1       0.945  -0.442   2.514  0.00  0.00    +0.159 A 
ATOM     16  C   UNL     1       2.114  -0.481   1.752  0.00  0.00    +0.158 A 
ATOM     17  C   UNL     1       2.097  -1.003   0.470  0.00  0.00    +0.050 A 
BRANCH  15  18
ATOM     18  O   UNL     1       0.988   0.098   3.762  0.00  0.00    -0.503 OA
ATOM     19  H   UNL     1       1.908   0.430   3.870  0.00  0.00    +0.292 HD
ENDBRANCH  15  18
BRANCH  16  20
ATOM     20  O   UNL     1       3.275  -0.048   2.329  0.00  0.00    -0.503 OA
ATOM     21  H   UNL     1       4.016  -0.455   1.844  0.00  0.00    +0.292 HD
ENDBRANCH  16  20
ENDBRANCH   1  13
BRANCH   5  22
ATOM     22  O   UNL     1      -4.300  -6.577  -0.899  0.00  0.00    -0.506 OA
ATOM     23  H   UNL     1      -4.764  -5.709  -0.879  0.00  0.00    +0.292 HD
ENDBRANCH   5  22
BRANCH   7  24
ATOM     24  O   UNL     1      -0.089  -8.566   0.048  0.00  0.00    -0.507 OA
ATOM     25  H   UNL     1      -0.607  -9.354  -0.199  0.00  0.00    +0.292 HD
ENDBRANCH   7  24
BRANCH  11  26
ATOM     26  O   UNL     1      -3.154  -1.363   0.004  0.00  0.00    -0.453 OA
BRANCH  26  27
ATOM     27  C   UNL     1      -3.302  -0.642  -1.242  0.00  0.00    +0.340 C 
ATOM     28  O   UNL     1      -3.004   0.753  -1.051  0.00  0.00    -0.331 OA
ATOM     29  C   UNL     1      -3.972   1.582  -0.356  0.00  0.00    +0.179 C 
ATOM     30  C   UNL     1      -5.468   1.181  -0.439  0.00  0.00    +0.177 C 
ATOM     31  C   UNL     1      -5.704  -0.295  -0.757  0.00  0.00    +0.180 C 
ATOM     32  C   UNL     1      -4.720  -0.726  -1.845  0.00  0.00    +0.214 C 
BRANCH  30  33
ATOM     33  O   UNL     1      -6.094   1.943  -1.499  0.00  0.00    -0.386 OA
ATOM     34  H   UNL     1      -6.968   1.509  -1.620  0.00  0.00    +0.210 HD
ENDBRANCH  30  33
BRANCH  31  35
ATOM     35  O   UNL     1      -7.059  -0.458  -1.218  0.00  0.00    -0.386 OA
ATOM     36  H   UNL     1      -7.047  -1.296  -1.728  0.00  0.00    +0.210 HD
ENDBRANCH  31  35
BRANCH  32  37
ATOM     37  O   UNL     1      -5.103  -1.986  -2.394  0.00  0.00    -0.383 OA
ATOM     38  H   UNL     1      -4.444  -2.660  -2.145  0.00  0.00    +0.210 HD
ENDBRANCH  32  37
BRANCH  29  39
ATOM     39  C   UNL     1      -3.507   1.773   1.092  0.00  0.00    +0.190 C 
BRANCH  39  40
ATOM     40  O   UNL     1      -3.625   0.566   1.831  0.00  0.00    -0.392 OA
ATOM     41  H   UNL     1      -3.058  -0.083   1.371  0.00  0.00    +0.210 HD
ENDBRANCH  39  40
ENDBRANCH  29  39
ENDBRANCH  26  27
ENDBRANCH  11  26
TORSDOF 12
