REMARK  Name = 
REMARK  12 active torsions:
REMARK  status: ('A' for Active; 'I' for Inactive)
REMARK    1  A    between atoms: C_3  and  O_35
REMARK    2  A    between atoms: C_4  and  O_21
REMARK    3  A    between atoms: C_6  and  C_7
REMARK    4  A    between atoms: C_8  and  O_20
REMARK    5  A    between atoms: C_12  and  O_19
REMARK    6  A    between atoms: C_14  and  O_18
REMARK    7  A    between atoms: O_21  and  C_22
REMARK    8  A    between atoms: C_24  and  O_34
REMARK    9  A    between atoms: C_25  and  O_33
REMARK   10  A    between atoms: C_26  and  O_32
REMARK   11  A    between atoms: C_28  and  C_30
REMARK   12  A    between atoms: C_30  and  O_31
REMARK                            x       y       z     vdW  Elec       q    Type
REMARK                         _______ _______ _______ _____ _____    ______ ____
ROOT
ATOM      1  C   UNL     1       4.197   3.780   1.036  0.00  0.00    +0.015 A 
ATOM      2  C   UNL     1       2.913   3.483   1.522  0.00  0.00    +0.025 A 
ATOM      3  C   UNL     1       2.443   2.176   1.280  0.00  0.00    +0.061 A 
ATOM      4  C   UNL     1       3.168   1.222   0.521  0.00  0.00    +0.166 A 
ATOM      5  C   UNL     1       4.405   1.588   0.002  0.00  0.00    +0.159 A 
ATOM      6  C   UNL     1       4.921   2.861   0.264  0.00  0.00    +0.050 A 
ENDROOT
BRANCH   2   7
ATOM      7  C   UNL     1       2.081   4.508   2.246  0.00  0.00    +0.181 A 
ATOM      8  O   UNL     1       1.266   3.975   3.256  0.00  0.00    -0.451 OA
ATOM      9  C   UNL     1       0.409   4.816   3.937  0.00  0.00    +0.147 A 
ATOM     10  C   UNL     1       0.387   6.197   3.751  0.00  0.00    +0.109 A 
ATOM     11  C   UNL     1      -0.495   7.008   4.483  0.00  0.00    +0.135 A 
ATOM     12  C   UNL     1      -1.372   6.446   5.400  0.00  0.00    +0.091 A 
ATOM     13  C   UNL     1      -1.353   5.067   5.583  0.00  0.00    +0.124 A 
ATOM     14  C   UNL     1       1.291   6.774   2.755  0.00  0.00    +0.238 A 
ATOM     15  O   UNL     1       1.331   7.989   2.595  0.00  0.00    -0.283 OA
ATOM     16  C   UNL     1      -0.472   4.250   4.866  0.00  0.00    +0.092 A 
ATOM     17  C   UNL     1       2.096   5.828   1.940  0.00  0.00    +0.208 A 
BRANCH  11  18
ATOM     18  O   UNL     1      -0.559   8.369   4.339  0.00  0.00    -0.506 OA
ATOM     19  H   UNL     1       0.116   8.640   3.673  0.00  0.00    +0.292 HD
ENDBRANCH  11  18
BRANCH  13  20
ATOM     20  O   UNL     1      -2.202   4.474   6.468  0.00  0.00    -0.507 OA
ATOM     21  H   UNL     1      -2.759   5.163   6.889  0.00  0.00    +0.292 HD
ENDBRANCH  13  20
BRANCH  17  22
ATOM     22  O   UNL     1       2.789   6.395   0.883  0.00  0.00    -0.501 OA
ATOM     23  H   UNL     1       2.879   5.730   0.181  0.00  0.00    +0.292 HD
ENDBRANCH  17  22
ENDBRANCH   2   7
BRANCH   5  24
ATOM     24  O   UNL     1       5.113   0.729  -0.782  0.00  0.00    -0.503 OA
ATOM     25  H   UNL     1       5.744   1.230  -1.327  0.00  0.00    +0.292 HD
ENDBRANCH   5  24
BRANCH   4  26
ATOM     26  O   UNL     1       2.495   0.065   0.303  0.00  0.00    -0.457 OA
BRANCH  26  27
ATOM     27  C   UNL     1       3.019  -1.231  -0.041  0.00  0.00    +0.339 C 
ATOM     28  O   UNL     1       3.356  -1.502  -1.414  0.00  0.00    -0.331 OA
ATOM     29  C   UNL     1       3.284  -2.927  -1.695  0.00  0.00    +0.179 C 
ATOM     30  C   UNL     1       4.124  -3.792  -0.723  0.00  0.00    +0.177 C 
ATOM     31  C   UNL     1       3.986  -3.358   0.735  0.00  0.00    +0.180 C 
ATOM     32  C   UNL     1       4.078  -1.830   0.905  0.00  0.00    +0.214 C 
BRANCH  30  33
ATOM     33  O   UNL     1       5.519  -3.767  -1.057  0.00  0.00    -0.386 OA
ATOM     34  H   UNL     1       5.960  -4.211  -0.301  0.00  0.00    +0.210 HD
ENDBRANCH  30  33
BRANCH  31  35
ATOM     35  O   UNL     1       5.002  -4.023   1.506  0.00  0.00    -0.386 OA
ATOM     36  H   UNL     1       5.164  -3.444   2.279  0.00  0.00    +0.210 HD
ENDBRANCH  31  35
BRANCH  32  37
ATOM     37  O   UNL     1       3.837  -1.564   2.296  0.00  0.00    -0.383 OA
ATOM     38  H   UNL     1       3.237  -0.796   2.339  0.00  0.00    +0.210 HD
ENDBRANCH  32  37
BRANCH  29  39
ATOM     39  C   UNL     1       3.696  -3.249  -3.147  0.00  0.00    +0.190 C 
BRANCH  39  40
ATOM     40  O   UNL     1       2.925  -2.545  -4.119  0.00  0.00    -0.392 OA
ATOM     41  H   UNL     1       1.993  -2.584  -3.857  0.00  0.00    +0.210 HD
ENDBRANCH  39  40
ENDBRANCH  29  39
ENDBRANCH  26  27
ENDBRANCH   4  26
TORSDOF 12
