REMARK  Name = 
REMARK  16 active torsions:
REMARK  status: ('A' for Active; 'I' for Inactive)
REMARK    1  A    between atoms: C_1  and  C_2
REMARK    2  A    between atoms: C_3  and  O_48
REMARK    3  A    between atoms: C_5  and  O_47
REMARK    4  A    between atoms: C_6  and  O_46
REMARK    5  A    between atoms: C_8  and  O_11
REMARK    6  A    between atoms: O_11  and  C_12
REMARK    7  A    between atoms: C_14  and  O_24
REMARK    8  A    between atoms: C_17  and  C_23
REMARK    9  A    between atoms: C_18  and  O_22
REMARK   10  A    between atoms: C_20  and  O_21
REMARK   11  A    between atoms: O_24  and  C_25
REMARK   12  A    between atoms: C_26  and  C_38
REMARK   13  A    between atoms: C_30  and  O_37
REMARK   14  A    between atoms: C_32  and  O_36
REMARK   15  A    between atoms: C_40  and  O_45
REMARK   16  A    between atoms: C_41  and  O_44
REMARK                            x       y       z     vdW  Elec       q    Type
REMARK                         _______ _______ _______ _____ _____    ______ ____
ROOT
ATOM      1  O   UNL     1       1.917   5.079  -3.059  0.00  0.00    -0.453 OA
ENDROOT
BRANCH   1   2
ATOM      2  C   UNL     1       2.668   6.261  -2.939  0.00  0.00    +0.214 A 
ATOM      3  C   UNL     1       4.036   6.194  -2.327  0.00  0.00    +0.238 A 
ATOM      4  O   UNL     1       4.376   5.235  -1.646  0.00  0.00    -0.283 OA
ATOM      5  C   UNL     1       4.923   7.349  -2.479  0.00  0.00    +0.109 A 
ATOM      6  C   UNL     1       4.345   8.544  -2.894  0.00  0.00    +0.147 A 
ATOM      7  C   UNL     1       5.140   9.696  -3.004  0.00  0.00    +0.092 A 
ATOM      8  C   UNL     1       6.497   9.630  -2.668  0.00  0.00    +0.124 A 
ATOM      9  C   UNL     1       7.074   8.441  -2.241  0.00  0.00    +0.091 A 
ATOM     10  O   UNL     1       2.997   8.661  -3.142  0.00  0.00    -0.451 OA
ATOM     11  C   UNL     1       6.289   7.298  -2.162  0.00  0.00    +0.135 A 
ATOM     12  C   UNL     1       2.187   7.514  -3.167  0.00  0.00    +0.181 A 
BRANCH  12  13
ATOM     13  C   UNL     1       0.736   7.858  -3.416  0.00  0.00    +0.025 A 
ATOM     14  C   UNL     1       0.355   9.099  -3.980  0.00  0.00    +0.015 A 
ATOM     15  C   UNL     1      -0.998   9.468  -4.126  0.00  0.00    +0.050 A 
ATOM     16  C   UNL     1      -1.984   8.594  -3.721  0.00  0.00    +0.158 A 
ATOM     17  C   UNL     1      -1.647   7.374  -3.164  0.00  0.00    +0.159 A 
ATOM     18  C   UNL     1      -0.306   7.016  -2.976  0.00  0.00    +0.060 A 
BRANCH  16  19
ATOM     19  O   UNL     1      -3.300   8.931  -3.866  0.00  0.00    -0.503 OA
ATOM     20  H   UNL     1      -3.793   8.171  -3.481  0.00  0.00    +0.292 HD
ENDBRANCH  16  19
BRANCH  17  21
ATOM     21  O   UNL     1      -2.666   6.536  -2.801  0.00  0.00    -0.503 OA
ATOM     22  H   UNL     1      -2.293   5.642  -2.708  0.00  0.00    +0.292 HD
ENDBRANCH  17  21
ENDBRANCH  12  13
BRANCH   8  23
ATOM     23  O   UNL     1       7.318  10.715  -2.734  0.00  0.00    -0.507 OA
ATOM     24  H   UNL     1       6.813  11.486  -3.042  0.00  0.00    +0.292 HD
ENDBRANCH   8  23
BRANCH  11  25
ATOM     25  O   UNL     1       6.881   6.128  -1.775  0.00  0.00    -0.506 OA
ATOM     26  H   UNL     1       7.771   6.298  -1.430  0.00  0.00    +0.292 HD
ENDBRANCH  11  25
ENDBRANCH   1   2
BRANCH   1  33
ATOM     27  C   UNL     1       2.088   2.548  -3.073  0.00  0.00    +0.221 C 
ATOM     28  C   UNL     1       1.010   2.015  -4.027  0.00  0.00    +0.180 C 
ATOM     29  C   UNL     1       1.469   2.153  -5.485  0.00  0.00    +0.174 C 
ATOM     30  C   UNL     1       1.836   3.602  -5.821  0.00  0.00    +0.150 C 
ATOM     31  C   UNL     1       0.671   4.586  -5.891  0.00  0.00    +0.041 C 
ATOM     32  O   UNL     1       2.888   4.048  -4.971  0.00  0.00    -0.334 OA
ATOM     33  C   UNL     1       2.664   3.939  -3.555  0.00  0.00    +0.340 C 
BRANCH  28  34
ATOM     34  O   UNL     1      -0.248   2.661  -3.788  0.00  0.00    -0.386 OA
ATOM     35  H   UNL     1      -0.095   3.342  -3.106  0.00  0.00    +0.210 HD
ENDBRANCH  28  34
BRANCH  29  36
ATOM     36  O   UNL     1       0.498   1.613  -6.380  0.00  0.00    -0.387 OA
ATOM     37  H   UNL     1       0.814   1.758  -7.288  0.00  0.00    +0.210 HD
ENDBRANCH  29  36
BRANCH  27  38
ATOM     38  O   UNL     1       1.629   2.647  -1.717  0.00  0.00    -0.337 OA
BRANCH  38  42
ATOM     39  C   UNL     1      -1.553   0.750   0.375  0.00  0.00    +0.041 C 
ATOM     40  C   UNL     1      -0.194   1.084   0.987  0.00  0.00    +0.149 C 
ATOM     41  O   UNL     1       0.532   2.007   0.179  0.00  0.00    -0.343 OA
ATOM     42  C   UNL     1       1.027   1.512  -1.076  0.00  0.00    +0.282 C 
ATOM     43  C   UNL     1       1.947   0.273  -0.871  0.00  0.00    +0.201 C 
ATOM     44  C   UNL     1       1.264  -0.768   0.052  0.00  0.00    +0.179 C 
ATOM     45  C   UNL     1       0.641  -0.159   1.316  0.00  0.00    +0.174 C 
BRANCH  43  46
ATOM     46  O   UNL     1       3.236   0.661  -0.376  0.00  0.00    -0.384 OA
ATOM     47  H   UNL     1       3.415   0.135   0.423  0.00  0.00    +0.210 HD
ENDBRANCH  43  46
BRANCH  44  48
ATOM     48  O   UNL     1       2.209  -1.779   0.449  0.00  0.00    -0.386 OA
ATOM     49  H   UNL     1       2.513  -1.523   1.345  0.00  0.00    +0.210 HD
ENDBRANCH  44  48
BRANCH  45  50
ATOM     50  O   UNL     1       1.721   0.141   2.220  0.00  0.00    -0.387 OA
ATOM     51  H   UNL     1       1.374   0.738   2.909  0.00  0.00    +0.210 HD
ENDBRANCH  45  50
ENDBRANCH  38  42
ENDBRANCH  27  38
ENDBRANCH   1  33
TORSDOF 14
