REMARK  Name = 
REMARK  23 active torsions:
REMARK  status: ('A' for Active; 'I' for Inactive)
REMARK    1  A    between atoms: C_3  and  O_61
REMARK    2  A    between atoms: C_4  and  O_60
REMARK    3  A    between atoms: C_6  and  C_7
REMARK    4  A    between atoms: C_8  and  C_9
REMARK    5  A    between atoms: C_9  and  O_11
REMARK    6  A    between atoms: O_11  and  C_12
REMARK    7  A    between atoms: C_13  and  O_24
REMARK    8  A    between atoms: C_16  and  C_22
REMARK    9  A    between atoms: C_17  and  O_21
REMARK   10  A    between atoms: C_19  and  O_20
REMARK   11  A    between atoms: C_22  and  O_23
REMARK   12  A    between atoms: O_24  and  C_25
REMARK   13  A    between atoms: C_26  and  O_59
REMARK   14  A    between atoms: C_28  and  O_58
REMARK   15  A    between atoms: C_30  and  C_56
REMARK   16  A    between atoms: C_32  and  O_34
REMARK   17  A    between atoms: O_34  and  C_35
REMARK   18  A    between atoms: C_36  and  C_48
REMARK   19  A    between atoms: C_40  and  O_47
REMARK   20  A    between atoms: C_42  and  O_46
REMARK   21  A    between atoms: C_50  and  O_55
REMARK   22  A    between atoms: C_51  and  O_54
REMARK   23  A    between atoms: C_56  and  O_57
REMARK                            x       y       z     vdW  Elec       q    Type
REMARK                         _______ _______ _______ _____ _____    ______ ____
ROOT
ATOM      1  C   UNL     1      -6.882  -8.345  -2.226  0.00  0.00    +0.221 C 
ATOM      2  C   UNL     1      -8.397  -8.670  -2.426  0.00  0.00    +0.340 C 
ATOM      3  O   UNL     1      -8.987  -9.044  -1.157  0.00  0.00    -0.331 OA
ATOM      4  C   UNL     1      -8.374 -10.231  -0.575  0.00  0.00    +0.179 C 
ATOM      5  C   UNL     1      -6.874  -9.986  -0.339  0.00  0.00    +0.177 C 
ATOM      6  C   UNL     1      -6.207  -9.598  -1.659  0.00  0.00    +0.180 C 
ENDROOT
BRANCH   6   7
ATOM      7  O   UNL     1      -4.800  -9.465  -1.436  0.00  0.00    -0.386 OA
ATOM      8  H   UNL     1      -4.364  -9.327  -2.308  0.00  0.00    +0.210 HD
ENDBRANCH   6   7
BRANCH   5   9
ATOM      9  O   UNL     1      -6.207 -11.131   0.198  0.00  0.00    -0.386 OA
ATOM     10  H   UNL     1      -5.252 -10.923   0.109  0.00  0.00    +0.210 HD
ENDBRANCH   5   9
BRANCH   2  11
ATOM     11  O   UNL     1      -9.057  -7.533  -3.047  0.00  0.00    -0.453 OA
BRANCH  11  12
ATOM     12  C   UNL     1      -8.685  -7.233  -4.373  0.00  0.00    +0.214 A 
ATOM     13  C   UNL     1      -7.956  -8.242  -5.237  0.00  0.00    +0.238 A 
ATOM     14  O   UNL     1      -7.746  -9.388  -4.864  0.00  0.00    -0.283 OA
ATOM     15  C   UNL     1      -7.431  -7.815  -6.539  0.00  0.00    +0.109 A 
ATOM     16  C   UNL     1      -7.751  -6.534  -6.961  0.00  0.00    +0.147 A 
ATOM     17  C   UNL     1      -7.308  -6.066  -8.202  0.00  0.00    +0.092 A 
ATOM     18  C   UNL     1      -6.541  -6.900  -9.009  0.00  0.00    +0.124 A 
ATOM     19  C   UNL     1      -6.194  -8.178  -8.589  0.00  0.00    +0.091 A 
ATOM     20  O   UNL     1      -8.510  -5.675  -6.221  0.00  0.00    -0.451 OA
ATOM     21  C   UNL     1      -6.629  -8.631  -7.347  0.00  0.00    +0.135 A 
ATOM     22  C   UNL     1      -8.905  -6.016  -4.928  0.00  0.00    +0.181 A 
BRANCH  22  23
ATOM     23  C   UNL     1      -9.591  -4.843  -4.299  0.00  0.00    +0.025 A 
ATOM     24  C   UNL     1     -10.722  -4.970  -3.479  0.00  0.00    +0.015 A 
ATOM     25  C   UNL     1     -11.468  -3.840  -3.103  0.00  0.00    +0.050 A 
ATOM     26  C   UNL     1     -11.086  -2.583  -3.551  0.00  0.00    +0.158 A 
ATOM     27  C   UNL     1      -9.940  -2.426  -4.314  0.00  0.00    +0.159 A 
ATOM     28  C   UNL     1      -9.185  -3.539  -4.672  0.00  0.00    +0.060 A 
BRANCH  27  29
ATOM     29  O   UNL     1      -9.613  -1.162  -4.725  0.00  0.00    -0.503 OA
ATOM     30  H   UNL     1      -8.746  -1.198  -5.164  0.00  0.00    +0.292 HD
ENDBRANCH  27  29
BRANCH  26  31
ATOM     31  O   UNL     1     -11.865  -1.499  -3.261  0.00  0.00    -0.503 OA
ATOM     32  H   UNL     1     -11.464  -0.765  -3.769  0.00  0.00    +0.292 HD
ENDBRANCH  26  31
ENDBRANCH  22  23
BRANCH  21  33
ATOM     33  O   UNL     1      -6.251  -9.875  -6.933  0.00  0.00    -0.506 OA
ATOM     34  H   UNL     1      -5.739 -10.324  -7.623  0.00  0.00    +0.292 HD
ENDBRANCH  21  33
BRANCH  18  35
ATOM     35  O   UNL     1      -6.099  -6.500 -10.232  0.00  0.00    -0.507 OA
ATOM     36  H   UNL     1      -6.437  -5.609 -10.420  0.00  0.00    +0.292 HD
ENDBRANCH  18  35
ENDBRANCH  11  12
ENDBRANCH   2  11
BRANCH   1  37
ATOM     37  O   UNL     1      -6.787  -7.150  -1.401  0.00  0.00    -0.336 OA
BRANCH  37  43
ATOM     38  C   UNL     1      -4.716  -6.187  -2.376  0.00  0.00    +0.263 C 
ATOM     39  C   UNL     1      -5.157  -4.778  -2.786  0.00  0.00    +0.191 C 
ATOM     40  C   UNL     1      -5.159  -3.822  -1.590  0.00  0.00    +0.178 C 
ATOM     41  C   UNL     1      -6.010  -4.358  -0.427  0.00  0.00    +0.178 C 
ATOM     42  O   UNL     1      -5.582  -5.672  -0.065  0.00  0.00    -0.340 OA
ATOM     43  C   UNL     1      -5.476  -6.662  -1.105  0.00  0.00    +0.295 C 
BRANCH  40  44
ATOM     44  O   UNL     1      -5.499  -2.495  -1.995  0.00  0.00    -0.386 OA
ATOM     45  H   UNL     1      -6.441  -2.351  -1.756  0.00  0.00    +0.210 HD
ENDBRANCH  40  44
BRANCH  39  46
ATOM     46  O   UNL     1      -6.435  -4.840  -3.431  0.00  0.00    -0.385 OA
ATOM     47  H   UNL     1      -7.023  -5.420  -2.911  0.00  0.00    +0.210 HD
ENDBRANCH  39  46
BRANCH  41  48
ATOM     48  C   UNL     1      -7.541  -4.201  -0.553  0.00  0.00    +0.190 C 
BRANCH  48  49
ATOM     49  O   UNL     1      -7.875  -2.850  -0.885  0.00  0.00    -0.392 OA
ATOM     50  H   UNL     1      -8.848  -2.777  -0.849  0.00  0.00    +0.210 HD
ENDBRANCH  48  49
ENDBRANCH  41  48
BRANCH  38  51
ATOM     51  O   UNL     1      -3.279  -6.223  -2.218  0.00  0.00    -0.450 OA
BRANCH  51  52
ATOM     52  C   UNL     1      -2.661  -7.318  -2.751  0.00  0.00    +0.332 C 
ATOM     53  O   UNL     1      -3.215  -8.322  -3.182  0.00  0.00    -0.246 OA
BRANCH  52  55
ATOM     54  C   UNL     1      -0.315  -7.999  -3.167  0.00  0.00    +0.015 C 
ATOM     55  C   UNL     1      -1.202  -7.054  -2.800  0.00  0.00    +0.092 C 
BRANCH  54  57
ATOM     56  C   UNL     1       1.784  -6.568  -3.162  0.00  0.00    +0.012 A 
ATOM     57  C   UNL     1       1.149  -7.815  -3.316  0.00  0.00    -0.021 A 
ATOM     58  C   UNL     1       1.950  -8.919  -3.658  0.00  0.00    +0.057 A 
ATOM     59  C   UNL     1       3.322  -8.764  -3.842  0.00  0.00    +0.159 A 
ATOM     60  C   UNL     1       3.928  -7.522  -3.692  0.00  0.00    +0.158 A 
ATOM     61  C   UNL     1       3.168  -6.420  -3.351  0.00  0.00    +0.050 A 
BRANCH  60  62
ATOM     62  O   UNL     1       5.278  -7.440  -3.901  0.00  0.00    -0.503 OA
ATOM     63  H   UNL     1       5.547  -6.511  -3.798  0.00  0.00    +0.292 HD
ENDBRANCH  60  62
BRANCH  59  64
ATOM     64  O   UNL     1       4.082  -9.850  -4.180  0.00  0.00    -0.503 OA
ATOM     65  H   UNL     1       4.994  -9.499  -4.252  0.00  0.00    +0.292 HD
ENDBRANCH  59  64
ENDBRANCH  54  57
ENDBRANCH  52  55
ENDBRANCH  51  52
ENDBRANCH  38  51
ENDBRANCH  37  43
ENDBRANCH   1  37
BRANCH   4  66
ATOM     66  C   UNL     1      -8.617 -11.545  -1.371  0.00  0.00    +0.190 C 
BRANCH  66  67
ATOM     67  O   UNL     1     -10.006 -11.836  -1.502  0.00  0.00    -0.392 OA
ATOM     68  H   UNL     1     -10.343 -12.030  -0.611  0.00  0.00    +0.210 HD
ENDBRANCH  66  67
ENDBRANCH   4  66
TORSDOF 23
