REMARK  Name = 
REMARK  24 active torsions:
REMARK  status: ('A' for Active; 'I' for Inactive)
REMARK    1  A    between atoms: C_3  and  O_63
REMARK    2  A    between atoms: C_4  and  O_62
REMARK    3  A    between atoms: C_6  and  C_7
REMARK    4  A    between atoms: C_8  and  O_34
REMARK    5  A    between atoms: C_12  and  O_33
REMARK    6  A    between atoms: C_14  and  O_18
REMARK    7  A    between atoms: O_18  and  C_19
REMARK    8  A    between atoms: C_21  and  O_32
REMARK    9  A    between atoms: C_22  and  O_31
REMARK   10  A    between atoms: C_24  and  O_30
REMARK   11  A    between atoms: C_26  and  C_28
REMARK   12  A    between atoms: C_28  and  O_29
REMARK   13  A    between atoms: O_34  and  C_35
REMARK   14  A    between atoms: C_37  and  O_61
REMARK   15  A    between atoms: C_38  and  O_60
REMARK   16  A    between atoms: C_39  and  O_59
REMARK   17  A    between atoms: C_41  and  C_43
REMARK   18  A    between atoms: C_43  and  O_44
REMARK   19  A    between atoms: O_44  and  C_45
REMARK   20  A    between atoms: C_47  and  O_58
REMARK   21  A    between atoms: C_48  and  O_57
REMARK   22  A    between atoms: C_50  and  O_56
REMARK   23  A    between atoms: C_52  and  C_54
REMARK   24  A    between atoms: C_54  and  O_55
REMARK                            x       y       z     vdW  Elec       q    Type
REMARK                         _______ _______ _______ _____ _____    ______ ____
ROOT
ATOM      1  C   UNL     1      -1.277  -2.820   0.310  0.00  0.00    +0.181 A 
ATOM      2  O   UNL     1      -0.638  -4.015   0.616  0.00  0.00    -0.451 OA
ATOM      3  C   UNL     1      -1.236  -5.191   0.264  0.00  0.00    +0.147 A 
ATOM      4  C   UNL     1      -2.562  -5.277  -0.113  0.00  0.00    +0.109 A 
ATOM      5  C   UNL     1      -3.109  -6.527  -0.425  0.00  0.00    +0.135 A 
ATOM      6  C   UNL     1      -2.293  -7.669  -0.460  0.00  0.00    +0.092 A 
ATOM      7  C   UNL     1      -0.937  -7.567  -0.158  0.00  0.00    +0.131 A 
ATOM      8  C   UNL     1      -3.303  -4.020  -0.247  0.00  0.00    +0.238 A 
ATOM      9  O   UNL     1      -4.525  -4.039  -0.384  0.00  0.00    -0.283 OA
ATOM     10  C   UNL     1      -0.432  -6.327   0.264  0.00  0.00    +0.093 A 
ATOM     11  C   UNL     1      -2.510  -2.753  -0.230  0.00  0.00    +0.214 A 
ENDROOT
BRANCH   1  13
ATOM     12  C   UNL     1       0.734  -1.517  -0.221  0.00  0.00    +0.015 A 
ATOM     13  C   UNL     1      -0.365  -1.682   0.644  0.00  0.00    +0.025 A 
ATOM     14  C   UNL     1      -0.337  -1.010   1.885  0.00  0.00    +0.060 A 
ATOM     15  C   UNL     1       0.810  -0.285   2.257  0.00  0.00    +0.159 A 
ATOM     16  C   UNL     1       1.929  -0.246   1.429  0.00  0.00    +0.158 A 
ATOM     17  C   UNL     1       1.887  -0.827   0.173  0.00  0.00    +0.050 A 
BRANCH  16  18
ATOM     18  O   UNL     1       3.073   0.317   1.928  0.00  0.00    -0.503 OA
ATOM     19  H   UNL     1       3.830  -0.051   1.436  0.00  0.00    +0.292 HD
ENDBRANCH  16  18
BRANCH  15  20
ATOM     20  O   UNL     1       0.901   0.337   3.477  0.00  0.00    -0.503 OA
ATOM     21  H   UNL     1       1.798   0.738   3.503  0.00  0.00    +0.292 HD
ENDBRANCH  15  20
ENDBRANCH   1  13
BRANCH   5  22
ATOM     22  O   UNL     1      -4.427  -6.689  -0.761  0.00  0.00    -0.506 OA
ATOM     23  H   UNL     1      -4.888  -5.829  -0.633  0.00  0.00    +0.292 HD
ENDBRANCH   5  22
BRANCH  11  24
ATOM     24  O   UNL     1      -3.210  -1.607  -0.291  0.00  0.00    -0.453 OA
BRANCH  24  25
ATOM     25  C   UNL     1      -3.556  -0.699  -1.331  0.00  0.00    +0.340 C 
ATOM     26  O   UNL     1      -2.581   0.314  -1.495  0.00  0.00    -0.331 OA
ATOM     27  C   UNL     1      -2.567   1.420  -0.569  0.00  0.00    +0.179 C 
ATOM     28  C   UNL     1      -3.574   1.502   0.616  0.00  0.00    +0.177 C 
ATOM     29  C   UNL     1      -4.478   0.292   0.701  0.00  0.00    +0.180 C 
ATOM     30  C   UNL     1      -4.852  -0.079  -0.770  0.00  0.00    +0.214 C 
BRANCH  30  31
ATOM     31  O   UNL     1      -5.967  -0.965  -0.839  0.00  0.00    -0.383 OA
ATOM     32  H   UNL     1      -5.633  -1.869  -0.999  0.00  0.00    +0.210 HD
ENDBRANCH  30  31
BRANCH  29  33
ATOM     33  O   UNL     1      -5.580   0.566   1.565  0.00  0.00    -0.386 OA
ATOM     34  H   UNL     1      -6.344   0.731   0.989  0.00  0.00    +0.210 HD
ENDBRANCH  29  33
BRANCH  28  35
ATOM     35  O   UNL     1      -4.449   2.643   0.526  0.00  0.00    -0.386 OA
ATOM     36  H   UNL     1      -4.943   2.648   1.371  0.00  0.00    +0.210 HD
ENDBRANCH  28  35
BRANCH  27  37
ATOM     37  C   UNL     1      -2.634   2.721  -1.391  0.00  0.00    +0.197 C 
BRANCH  37  38
ATOM     38  O   UNL     1      -2.018   3.849  -0.756  0.00  0.00    -0.346 OA
BRANCH  38  39
ATOM     39  C   UNL     1      -0.632   3.678  -0.428  0.00  0.00    +0.282 C 
ATOM     40  O   UNL     1      -0.224   4.720   0.464  0.00  0.00    -0.341 OA
ATOM     41  C   UNL     1      -0.241   6.038  -0.105  0.00  0.00    +0.178 C 
ATOM     42  C   UNL     1       0.583   6.103  -1.411  0.00  0.00    +0.177 C 
ATOM     43  C   UNL     1       0.152   5.005  -2.386  0.00  0.00    +0.179 C 
ATOM     44  C   UNL     1       0.261   3.646  -1.685  0.00  0.00    +0.201 C 
BRANCH  44  45
ATOM     45  O   UNL     1      -0.041   2.592  -2.604  0.00  0.00    -0.384 OA
ATOM     46  H   UNL     1      -0.571   2.986  -3.325  0.00  0.00    +0.210 HD
ENDBRANCH  44  45
BRANCH  43  47
ATOM     47  O   UNL     1      -1.175   5.226  -2.896  0.00  0.00    -0.386 OA
ATOM     48  H   UNL     1      -1.813   5.065  -2.175  0.00  0.00    +0.210 HD
ENDBRANCH  43  47
BRANCH  42  49
ATOM     49  O   UNL     1       1.977   5.933  -1.118  0.00  0.00    -0.386 OA
ATOM     50  H   UNL     1       2.460   5.824  -1.957  0.00  0.00    +0.210 HD
ENDBRANCH  42  49
BRANCH  41  51
ATOM     51  C   UNL     1       0.318   7.017   0.944  0.00  0.00    +0.190 C 
BRANCH  51  52
ATOM     52  O   UNL     1      -0.469   7.064   2.137  0.00  0.00    -0.392 OA
ATOM     53  H   UNL     1      -1.395   6.887   1.902  0.00  0.00    +0.210 HD
ENDBRANCH  51  52
ENDBRANCH  41  51
ENDBRANCH  38  39
ENDBRANCH  37  38
ENDBRANCH  27  37
ENDBRANCH  24  25
ENDBRANCH  11  24
BRANCH   7  54
ATOM     54  O   UNL     1      -0.172  -8.708  -0.349  0.00  0.00    -0.461 OA
BRANCH  54  55
ATOM     55  C   UNL     1       1.230  -8.441  -0.528  0.00  0.00    +0.339 C 
ATOM     56  O   UNL     1       1.439  -7.578  -1.658  0.00  0.00    -0.331 OA
ATOM     57  C   UNL     1       1.211  -8.253  -2.912  0.00  0.00    +0.179 C 
ATOM     58  C   UNL     1       2.350  -9.258  -3.109  0.00  0.00    +0.177 C 
ATOM     59  C   UNL     1       2.260 -10.324  -2.003  0.00  0.00    +0.180 C 
ATOM     60  C   UNL     1       2.148  -9.692  -0.610  0.00  0.00    +0.214 C 
BRANCH  60  61
ATOM     61  O   UNL     1       1.841 -10.667   0.388  0.00  0.00    -0.383 OA
ATOM     62  H   UNL     1       1.478 -11.453  -0.065  0.00  0.00    +0.210 HD
ENDBRANCH  60  61
BRANCH  59  63
ATOM     63  O   UNL     1       1.174 -11.233  -2.249  0.00  0.00    -0.386 OA
ATOM     64  H   UNL     1       0.331 -10.809  -1.993  0.00  0.00    +0.210 HD
ENDBRANCH  59  63
BRANCH  58  65
ATOM     65  O   UNL     1       2.306  -9.874  -4.393  0.00  0.00    -0.386 OA
ATOM     66  H   UNL     1       1.912 -10.761  -4.281  0.00  0.00    +0.210 HD
ENDBRANCH  58  65
BRANCH  57  67
ATOM     67  C   UNL     1       1.127  -7.189  -4.008  0.00  0.00    +0.190 C 
BRANCH  67  68
ATOM     68  O   UNL     1       2.239  -6.300  -3.939  0.00  0.00    -0.392 OA
ATOM     69  H   UNL     1       2.267  -5.995  -3.013  0.00  0.00    +0.210 HD
ENDBRANCH  67  68
ENDBRANCH  57  67
ENDBRANCH  54  55
ENDBRANCH   7  54
TORSDOF 24
