REMARK  Name = 
REMARK  19 active torsions:
REMARK  status: ('A' for Active; 'I' for Inactive)
REMARK    1  A    between atoms: C_1  and  C_2
REMARK    2  A    between atoms: C_2  and  O_4
REMARK    3  A    between atoms: O_4  and  C_5
REMARK    4  A    between atoms: C_6  and  O_51
REMARK    5  A    between atoms: C_8  and  O_50
REMARK    6  A    between atoms: C_11  and  O_13
REMARK    7  A    between atoms: O_13  and  C_14
REMARK    8  A    between atoms: C_14  and  C_15
REMARK    9  A    between atoms: C_16  and  O_49
REMARK   10  A    between atoms: C_18  and  O_48
REMARK   11  A    between atoms: C_20  and  O_47
REMARK   12  A    between atoms: C_21  and  O_24
REMARK   13  A    between atoms: O_24  and  C_25
REMARK   14  A    between atoms: C_26  and  C_38
REMARK   15  A    between atoms: C_30  and  O_37
REMARK   16  A    between atoms: C_32  and  O_36
REMARK   17  A    between atoms: C_40  and  O_45
REMARK   18  A    between atoms: C_41  and  O_44
REMARK   19  A    between atoms: O_45  and  C_46
REMARK                            x       y       z     vdW  Elec       q    Type
REMARK                         _______ _______ _______ _____ _____    ______ ____
ROOT
ATOM      1  C   UNL     1       3.558   3.505  -1.145  0.00  0.00    +0.179 C 
ATOM      2  O   UNL     1       3.647   4.125  -2.448  0.00  0.00    -0.331 OA
ATOM      3  C   UNL     1       4.986   4.265  -2.989  0.00  0.00    +0.340 C 
ATOM      4  C   UNL     1       5.851   5.089  -1.996  0.00  0.00    +0.214 C 
ATOM      5  C   UNL     1       5.834   4.426  -0.617  0.00  0.00    +0.180 C 
ATOM      6  C   UNL     1       4.392   4.302  -0.121  0.00  0.00    +0.177 C 
ENDROOT
BRANCH   6   7
ATOM      7  O   UNL     1       4.411   3.745   1.195  0.00  0.00    -0.386 OA
ATOM      8  H   UNL     1       3.482   3.598   1.455  0.00  0.00    +0.210 HD
ENDBRANCH   6   7
BRANCH   5   9
ATOM      9  O   UNL     1       6.609   5.173   0.329  0.00  0.00    -0.386 OA
ATOM     10  H   UNL     1       6.294   4.878   1.207  0.00  0.00    +0.210 HD
ENDBRANCH   5   9
BRANCH   4  11
ATOM     11  O   UNL     1       5.333   6.436  -1.909  0.00  0.00    -0.383 OA
ATOM     12  H   UNL     1       4.404   6.408  -2.207  0.00  0.00    +0.210 HD
ENDBRANCH   4  11
BRANCH   3  13
ATOM     13  O   UNL     1       4.881   4.945  -4.266  0.00  0.00    -0.453 OA
BRANCH  13  14
ATOM     14  C   UNL     1       6.067   5.251  -4.934  0.00  0.00    +0.214 A 
ATOM     15  C   UNL     1       7.267   4.360  -4.798  0.00  0.00    +0.238 A 
ATOM     16  O   UNL     1       7.161   3.221  -4.361  0.00  0.00    -0.283 OA
ATOM     17  C   UNL     1       8.567   4.910  -5.209  0.00  0.00    +0.109 A 
ATOM     18  C   UNL     1       8.553   6.044  -6.013  0.00  0.00    +0.147 A 
ATOM     19  C   UNL     1       9.740   6.587  -6.505  0.00  0.00    +0.092 A 
ATOM     20  C   UNL     1      10.951   6.004  -6.154  0.00  0.00    +0.124 A 
ATOM     21  C   UNL     1      10.992   4.891  -5.319  0.00  0.00    +0.091 A 
ATOM     22  O   UNL     1       7.388   6.658  -6.385  0.00  0.00    -0.451 OA
ATOM     23  C   UNL     1       9.797   4.348  -4.847  0.00  0.00    +0.135 A 
ATOM     24  C   UNL     1       6.198   6.323  -5.750  0.00  0.00    +0.181 A 
BRANCH  24  25
ATOM     25  C   UNL     1       5.111   7.261  -6.152  0.00  0.00    +0.025 A 
ATOM     26  C   UNL     1       3.844   6.791  -6.529  0.00  0.00    +0.015 A 
ATOM     27  C   UNL     1       2.913   7.644  -7.131  0.00  0.00    +0.050 A 
ATOM     28  C   UNL     1       3.244   8.973  -7.352  0.00  0.00    +0.158 A 
ATOM     29  C   UNL     1       4.469   9.492  -6.932  0.00  0.00    +0.162 A 
ATOM     30  C   UNL     1       5.402   8.633  -6.344  0.00  0.00    +0.061 A 
BRANCH  29  31
ATOM     31  O   UNL     1       4.664  10.823  -7.203  0.00  0.00    -0.491 OA
ATOM     32  C   UNL     1       5.557  11.503  -6.327  0.00  0.00    +0.277 C 
ENDBRANCH  29  31
BRANCH  28  33
ATOM     33  O   UNL     1       2.346   9.769  -8.009  0.00  0.00    -0.503 OA
ATOM     34  H   UNL     1       2.804  10.625  -8.126  0.00  0.00    +0.292 HD
ENDBRANCH  28  33
ENDBRANCH  24  25
BRANCH  23  35
ATOM     35  O   UNL     1       9.850   3.281  -3.994  0.00  0.00    -0.506 OA
ATOM     36  H   UNL     1      10.769   2.992  -3.877  0.00  0.00    +0.292 HD
ENDBRANCH  23  35
BRANCH  20  37
ATOM     37  O   UNL     1      12.142   6.499  -6.598  0.00  0.00    -0.507 OA
ATOM     38  H   UNL     1      11.975   7.258  -7.181  0.00  0.00    +0.292 HD
ENDBRANCH  20  37
ENDBRANCH  13  14
ENDBRANCH   3  13
BRANCH   1  39
ATOM     39  C   UNL     1       3.850   1.985  -1.165  0.00  0.00    +0.197 C 
BRANCH  39  40
ATOM     40  O   UNL     1       3.480   1.374   0.084  0.00  0.00    -0.345 OA
BRANCH  40  42
ATOM     41  C   UNL     1       3.676  -0.611   1.540  0.00  0.00    +0.263 C 
ATOM     42  C   UNL     1       3.845  -0.012   0.118  0.00  0.00    +0.294 C 
ATOM     43  O   UNL     1       3.060  -0.750  -0.819  0.00  0.00    -0.345 OA
ATOM     44  C   UNL     1       3.498  -2.100  -0.943  0.00  0.00    +0.197 C 
ATOM     45  C   UNL     1       3.469  -2.861   0.383  0.00  0.00    +0.172 C 
ATOM     46  C   UNL     1       4.207  -2.059   1.471  0.00  0.00    +0.191 C 
BRANCH  46  47
ATOM     47  O   UNL     1       4.134  -2.785   2.704  0.00  0.00    -0.385 OA
ATOM     48  H   UNL     1       4.066  -2.146   3.446  0.00  0.00    +0.210 HD
ENDBRANCH  46  47
BRANCH  45  49
ATOM     49  O   UNL     1       4.087  -4.136   0.170  0.00  0.00    -0.387 OA
ATOM     50  H   UNL     1       4.686  -4.298   0.923  0.00  0.00    +0.210 HD
ENDBRANCH  45  49
BRANCH  41  51
ATOM     51  O   UNL     1       2.274  -0.590   1.921  0.00  0.00    -0.454 OA
BRANCH  51  53
ATOM     52  C   UNL     1       0.538  -0.697   3.509  0.00  0.00    +0.136 C 
ATOM     53  C   UNL     1       2.013  -0.724   3.249  0.00  0.00    +0.304 C 
ATOM     54  O   UNL     1       2.869  -0.871   4.113  0.00  0.00    -0.251 OA
ENDBRANCH  51  53
ENDBRANCH  41  51
ENDBRANCH  40  42
ENDBRANCH  39  40
ENDBRANCH   1  39
TORSDOF 17
