REMARK  Name = 
REMARK  20 active torsions:
REMARK  status: ('A' for Active; 'I' for Inactive)
REMARK    1  A    between atoms: C_1  and  C_2
REMARK    2  A    between atoms: C_3  and  O_54
REMARK    3  A    between atoms: C_5  and  O_53
REMARK    4  A    between atoms: C_6  and  O_52
REMARK    5  A    between atoms: C_8  and  O_11
REMARK    6  A    between atoms: O_11  and  C_12
REMARK    7  A    between atoms: C_12  and  C_13
REMARK    8  A    between atoms: C_14  and  O_47
REMARK    9  A    between atoms: C_16  and  O_46
REMARK   10  A    between atoms: C_18  and  O_45
REMARK   11  A    between atoms: C_19  and  O_22
REMARK   12  A    between atoms: O_22  and  C_23
REMARK   13  A    between atoms: C_24  and  C_36
REMARK   14  A    between atoms: C_28  and  O_35
REMARK   15  A    between atoms: C_30  and  O_34
REMARK   16  A    between atoms: C_38  and  O_43
REMARK   17  A    between atoms: C_39  and  O_42
REMARK   18  A    between atoms: O_43  and  C_44
REMARK   19  A    between atoms: O_47  and  S_48
REMARK   20  A    between atoms: S_48  and  O_51
REMARK                            x       y       z     vdW  Elec       q    Type
REMARK                         _______ _______ _______ _____ _____    ______ ____
ROOT
ATOM      1  C   UNL     1       3.207   3.715  -4.263  0.00  0.00    +0.182 C 
ATOM      2  O   UNL     1       3.732   4.770  -3.435  0.00  0.00    -0.331 OA
ATOM      3  C   UNL     1       2.830   5.758  -2.930  0.00  0.00    +0.340 C 
ATOM      4  C   UNL     1       1.907   6.337  -4.045  0.00  0.00    +0.214 C 
ATOM      5  C   UNL     1       1.218   5.159  -4.765  0.00  0.00    +0.183 C 
ATOM      6  C   UNL     1       2.299   4.260  -5.379  0.00  0.00    +0.214 C 
ENDROOT
BRANCH   5   7
ATOM      7  O   UNL     1       0.320   5.637  -5.778  0.00  0.00    -0.386 OA
ATOM      8  H   UNL     1      -0.095   4.854  -6.178  0.00  0.00    +0.210 HD
ENDBRANCH   5   7
BRANCH   4   9
ATOM      9  O   UNL     1       2.628   7.134  -5.012  0.00  0.00    -0.383 OA
ATOM     10  H   UNL     1       3.560   7.175  -4.736  0.00  0.00    +0.210 HD
ENDBRANCH   4   9
BRANCH   6  11
ATOM     11  O   UNL     1       1.741   3.229  -6.192  0.00  0.00    -0.207 OA
BRANCH  11  12
ATOM     12  S   UNL     1       2.730   2.555  -7.299  0.00  0.00    +0.208 S 
ATOM     13  O   UNL     1       3.635   1.646  -6.628  0.00  0.00    -0.118 OA
ATOM     14  O   UNL     1       3.189   3.570  -8.206  0.00  0.00    -0.118 OA
BRANCH  12  15
ATOM     15  O   UNL     1       1.704   1.653  -8.162  0.00  0.00    -0.231 OA
ATOM     16  H   UNL     1       1.536   2.152  -8.989  0.00  0.00    +0.247 HD
ENDBRANCH  12  15
ENDBRANCH  11  12
ENDBRANCH   6  11
BRANCH   3  17
ATOM     17  O   UNL     1       3.595   6.857  -2.371  0.00  0.00    -0.453 OA
BRANCH  17  18
ATOM     18  C   UNL     1       4.323   6.661  -1.193  0.00  0.00    +0.214 A 
ATOM     19  C   UNL     1       4.230   5.411  -0.361  0.00  0.00    +0.238 A 
ATOM     20  O   UNL     1       3.322   4.605  -0.506  0.00  0.00    -0.283 OA
ATOM     21  C   UNL     1       5.281   5.198   0.656  0.00  0.00    +0.109 A 
ATOM     22  C   UNL     1       6.057   6.295   1.033  0.00  0.00    +0.147 A 
ATOM     23  C   UNL     1       7.030   6.200   2.031  0.00  0.00    +0.092 A 
ATOM     24  C   UNL     1       7.234   4.964   2.647  0.00  0.00    +0.124 A 
ATOM     25  C   UNL     1       6.499   3.852   2.270  0.00  0.00    +0.091 A 
ATOM     26  O   UNL     1       5.918   7.518   0.437  0.00  0.00    -0.451 OA
ATOM     27  C   UNL     1       5.526   3.960   1.278  0.00  0.00    +0.135 A 
ATOM     28  C   UNL     1       5.204   7.587  -0.745  0.00  0.00    +0.181 A 
BRANCH  28  29
ATOM     29  C   UNL     1       5.712   8.680  -1.584  0.00  0.00    +0.025 A 
ATOM     30  C   UNL     1       6.697   8.314  -2.518  0.00  0.00    +0.015 A 
ATOM     31  C   UNL     1       7.391   9.272  -3.241  0.00  0.00    +0.050 A 
ATOM     32  C   UNL     1       6.982  10.591  -3.159  0.00  0.00    +0.158 A 
ATOM     33  C   UNL     1       5.927  10.956  -2.312  0.00  0.00    +0.162 A 
ATOM     34  C   UNL     1       5.370  10.026  -1.431  0.00  0.00    +0.061 A 
BRANCH  32  35
ATOM     35  O   UNL     1       7.552  11.509  -3.996  0.00  0.00    -0.503 OA
ATOM     36  H   UNL     1       7.728  11.048  -4.833  0.00  0.00    +0.292 HD
ENDBRANCH  32  35
BRANCH  33  37
ATOM     37  O   UNL     1       5.307  12.178  -2.405  0.00  0.00    -0.491 OA
ATOM     38  C   UNL     1       4.871  12.404  -3.755  0.00  0.00    +0.277 C 
ENDBRANCH  33  37
ENDBRANCH  28  29
BRANCH  27  39
ATOM     39  O   UNL     1       4.844   2.840   0.894  0.00  0.00    -0.506 OA
ATOM     40  H   UNL     1       5.153   2.072   1.390  0.00  0.00    +0.292 HD
ENDBRANCH  27  39
BRANCH  24  41
ATOM     41  O   UNL     1       8.172   4.811   3.624  0.00  0.00    -0.507 OA
ATOM     42  H   UNL     1       8.601   5.664   3.806  0.00  0.00    +0.292 HD
ENDBRANCH  24  41
ENDBRANCH  17  18
ENDBRANCH   3  17
BRANCH   1  43
ATOM     43  C   UNL     1       2.789   2.378  -3.530  0.00  0.00    +0.197 C 
BRANCH  43  44
ATOM     44  O   UNL     1       1.417   2.203  -3.139  0.00  0.00    -0.346 OA
BRANCH  44  48
ATOM     45  C   UNL     1       0.787  -0.576   0.259  0.00  0.00    +0.041 C 
ATOM     46  C   UNL     1       1.852  -0.729  -0.829  0.00  0.00    +0.149 C 
ATOM     47  O   UNL     1       2.097   0.500  -1.543  0.00  0.00    -0.343 OA
ATOM     48  C   UNL     1       1.122   0.899  -2.517  0.00  0.00    +0.282 C 
ATOM     49  C   UNL     1       0.831  -0.250  -3.535  0.00  0.00    +0.201 C 
ATOM     50  C   UNL     1       0.458  -1.542  -2.777  0.00  0.00    +0.179 C 
ATOM     51  C   UNL     1       1.542  -1.917  -1.755  0.00  0.00    +0.174 C 
BRANCH  51  52
ATOM     52  O   UNL     1       2.726  -2.329  -2.458  0.00  0.00    -0.387 OA
ATOM     53  H   UNL     1       2.988  -1.578  -3.027  0.00  0.00    +0.210 HD
ENDBRANCH  51  52
BRANCH  50  54
ATOM     54  O   UNL     1       0.292  -2.625  -3.708  0.00  0.00    -0.386 OA
ATOM     55  H   UNL     1       1.187  -3.007  -3.828  0.00  0.00    +0.210 HD
ENDBRANCH  50  54
BRANCH  49  56
ATOM     56  O   UNL     1       1.982  -0.539  -4.353  0.00  0.00    -0.384 OA
ATOM     57  H   UNL     1       1.636  -0.886  -5.198  0.00  0.00    +0.210 HD
ENDBRANCH  49  56
ENDBRANCH  44  48
ENDBRANCH  43  44
ENDBRANCH   1  43
TORSDOF 18
