REMARK  Name = 
REMARK  19 active torsions:
REMARK  status: ('A' for Active; 'I' for Inactive)
REMARK    1  A    between atoms: C_1  and  O_2
REMARK    2  A    between atoms: O_2  and  C_3
REMARK    3  A    between atoms: C_5  and  O_51
REMARK    4  A    between atoms: C_10  and  C_43
REMARK    5  A    between atoms: C_11  and  O_14
REMARK    6  A    between atoms: O_14  and  C_15
REMARK    7  A    between atoms: C_17  and  O_42
REMARK    8  A    between atoms: C_18  and  O_27
REMARK    9  A    between atoms: C_20  and  O_26
REMARK   10  A    between atoms: C_22  and  C_24
REMARK   11  A    between atoms: C_24  and  O_25
REMARK   12  A    between atoms: O_27  and  C_28
REMARK   13  A    between atoms: C_30  and  O_41
REMARK   14  A    between atoms: C_31  and  O_40
REMARK   15  A    between atoms: C_33  and  O_39
REMARK   16  A    between atoms: C_35  and  C_37
REMARK   17  A    between atoms: C_37  and  O_38
REMARK   18  A    between atoms: C_45  and  O_50
REMARK   19  A    between atoms: C_46  and  O_49
REMARK                            x       y       z     vdW  Elec       q    Type
REMARK                         _______ _______ _______ _____ _____    ______ ____
ROOT
ATOM      1  C   UNL     1       5.352  -5.099   5.678  0.00  0.00    +0.340 C 
ATOM      2  O   UNL     1       5.048  -4.682   7.006  0.00  0.00    -0.331 OA
ATOM      3  C   UNL     1       5.660  -5.389   8.077  0.00  0.00    +0.179 C 
ATOM      4  C   UNL     1       5.487  -6.906   7.913  0.00  0.00    +0.177 C 
ATOM      5  C   UNL     1       6.231  -7.334   6.651  0.00  0.00    +0.187 C 
ATOM      6  C   UNL     1       5.670  -6.596   5.439  0.00  0.00    +0.214 C 
ENDROOT
BRANCH   6   7
ATOM      7  O   UNL     1       6.509  -6.824   4.293  0.00  0.00    -0.383 OA
ATOM      8  H   UNL     1       7.306  -6.279   4.446  0.00  0.00    +0.210 HD
ENDBRANCH   6   7
BRANCH   4   9
ATOM      9  O   UNL     1       4.102  -7.258   7.810  0.00  0.00    -0.386 OA
ATOM     10  H   UNL     1       4.039  -8.231   7.822  0.00  0.00    +0.210 HD
ENDBRANCH   4   9
BRANCH   5  11
ATOM     11  O   UNL     1       7.653  -7.134   6.695  0.00  0.00    -0.340 OA
BRANCH  11  12
ATOM     12  C   UNL     1       8.348  -7.745   7.793  0.00  0.00    +0.282 C 
ATOM     13  O   UNL     1       9.716  -7.335   7.740  0.00  0.00    -0.341 OA
ATOM     14  C   UNL     1      10.415  -7.799   6.571  0.00  0.00    +0.178 C 
ATOM     15  C   UNL     1      10.377  -9.341   6.461  0.00  0.00    +0.177 C 
ATOM     16  C   UNL     1       8.943  -9.869   6.575  0.00  0.00    +0.179 C 
ATOM     17  C   UNL     1       8.268  -9.289   7.827  0.00  0.00    +0.201 C 
BRANCH  17  18
ATOM     18  O   UNL     1       6.929  -9.786   7.967  0.00  0.00    -0.384 OA
ATOM     19  H   UNL     1       6.735 -10.301   7.157  0.00  0.00    +0.210 HD
ENDBRANCH  17  18
BRANCH  16  20
ATOM     20  O   UNL     1       8.174  -9.610   5.396  0.00  0.00    -0.386 OA
ATOM     21  H   UNL     1       8.047  -8.644   5.293  0.00  0.00    +0.210 HD
ENDBRANCH  16  20
BRANCH  15  22
ATOM     22  O   UNL     1      11.160  -9.923   7.511  0.00  0.00    -0.386 OA
ATOM     23  H   UNL     1      11.089 -10.892   7.451  0.00  0.00    +0.210 HD
ENDBRANCH  15  22
BRANCH  14  24
ATOM     24  C   UNL     1      11.863  -7.282   6.637  0.00  0.00    +0.190 C 
BRANCH  24  25
ATOM     25  O   UNL     1      11.927  -5.854   6.642  0.00  0.00    -0.392 OA
ATOM     26  H   UNL     1      11.324  -5.515   5.961  0.00  0.00    +0.210 HD
ENDBRANCH  24  25
ENDBRANCH  14  24
ENDBRANCH  11  12
ENDBRANCH   5  11
BRANCH   3  27
ATOM     27  C   UNL     1       5.019  -4.902   9.382  0.00  0.00    +0.190 C 
BRANCH  27  28
ATOM     28  O   UNL     1       5.667  -5.466  10.519  0.00  0.00    -0.392 OA
ATOM     29  H   UNL     1       5.308  -6.361  10.643  0.00  0.00    +0.210 HD
ENDBRANCH  27  28
ENDBRANCH   3  27
BRANCH   1  30
ATOM     30  O   UNL     1       6.337  -4.230   5.061  0.00  0.00    -0.453 OA
BRANCH  30  36
ATOM     31  C   UNL     1       3.055  -3.542  -0.319  0.00  0.00    +0.127 A 
ATOM     32  C   UNL     1       4.390  -3.191  -0.033  0.00  0.00    +0.092 A 
ATOM     33  C   UNL     1       4.859  -3.234   1.281  0.00  0.00    +0.147 A 
ATOM     34  O   UNL     1       6.170  -2.911   1.566  0.00  0.00    -0.451 OA
ATOM     35  C   UNL     1       6.688  -3.290   2.827  0.00  0.00    +0.181 A 
ATOM     36  C   UNL     1       5.898  -3.686   3.854  0.00  0.00    +0.214 A 
ATOM     37  C   UNL     1       4.459  -3.387   3.639  0.00  0.00    +0.238 A 
ATOM     38  O   UNL     1       3.739  -2.952   4.527  0.00  0.00    -0.283 OA
ATOM     39  C   UNL     1       3.972  -3.575   2.289  0.00  0.00    +0.109 A 
ATOM     40  C   UNL     1       2.665  -3.973   2.016  0.00  0.00    +0.135 A 
ATOM     41  C   UNL     1       2.198  -3.948   0.710  0.00  0.00    +0.092 A 
BRANCH  35  42
ATOM     42  C   UNL     1       8.167  -3.136   2.927  0.00  0.00    +0.025 A 
ATOM     43  C   UNL     1       8.993  -3.342   1.805  0.00  0.00    +0.015 A 
ATOM     44  C   UNL     1      10.371  -3.084   1.854  0.00  0.00    +0.050 A 
ATOM     45  C   UNL     1      10.931  -2.611   3.029  0.00  0.00    +0.158 A 
ATOM     46  C   UNL     1      10.138  -2.391   4.149  0.00  0.00    +0.159 A 
ATOM     47  C   UNL     1       8.770  -2.644   4.111  0.00  0.00    +0.060 A 
BRANCH  46  48
ATOM     48  O   UNL     1      10.752  -1.898   5.268  0.00  0.00    -0.503 OA
ATOM     49  H   UNL     1      10.082  -1.771   5.962  0.00  0.00    +0.292 HD
ENDBRANCH  46  48
BRANCH  45  50
ATOM     50  O   UNL     1      12.270  -2.342   3.076  0.00  0.00    -0.503 OA
ATOM     51  H   UNL     1      12.419  -1.996   3.981  0.00  0.00    +0.292 HD
ENDBRANCH  45  50
ENDBRANCH  35  42
BRANCH  40  52
ATOM     52  O   UNL     1       1.862  -4.435   3.018  0.00  0.00    -0.506 OA
ATOM     53  H   UNL     1       0.929  -4.323   2.772  0.00  0.00    +0.292 HD
ENDBRANCH  40  52
BRANCH  31  55
ATOM     54  C   UNL     1       1.523  -4.174  -2.017  0.00  0.00    +0.277 C 
ATOM     55  O   UNL     1       2.680  -3.432  -1.632  0.00  0.00    -0.495 OA
ENDBRANCH  31  55
ENDBRANCH  30  36
ENDBRANCH   1  30
TORSDOF 18
