REMARK  Name = 
REMARK  12 active torsions:
REMARK  status: ('A' for Active; 'I' for Inactive)
REMARK    1  A    between atoms: C_2  and  O_37
REMARK    2  A    between atoms: C_3  and  O_36
REMARK    3  A    between atoms: C_5  and  O_35
REMARK    4  A    between atoms: C_6  and  O_9
REMARK    5  A    between atoms: O_9  and  C_10
REMARK    6  A    between atoms: C_12  and  O_34
REMARK    7  A    between atoms: C_17  and  C_26
REMARK    8  A    between atoms: C_18  and  O_21
REMARK    9  A    between atoms: O_21  and  S_22
REMARK   10  A    between atoms: S_22  and  O_25
REMARK   11  A    between atoms: C_28  and  O_33
REMARK   12  A    between atoms: C_29  and  O_32
REMARK                            x       y       z     vdW  Elec       q    Type
REMARK                         _______ _______ _______ _____ _____    ______ ____
ROOT
ATOM      1  C   UNL     1       2.707  -2.514  -0.082  0.00  0.00    +0.131 A 
ATOM      2  C   UNL     1       3.683  -1.547  -0.325  0.00  0.00    +0.093 A 
ATOM      3  C   UNL     1       4.992  -1.942  -0.642  0.00  0.00    +0.147 A 
ATOM      4  O   UNL     1       5.911  -0.941  -0.849  0.00  0.00    -0.451 OA
ATOM      5  C   UNL     1       7.222  -1.284  -1.150  0.00  0.00    +0.184 A 
ATOM      6  C   UNL     1       7.691  -2.544  -1.235  0.00  0.00    +0.248 A 
ATOM      7  C   UNL     1       6.735  -3.652  -0.953  0.00  0.00    +0.241 A 
ATOM      8  O   UNL     1       7.142  -4.805  -0.850  0.00  0.00    -0.283 OA
ATOM      9  C   UNL     1       5.325  -3.294  -0.713  0.00  0.00    +0.109 A 
ATOM     10  C   UNL     1       4.334  -4.257  -0.488  0.00  0.00    +0.135 A 
ATOM     11  C   UNL     1       3.037  -3.867  -0.163  0.00  0.00    +0.092 A 
ENDROOT
BRANCH   5  12
ATOM     12  C   UNL     1       8.076  -0.103  -1.381  0.00  0.00    +0.025 A 
ATOM     13  C   UNL     1       8.178   0.449  -2.671  0.00  0.00    +0.015 A 
ATOM     14  C   UNL     1       8.928   1.608  -2.896  0.00  0.00    +0.050 A 
ATOM     15  C   UNL     1       9.577   2.214  -1.832  0.00  0.00    +0.158 A 
ATOM     16  C   UNL     1       9.498   1.672  -0.552  0.00  0.00    +0.159 A 
ATOM     17  C   UNL     1       8.756   0.514  -0.316  0.00  0.00    +0.060 A 
BRANCH  15  18
ATOM     18  O   UNL     1      10.286   3.361  -2.049  0.00  0.00    -0.503 OA
ATOM     19  H   UNL     1      10.637   3.608  -1.170  0.00  0.00    +0.292 HD
ENDBRANCH  15  18
BRANCH  16  20
ATOM     20  O   UNL     1      10.162   2.331   0.448  0.00  0.00    -0.503 OA
ATOM     21  H   UNL     1      10.041   1.837   1.277  0.00  0.00    +0.292 HD
ENDBRANCH  16  20
ENDBRANCH   5  12
BRANCH  10  22
ATOM     22  O   UNL     1       4.614  -5.591  -0.577  0.00  0.00    -0.506 OA
ATOM     23  H   UNL     1       3.826  -6.118  -0.367  0.00  0.00    +0.292 HD
ENDBRANCH  10  22
BRANCH   1  24
ATOM     24  O   UNL     1       1.421  -2.282   0.309  0.00  0.00    -0.461 OA
BRANCH  24  27
ATOM     25  C   UNL     1       0.377   1.202   0.303  0.00  0.00    +0.198 C 
ATOM     26  O   UNL     1       1.016  -0.003   0.727  0.00  0.00    -0.337 OA
ATOM     27  C   UNL     1       0.778  -1.098  -0.170  0.00  0.00    +0.339 C 
ATOM     28  C   UNL     1      -0.743  -1.398  -0.214  0.00  0.00    +0.214 C 
ATOM     29  C   UNL     1      -1.471  -0.143  -0.711  0.00  0.00    +0.180 C 
ATOM     30  C   UNL     1      -1.143   1.048   0.200  0.00  0.00    +0.171 C 
BRANCH  28  31
ATOM     31  O   UNL     1      -1.229  -1.757   1.098  0.00  0.00    -0.383 OA
ATOM     32  H   UNL     1      -0.601  -1.398   1.752  0.00  0.00    +0.210 HD
ENDBRANCH  28  31
BRANCH  29  33
ATOM     33  O   UNL     1      -2.884  -0.346  -0.788  0.00  0.00    -0.386 OA
ATOM     34  H   UNL     1      -3.307   0.521  -0.641  0.00  0.00    +0.210 HD
ENDBRANCH  29  33
BRANCH  30  35
ATOM     35  O   UNL     1      -1.763   2.232  -0.307  0.00  0.00    -0.387 OA
ATOM     36  H   UNL     1      -1.404   2.428  -1.190  0.00  0.00    +0.210 HD
ENDBRANCH  30  35
ENDBRANCH  24  27
ENDBRANCH   1  24
BRANCH   6  37
ATOM     37  O   UNL     1       9.031  -2.812  -1.490  0.00  0.00    -0.317 OA
BRANCH  37  38
ATOM     38  S   UNL     1       9.569  -4.157  -2.252  0.00  0.00    +0.252 S 
ATOM     39  O   UNL     1      10.975  -3.963  -2.533  0.00  0.00    -0.108 OA
ATOM     40  O   UNL     1       8.645  -4.487  -3.317  0.00  0.00    -0.108 OA
BRANCH  38  41
ATOM     41  O   UNL     1       9.471  -5.329  -1.144  0.00  0.00    -0.222 OA
ATOM     42  H   UNL     1       8.507  -5.488  -0.973  0.00  0.00    +0.248 HD
ENDBRANCH  38  41
ENDBRANCH  37  38
ENDBRANCH   6  37
TORSDOF 12
