REMARK  Name = 
REMARK  23 active torsions:
REMARK  status: ('A' for Active; 'I' for Inactive)
REMARK    1  A    between atoms: C_1  and  C_2
REMARK    2  A    between atoms: C_3  and  O_62
REMARK    3  A    between atoms: C_5  and  O_61
REMARK    4  A    between atoms: C_6  and  O_60
REMARK    5  A    between atoms: C_8  and  O_11
REMARK    6  A    between atoms: O_11  and  C_12
REMARK    7  A    between atoms: C_13  and  O_38
REMARK    8  A    between atoms: C_16  and  C_22
REMARK    9  A    between atoms: C_17  and  O_21
REMARK   10  A    between atoms: C_19  and  O_20
REMARK   11  A    between atoms: C_22  and  O_23
REMARK   12  A    between atoms: O_23  and  C_24
REMARK   13  A    between atoms: C_26  and  O_37
REMARK   14  A    between atoms: C_27  and  O_36
REMARK   15  A    between atoms: C_29  and  O_35
REMARK   16  A    between atoms: C_31  and  C_33
REMARK   17  A    between atoms: C_33  and  O_34
REMARK   18  A    between atoms: O_38  and  C_39
REMARK   19  A    between atoms: C_40  and  C_52
REMARK   20  A    between atoms: C_44  and  O_51
REMARK   21  A    between atoms: C_46  and  O_50
REMARK   22  A    between atoms: C_54  and  O_59
REMARK   23  A    between atoms: C_55  and  O_58
REMARK                            x       y       z     vdW  Elec       q    Type
REMARK                         _______ _______ _______ _____ _____    ______ ____
ROOT
ATOM      1  C   UNL     1       2.256   2.620  -3.218  0.00  0.00    +0.221 C 
ATOM      2  C   UNL     1       1.234   2.069  -4.233  0.00  0.00    +0.180 C 
ATOM      3  C   UNL     1       1.738   2.210  -5.672  0.00  0.00    +0.177 C 
ATOM      4  C   UNL     1       2.217   3.637  -5.942  0.00  0.00    +0.179 C 
ATOM      5  O   UNL     1       3.245   4.016  -5.020  0.00  0.00    -0.331 OA
ATOM      6  C   UNL     1       2.869   3.988  -3.645  0.00  0.00    +0.340 C 
ENDROOT
BRANCH   3   7
ATOM      7  O   UNL     1       2.819   1.306  -5.930  0.00  0.00    -0.386 OA
ATOM      8  H   UNL     1       3.563   1.557  -5.347  0.00  0.00    +0.210 HD
ENDBRANCH   3   7
BRANCH   2   9
ATOM      9  O   UNL     1      -0.054   2.691  -4.118  0.00  0.00    -0.386 OA
ATOM     10  H   UNL     1      -0.051   3.345  -3.400  0.00  0.00    +0.210 HD
ENDBRANCH   2   9
BRANCH   6  11
ATOM     11  O   UNL     1       2.072   5.100  -3.200  0.00  0.00    -0.453 OA
BRANCH  11  12
ATOM     12  C   UNL     1       2.597   6.382  -3.437  0.00  0.00    +0.214 A 
ATOM     13  C   UNL     1       4.085   6.640  -3.441  0.00  0.00    +0.238 A 
ATOM     14  O   UNL     1       4.881   5.797  -3.040  0.00  0.00    -0.283 OA
ATOM     15  C   UNL     1       4.553   7.984  -3.827  0.00  0.00    +0.109 A 
ATOM     16  C   UNL     1       3.591   8.954  -4.072  0.00  0.00    +0.147 A 
ATOM     17  C   UNL     1       3.959  10.255  -4.431  0.00  0.00    +0.092 A 
ATOM     18  C   UNL     1       5.312  10.589  -4.511  0.00  0.00    +0.124 A 
ATOM     19  C   UNL     1       6.285   9.637  -4.246  0.00  0.00    +0.091 A 
ATOM     20  O   UNL     1       2.252   8.725  -3.936  0.00  0.00    -0.451 OA
ATOM     21  C   UNL     1       5.910   8.339  -3.903  0.00  0.00    +0.135 A 
ATOM     22  C   UNL     1       1.790   7.458  -3.600  0.00  0.00    +0.181 A 
BRANCH  22  23
ATOM     23  C   UNL     1       0.302   7.468  -3.424  0.00  0.00    +0.025 A 
ATOM     24  C   UNL     1      -0.478   8.456  -4.071  0.00  0.00    +0.015 A 
ATOM     25  C   UNL     1      -1.844   8.609  -3.808  0.00  0.00    +0.050 A 
ATOM     26  C   UNL     1      -2.444   7.785  -2.875  0.00  0.00    +0.158 A 
ATOM     27  C   UNL     1      -1.705   6.802  -2.229  0.00  0.00    +0.159 A 
ATOM     28  C   UNL     1      -0.348   6.630  -2.502  0.00  0.00    +0.060 A 
BRANCH  27  29
ATOM     29  O   UNL     1      -2.345   6.054  -1.278  0.00  0.00    -0.503 OA
ATOM     30  H   UNL     1      -1.671   5.640  -0.712  0.00  0.00    +0.292 HD
ENDBRANCH  27  29
BRANCH  26  31
ATOM     31  O   UNL     1      -3.755   7.981  -2.552  0.00  0.00    -0.503 OA
ATOM     32  H   UNL     1      -3.934   7.329  -1.845  0.00  0.00    +0.292 HD
ENDBRANCH  26  31
ENDBRANCH  22  23
BRANCH  21  33
ATOM     33  O   UNL     1       6.892   7.428  -3.632  0.00  0.00    -0.506 OA
ATOM     34  H   UNL     1       7.765   7.838  -3.735  0.00  0.00    +0.292 HD
ENDBRANCH  21  33
BRANCH  18  35
ATOM     35  O   UNL     1       5.722  11.842  -4.874  0.00  0.00    -0.507 OA
ATOM     36  H   UNL     1       4.937  12.378  -5.081  0.00  0.00    +0.292 HD
ENDBRANCH  18  35
ENDBRANCH  11  12
ENDBRANCH   6  11
BRANCH   4  37
ATOM     37  C   UNL     1       1.080   4.657  -5.946  0.00  0.00    +0.197 C 
BRANCH  37  38
ATOM     38  O   UNL     1       1.501   5.974  -6.305  0.00  0.00    -0.346 OA
BRANCH  38  39
ATOM     39  C   UNL     1       2.067   6.134  -7.608  0.00  0.00    +0.282 C 
ATOM     40  O   UNL     1       2.516   7.492  -7.743  0.00  0.00    -0.341 OA
ATOM     41  C   UNL     1       1.458   8.441  -7.547  0.00  0.00    +0.178 C 
ATOM     42  C   UNL     1       0.290   8.228  -8.538  0.00  0.00    +0.177 C 
ATOM     43  C   UNL     1      -0.163   6.766  -8.558  0.00  0.00    +0.179 C 
ATOM     44  C   UNL     1       1.054   5.837  -8.728  0.00  0.00    +0.201 C 
BRANCH  43  45
ATOM     45  O   UNL     1      -0.928   6.445  -7.387  0.00  0.00    -0.386 OA
ATOM     46  H   UNL     1      -0.366   6.577  -6.598  0.00  0.00    +0.210 HD
ENDBRANCH  43  45
BRANCH  44  47
ATOM     47  O   UNL     1       0.654   4.462  -8.779  0.00  0.00    -0.384 OA
ATOM     48  H   UNL     1      -0.276   4.420  -8.484  0.00  0.00    +0.210 HD
ENDBRANCH  44  47
BRANCH  42  49
ATOM     49  O   UNL     1       0.694   8.617  -9.857  0.00  0.00    -0.386 OA
ATOM     50  H   UNL     1      -0.023   8.388 -10.475  0.00  0.00    +0.210 HD
ENDBRANCH  42  49
BRANCH  41  51
ATOM     51  C   UNL     1       2.042   9.854  -7.630  0.00  0.00    +0.190 C 
BRANCH  51  52
ATOM     52  O   UNL     1       1.114  10.819  -7.142  0.00  0.00    -0.392 OA
ATOM     53  H   UNL     1       0.414  10.905  -7.813  0.00  0.00    +0.210 HD
ENDBRANCH  51  52
ENDBRANCH  41  51
ENDBRANCH  38  39
ENDBRANCH  37  38
ENDBRANCH   4  37
BRANCH   1  54
ATOM     54  O   UNL     1       3.283   1.611  -3.081  0.00  0.00    -0.337 OA
BRANCH  54  58
ATOM     55  C   UNL     1       7.227   2.093  -1.636  0.00  0.00    +0.041 C 
ATOM     56  C   UNL     1       6.302   0.975  -1.149  0.00  0.00    +0.149 C 
ATOM     57  O   UNL     1       5.194   0.772  -2.044  0.00  0.00    -0.343 OA
ATOM     58  C   UNL     1       4.258   1.855  -2.060  0.00  0.00    +0.282 C 
ATOM     59  C   UNL     1       3.629   2.058  -0.665  0.00  0.00    +0.201 C 
ATOM     60  C   UNL     1       4.733   2.283   0.363  0.00  0.00    +0.179 C 
ATOM     61  C   UNL     1       5.798   1.184   0.289  0.00  0.00    +0.174 C 
BRANCH  61  62
ATOM     62  O   UNL     1       5.197  -0.033   0.773  0.00  0.00    -0.387 OA
ATOM     63  H   UNL     1       4.508  -0.281   0.114  0.00  0.00    +0.210 HD
ENDBRANCH  61  62
BRANCH  60  64
ATOM     64  O   UNL     1       4.136   2.309   1.667  0.00  0.00    -0.386 OA
ATOM     65  H   UNL     1       4.200   1.388   1.997  0.00  0.00    +0.210 HD
ENDBRANCH  60  64
BRANCH  59  66
ATOM     66  O   UNL     1       2.832   0.912  -0.307  0.00  0.00    -0.384 OA
ATOM     67  H   UNL     1       2.374   1.147   0.521  0.00  0.00    +0.210 HD
ENDBRANCH  59  66
ENDBRANCH  54  58
ENDBRANCH   1  54
TORSDOF 22
