REMARK  Name = 
REMARK  27 active torsions:
REMARK  status: ('A' for Active; 'I' for Inactive)
REMARK    1  A    between atoms: C_3  and  O_68
REMARK    2  A    between atoms: C_4  and  O_67
REMARK    3  A    between atoms: C_6  and  C_7
REMARK    4  A    between atoms: C_8  and  C_9
REMARK    5  A    between atoms: C_9  and  O_11
REMARK    6  A    between atoms: O_11  and  C_12
REMARK    7  A    between atoms: C_13  and  O_66
REMARK    8  A    between atoms: C_15  and  O_65
REMARK    9  A    between atoms: C_17  and  C_63
REMARK   10  A    between atoms: C_19  and  O_21
REMARK   11  A    between atoms: O_21  and  C_22
REMARK   12  A    between atoms: C_23  and  O_62
REMARK   13  A    between atoms: C_25  and  O_61
REMARK   14  A    between atoms: C_27  and  C_53
REMARK   15  A    between atoms: C_29  and  O_31
REMARK   16  A    between atoms: O_31  and  C_32
REMARK   17  A    between atoms: C_33  and  C_45
REMARK   18  A    between atoms: C_37  and  O_44
REMARK   19  A    between atoms: C_39  and  O_43
REMARK   20  A    between atoms: C_47  and  O_52
REMARK   21  A    between atoms: C_48  and  O_51
REMARK   22  A    between atoms: C_53  and  O_54
REMARK   23  A    between atoms: O_54  and  C_55
REMARK   24  A    between atoms: C_55  and  C_57
REMARK   25  A    between atoms: C_57  and  C_58
REMARK   26  A    between atoms: C_58  and  O_60
REMARK   27  A    between atoms: C_63  and  O_64
REMARK                            x       y       z     vdW  Elec       q    Type
REMARK                         _______ _______ _______ _____ _____    ______ ____
ROOT
ATOM      1  C   UNL     1      -5.477  -2.841   0.702  0.00  0.00    +0.221 C 
ATOM      2  C   UNL     1      -4.943  -1.555   1.464  0.00  0.00    +0.340 C 
ATOM      3  O   UNL     1      -5.133  -0.314   0.750  0.00  0.00    -0.330 OA
ATOM      4  C   UNL     1      -5.017  -0.244  -0.685  0.00  0.00    +0.191 C 
ATOM      5  C   UNL     1      -5.751  -1.396  -1.385  0.00  0.00    +0.178 C 
ATOM      6  C   UNL     1      -5.218  -2.709  -0.818  0.00  0.00    +0.180 C 
ENDROOT
BRANCH   6   7
ATOM      7  O   UNL     1      -5.649  -3.815  -1.620  0.00  0.00    -0.386 OA
ATOM      8  H   UNL     1      -4.928  -3.971  -2.266  0.00  0.00    +0.210 HD
ENDBRANCH   6   7
BRANCH   5   9
ATOM      9  O   UNL     1      -5.524  -1.368  -2.802  0.00  0.00    -0.386 OA
ATOM     10  H   UNL     1      -5.950  -2.164  -3.170  0.00  0.00    +0.210 HD
ENDBRANCH   5   9
BRANCH   4  11
ATOM     11  C   UNL     1      -3.576  -0.099  -1.250  0.00  0.00    +0.266 C 
BRANCH  11  12
ATOM     12  O   UNL     1      -2.815   0.928  -0.601  0.00  0.00    -0.462 OA
BRANCH  12  13
ATOM     13  C   UNL     1      -2.818   2.139  -1.219  0.00  0.00    +0.318 C 
ATOM     14  O   UNL     1      -3.545   2.468  -2.147  0.00  0.00    -0.250 OA
BRANCH  13  15
ATOM     15  C   UNL     1      -1.814   3.048  -0.589  0.00  0.00    +0.240 C 
BRANCH  15  16
ATOM     16  C   UNL     1      -0.402   2.725  -0.966  0.00  0.00    +0.316 C 
ATOM     17  O   UNL     1      -0.042   1.790  -1.664  0.00  0.00    -0.250 OA
BRANCH  16  18
ATOM     18  O   UNL     1       0.488   3.589  -0.416  0.00  0.00    -0.480 OA
ATOM     19  H   UNL     1       0.091   4.305   0.115  0.00  0.00    +0.295 HD
ENDBRANCH  16  18
ENDBRANCH  15  16
ENDBRANCH  13  15
ENDBRANCH  12  13
ENDBRANCH  11  12
ENDBRANCH   4  11
BRANCH   2  20
ATOM     20  O   UNL     1      -5.537  -1.425   2.792  0.00  0.00    -0.453 OA
BRANCH  20  21
ATOM     21  C   UNL     1      -4.685  -1.216   3.879  0.00  0.00    +0.214 A 
ATOM     22  C   UNL     1      -4.326  -2.428   4.710  0.00  0.00    +0.238 A 
ATOM     23  O   UNL     1      -4.537  -3.557   4.277  0.00  0.00    -0.283 OA
ATOM     24  C   UNL     1      -3.687  -2.211   6.042  0.00  0.00    +0.109 A 
ATOM     25  C   UNL     1      -3.150  -0.978   6.299  0.00  0.00    +0.147 A 
ATOM     26  C   UNL     1      -2.348  -0.739   7.448  0.00  0.00    +0.092 A 
ATOM     27  C   UNL     1      -2.041  -1.778   8.320  0.00  0.00    +0.124 A 
ATOM     28  C   UNL     1      -2.639  -3.000   8.119  0.00  0.00    +0.091 A 
ATOM     29  O   UNL     1      -3.474   0.098   5.521  0.00  0.00    -0.451 OA
ATOM     30  C   UNL     1      -3.540  -3.154   7.055  0.00  0.00    +0.135 A 
ATOM     31  C   UNL     1      -4.418  -0.026   4.481  0.00  0.00    +0.181 A 
BRANCH  31  32
ATOM     32  C   UNL     1      -5.112   1.290   4.251  0.00  0.00    +0.025 A 
ATOM     33  C   UNL     1      -4.614   2.441   4.916  0.00  0.00    +0.015 A 
ATOM     34  C   UNL     1      -5.350   3.626   5.027  0.00  0.00    +0.050 A 
ATOM     35  C   UNL     1      -6.612   3.679   4.476  0.00  0.00    +0.158 A 
ATOM     36  C   UNL     1      -7.110   2.586   3.776  0.00  0.00    +0.159 A 
ATOM     37  C   UNL     1      -6.370   1.407   3.633  0.00  0.00    +0.060 A 
BRANCH  36  38
ATOM     38  O   UNL     1      -8.404   2.648   3.336  0.00  0.00    -0.503 OA
ATOM     39  H   UNL     1      -8.915   2.167   4.014  0.00  0.00    +0.292 HD
ENDBRANCH  36  38
BRANCH  35  40
ATOM     40  O   UNL     1      -7.381   4.785   4.688  0.00  0.00    -0.503 OA
ATOM     41  H   UNL     1      -8.221   4.614   4.220  0.00  0.00    +0.292 HD
ENDBRANCH  35  40
ENDBRANCH  31  32
BRANCH  30  42
ATOM     42  O   UNL     1      -4.427  -4.165   7.181  0.00  0.00    -0.506 OA
ATOM     43  H   UNL     1      -3.932  -4.924   7.566  0.00  0.00    +0.292 HD
ENDBRANCH  30  42
BRANCH  27  44
ATOM     44  O   UNL     1      -1.230  -1.654   9.406  0.00  0.00    -0.507 OA
ATOM     45  H   UNL     1      -0.950  -0.728   9.500  0.00  0.00    +0.292 HD
ENDBRANCH  27  44
ENDBRANCH  20  21
ENDBRANCH   2  20
BRANCH   1  46
ATOM     46  O   UNL     1      -6.689  -3.453   1.166  0.00  0.00    -0.336 OA
BRANCH  46  48
ATOM     47  C   UNL     1      -8.933  -4.330   1.075  0.00  0.00    +0.263 C 
ATOM     48  C   UNL     1      -8.001  -3.093   0.759  0.00  0.00    +0.295 C 
ATOM     49  O   UNL     1      -8.454  -1.890   1.384  0.00  0.00    -0.340 OA
ATOM     50  C   UNL     1      -9.830  -1.498   1.166  0.00  0.00    +0.178 C 
ATOM     51  C   UNL     1     -10.841  -2.632   1.432  0.00  0.00    +0.178 C 
ATOM     52  C   UNL     1     -10.380  -3.902   0.717  0.00  0.00    +0.191 C 
BRANCH  52  53
ATOM     53  O   UNL     1     -11.384  -4.921   0.787  0.00  0.00    -0.385 OA
ATOM     54  H   UNL     1     -11.219  -5.464   1.558  0.00  0.00    +0.210 HD
ENDBRANCH  52  53
BRANCH  51  55
ATOM     55  O   UNL     1     -12.152  -2.251   0.977  0.00  0.00    -0.386 OA
ATOM     56  H   UNL     1     -12.695  -3.064   0.974  0.00  0.00    +0.210 HD
ENDBRANCH  51  55
BRANCH  50  57
ATOM     57  C   UNL     1     -10.082  -0.803  -0.200  0.00  0.00    +0.190 C 
BRANCH  57  58
ATOM     58  O   UNL     1      -9.104   0.197  -0.479  0.00  0.00    -0.392 OA
ATOM     59  H   UNL     1      -9.001   0.737   0.325  0.00  0.00    +0.210 HD
ENDBRANCH  57  58
ENDBRANCH  50  57
BRANCH  47  60
ATOM     60  O   UNL     1      -8.631  -5.121   2.314  0.00  0.00    -0.450 OA
BRANCH  60  61
ATOM     61  C   UNL     1      -8.550  -4.643   3.580  0.00  0.00    +0.332 C 
ATOM     62  O   UNL     1      -9.113  -3.615   3.947  0.00  0.00    -0.246 OA
BRANCH  61  64
ATOM     63  C   UNL     1      -7.193  -6.737   4.537  0.00  0.00    +0.015 C 
ATOM     64  C   UNL     1      -7.663  -5.458   4.537  0.00  0.00    +0.092 C 
BRANCH  63  66
ATOM     65  C   UNL     1      -6.158  -8.702   5.888  0.00  0.00    +0.012 A 
ATOM     66  C   UNL     1      -6.180  -7.341   5.505  0.00  0.00    -0.021 A 
ATOM     67  C   UNL     1      -5.101  -6.584   5.972  0.00  0.00    +0.057 A 
ATOM     68  C   UNL     1      -4.130  -7.114   6.848  0.00  0.00    +0.159 A 
ATOM     69  C   UNL     1      -4.162  -8.429   7.252  0.00  0.00    +0.158 A 
ATOM     70  C   UNL     1      -5.158  -9.246   6.752  0.00  0.00    +0.050 A 
BRANCH  69  71
ATOM     71  O   UNL     1      -3.188  -8.826   8.126  0.00  0.00    -0.503 OA
ATOM     72  H   UNL     1      -3.548  -9.516   8.708  0.00  0.00    +0.292 HD
ENDBRANCH  69  71
BRANCH  68  73
ATOM     73  O   UNL     1      -3.144  -6.320   7.390  0.00  0.00    -0.503 OA
ATOM     74  H   UNL     1      -2.614  -6.930   7.950  0.00  0.00    +0.292 HD
ENDBRANCH  68  73
ENDBRANCH  63  66
ENDBRANCH  61  64
ENDBRANCH  60  61
ENDBRANCH  47  60
ENDBRANCH  46  48
ENDBRANCH   1  46
TORSDOF 27
