REMARK  Name = 
REMARK  15 active torsions:
REMARK  status: ('A' for Active; 'I' for Inactive)
REMARK    1  A    between atoms: C_1  and  C_2
REMARK    2  A    between atoms: C_3  and  O_46
REMARK    3  A    between atoms: C_5  and  O_45
REMARK    4  A    between atoms: C_6  and  O_44
REMARK    5  A    between atoms: C_8  and  O_11
REMARK    6  A    between atoms: O_11  and  C_12
REMARK    7  A    between atoms: C_13  and  O_22
REMARK    8  A    between atoms: C_17  and  O_21
REMARK    9  A    between atoms: C_19  and  O_20
REMARK   10  A    between atoms: O_22  and  C_23
REMARK   11  A    between atoms: C_24  and  C_36
REMARK   12  A    between atoms: C_28  and  O_35
REMARK   13  A    between atoms: C_30  and  O_34
REMARK   14  A    between atoms: C_38  and  O_43
REMARK   15  A    between atoms: C_39  and  O_42
REMARK                            x       y       z     vdW  Elec       q    Type
REMARK                         _______ _______ _______ _____ _____    ______ ____
ROOT
ATOM      1  O   UNL     1       1.899   5.052  -3.336  0.00  0.00    -0.453 OA
ENDROOT
BRANCH   1   2
ATOM      2  C   UNL     1       2.421   6.329  -3.585  0.00  0.00    +0.214 A 
ATOM      3  C   UNL     1       3.892   6.640  -3.531  0.00  0.00    +0.238 A 
ATOM      4  O   UNL     1       4.705   5.845  -3.074  0.00  0.00    -0.283 OA
ATOM      5  C   UNL     1       4.316   7.981  -3.974  0.00  0.00    +0.109 A 
ATOM      6  C   UNL     1       3.325   8.913  -4.281  0.00  0.00    +0.147 A 
ATOM      7  C   UNL     1       3.670  10.198  -4.714  0.00  0.00    +0.092 A 
ATOM      8  C   UNL     1       5.017  10.549  -4.809  0.00  0.00    +0.124 A 
ATOM      9  C   UNL     1       6.013   9.641  -4.479  0.00  0.00    +0.091 A 
ATOM     10  O   UNL     1       1.983   8.651  -4.147  0.00  0.00    -0.451 OA
ATOM     11  C   UNL     1       5.666   8.357  -4.065  0.00  0.00    +0.135 A 
ATOM     12  C   UNL     1       1.594   7.368  -3.816  0.00  0.00    +0.181 A 
BRANCH  12  13
ATOM     13  C   UNL     1       0.136   7.204  -3.694  0.00  0.00    +0.025 A 
ATOM     14  C   UNL     1      -0.480   7.353  -2.436  0.00  0.00    +0.015 A 
ATOM     15  C   UNL     1      -1.844   7.094  -2.276  0.00  0.00    +0.050 A 
ATOM     16  C   UNL     1      -2.583   6.677  -3.371  0.00  0.00    +0.158 A 
ATOM     17  C   UNL     1      -1.987   6.545  -4.623  0.00  0.00    +0.159 A 
ATOM     18  C   UNL     1      -0.635   6.823  -4.800  0.00  0.00    +0.060 A 
BRANCH  16  19
ATOM     19  O   UNL     1      -3.901   6.362  -3.204  0.00  0.00    -0.503 OA
ATOM     20  H   UNL     1      -4.188   6.026  -4.077  0.00  0.00    +0.292 HD
ENDBRANCH  16  19
BRANCH  17  21
ATOM     21  O   UNL     1      -2.776   6.108  -5.651  0.00  0.00    -0.503 OA
ATOM     22  H   UNL     1      -2.199   5.842  -6.388  0.00  0.00    +0.292 HD
ENDBRANCH  17  21
ENDBRANCH  12  13
BRANCH   8  23
ATOM     23  O   UNL     1       5.410  11.782  -5.218  0.00  0.00    -0.507 OA
ATOM     24  H   UNL     1       4.625  12.316  -5.427  0.00  0.00    +0.292 HD
ENDBRANCH   8  23
BRANCH  11  25
ATOM     25  O   UNL     1       6.669   7.484  -3.746  0.00  0.00    -0.506 OA
ATOM     26  H   UNL     1       7.534   7.918  -3.825  0.00  0.00    +0.292 HD
ENDBRANCH  11  25
ENDBRANCH   1   2
BRANCH   1  32
ATOM     27  C   UNL     1       2.172   2.597  -3.241  0.00  0.00    +0.221 C 
ATOM     28  C   UNL     1       1.082   2.123  -4.219  0.00  0.00    +0.180 C 
ATOM     29  C   UNL     1       1.574   2.227  -5.673  0.00  0.00    +0.171 C 
ATOM     30  C   UNL     1       2.066   3.641  -5.950  0.00  0.00    +0.198 C 
ATOM     31  O   UNL     1       3.130   3.988  -5.077  0.00  0.00    -0.337 OA
ATOM     32  C   UNL     1       2.760   3.964  -3.696  0.00  0.00    +0.340 C 
BRANCH  28  33
ATOM     33  O   UNL     1      -0.130   2.870  -4.014  0.00  0.00    -0.386 OA
ATOM     34  H   UNL     1       0.065   3.823  -4.006  0.00  0.00    +0.210 HD
ENDBRANCH  28  33
BRANCH  29  35
ATOM     35  O   UNL     1       0.543   1.883  -6.597  0.00  0.00    -0.387 OA
ATOM     36  H   UNL     1       0.971   1.682  -7.447  0.00  0.00    +0.210 HD
ENDBRANCH  29  35
BRANCH  27  37
ATOM     37  O   UNL     1       3.188   1.569  -3.142  0.00  0.00    -0.337 OA
BRANCH  37  41
ATOM     38  C   UNL     1       7.238   2.004  -1.861  0.00  0.00    +0.041 C 
ATOM     39  C   UNL     1       6.308   0.905  -1.341  0.00  0.00    +0.149 C 
ATOM     40  O   UNL     1       5.163   0.724  -2.196  0.00  0.00    -0.343 OA
ATOM     41  C   UNL     1       4.220   1.808  -2.165  0.00  0.00    +0.282 C 
ATOM     42  C   UNL     1       3.669   2.001  -0.732  0.00  0.00    +0.201 C 
ATOM     43  C   UNL     1       4.829   2.238   0.237  0.00  0.00    +0.179 C 
ATOM     44  C   UNL     1       5.881   1.128   0.120  0.00  0.00    +0.174 C 
BRANCH  42  45
ATOM     45  O   UNL     1       2.921   0.840  -0.318  0.00  0.00    -0.384 OA
ATOM     46  H   UNL     1       2.482   1.089   0.517  0.00  0.00    +0.210 HD
ENDBRANCH  42  45
BRANCH  43  47
ATOM     47  O   UNL     1       4.311   2.281   1.576  0.00  0.00    -0.386 OA
ATOM     48  H   UNL     1       4.388   1.364   1.912  0.00  0.00    +0.210 HD
ENDBRANCH  43  47
BRANCH  44  49
ATOM     49  O   UNL     1       5.309  -0.081   0.653  0.00  0.00    -0.387 OA
ATOM     50  H   UNL     1       4.565  -0.317   0.054  0.00  0.00    +0.210 HD
ENDBRANCH  44  49
ENDBRANCH  37  41
ENDBRANCH  27  37
ENDBRANCH   1  32
TORSDOF 14
