REMARK  Name = 
REMARK  22 active torsions:
REMARK  status: ('A' for Active; 'I' for Inactive)
REMARK    1  A    between atoms: C_1  and  C_2
REMARK    2  A    between atoms: C_3  and  O_61
REMARK    3  A    between atoms: C_5  and  O_60
REMARK    4  A    between atoms: C_7  and  O_59
REMARK    5  A    between atoms: C_8  and  O_11
REMARK    6  A    between atoms: O_11  and  C_12
REMARK    7  A    between atoms: C_13  and  O_58
REMARK    8  A    between atoms: C_15  and  O_57
REMARK    9  A    between atoms: C_17  and  C_56
REMARK   10  A    between atoms: C_19  and  O_21
REMARK   11  A    between atoms: O_21  and  C_22
REMARK   12  A    between atoms: C_22  and  C_23
REMARK   13  A    between atoms: C_24  and  O_55
REMARK   14  A    between atoms: C_26  and  O_54
REMARK   15  A    between atoms: C_27  and  O_53
REMARK   16  A    between atoms: C_28  and  O_31
REMARK   17  A    between atoms: O_31  and  C_32
REMARK   18  A    between atoms: C_33  and  C_45
REMARK   19  A    between atoms: C_37  and  O_44
REMARK   20  A    between atoms: C_39  and  O_43
REMARK   21  A    between atoms: C_47  and  O_52
REMARK   22  A    between atoms: C_48  and  O_51
REMARK                            x       y       z     vdW  Elec       q    Type
REMARK                         _______ _______ _______ _____ _____    ______ ____
ROOT
ATOM      1  C   UNL     1       1.355  -0.270  -2.038  0.00  0.00    +0.179 C 
ATOM      2  O   UNL     1       2.784  -0.285  -2.365  0.00  0.00    -0.331 OA
ATOM      3  C   UNL     1       3.242  -0.314  -3.754  0.00  0.00    +0.340 C 
ATOM      4  C   UNL     1       2.349  -1.196  -4.686  0.00  0.00    +0.214 C 
ATOM      5  C   UNL     1       0.862  -1.046  -4.370  0.00  0.00    +0.180 C 
ATOM      6  C   UNL     1       0.594  -1.299  -2.887  0.00  0.00    +0.177 C 
ENDROOT
BRANCH   6   7
ATOM      7  O   UNL     1      -0.806  -1.299  -2.638  0.00  0.00    -0.386 OA
ATOM      8  H   UNL     1      -0.951  -1.136  -1.686  0.00  0.00    +0.210 HD
ENDBRANCH   6   7
BRANCH   5   9
ATOM      9  O   UNL     1       0.119  -1.973  -5.181  0.00  0.00    -0.386 OA
ATOM     10  H   UNL     1       0.566  -2.835  -5.077  0.00  0.00    +0.210 HD
ENDBRANCH   5   9
BRANCH   4  11
ATOM     11  O   UNL     1       2.670  -2.607  -4.673  0.00  0.00    -0.383 OA
ATOM     12  H   UNL     1       3.136  -2.816  -3.847  0.00  0.00    +0.210 HD
ENDBRANCH   4  11
BRANCH   3  13
ATOM     13  O   UNL     1       4.665  -0.785  -3.818  0.00  0.00    -0.453 OA
BRANCH  13  14
ATOM     14  C   UNL     1       5.525  -0.048  -4.638  0.00  0.00    +0.214 A 
ATOM     15  C   UNL     1       4.973   0.672  -5.803  0.00  0.00    +0.238 A 
ATOM     16  O   UNL     1       4.098   0.198  -6.513  0.00  0.00    -0.283 OA
ATOM     17  C   UNL     1       5.591   1.921  -6.158  0.00  0.00    +0.109 A 
ATOM     18  C   UNL     1       6.970   1.964  -6.014  0.00  0.00    +0.147 A 
ATOM     19  C   UNL     1       7.653   3.069  -6.521  0.00  0.00    +0.092 A 
ATOM     20  C   UNL     1       6.917   4.102  -7.136  0.00  0.00    +0.124 A 
ATOM     21  C   UNL     1       5.527   4.058  -7.229  0.00  0.00    +0.091 A 
ATOM     22  O   UNL     1       7.642   0.911  -5.425  0.00  0.00    -0.451 OA
ATOM     23  C   UNL     1       4.857   2.960  -6.730  0.00  0.00    +0.135 A 
ATOM     24  C   UNL     1       6.901  -0.031  -4.654  0.00  0.00    +0.181 A 
BRANCH  24  25
ATOM     25  C   UNL     1       7.813  -1.028  -3.993  0.00  0.00    +0.025 A 
ATOM     26  C   UNL     1       7.555  -2.412  -4.140  0.00  0.00    +0.015 A 
ATOM     27  C   UNL     1       8.475  -3.382  -3.698  0.00  0.00    +0.050 A 
ATOM     28  C   UNL     1       9.663  -2.997  -3.122  0.00  0.00    +0.158 A 
ATOM     29  C   UNL     1       9.961  -1.649  -2.993  0.00  0.00    +0.159 A 
ATOM     30  C   UNL     1       9.055  -0.663  -3.434  0.00  0.00    +0.060 A 
BRANCH  29  31
ATOM     31  O   UNL     1      11.176  -1.339  -2.433  0.00  0.00    -0.503 OA
ATOM     32  H   UNL     1      11.248  -0.376  -2.366  0.00  0.00    +0.292 HD
ENDBRANCH  29  31
BRANCH  28  33
ATOM     33  O   UNL     1      10.560  -3.949  -2.707  0.00  0.00    -0.503 OA
ATOM     34  H   UNL     1      11.317  -3.444  -2.356  0.00  0.00    +0.292 HD
ENDBRANCH  28  33
ENDBRANCH  24  25
BRANCH  23  35
ATOM     35  O   UNL     1       3.496   2.899  -6.745  0.00  0.00    -0.506 OA
ATOM     36  H   UNL     1       3.155   3.492  -7.436  0.00  0.00    +0.292 HD
ENDBRANCH  23  35
BRANCH  20  37
ATOM     37  O   UNL     1       7.517   5.201  -7.669  0.00  0.00    -0.507 OA
ATOM     38  H   UNL     1       8.481   5.091  -7.649  0.00  0.00    +0.292 HD
ENDBRANCH  20  37
ENDBRANCH  13  14
ENDBRANCH   3  13
BRANCH   1  39
ATOM     39  C   UNL     1       0.615   1.147  -1.883  0.00  0.00    +0.197 C 
BRANCH  39  40
ATOM     40  O   UNL     1      -0.752   1.072  -1.299  0.00  0.00    -0.346 OA
BRANCH  40  42
ATOM     41  C   UNL     1      -3.119   2.313  -0.996  0.00  0.00    +0.208 C 
ATOM     42  C   UNL     1      -1.506   2.332  -1.357  0.00  0.00    +0.282 C 
ATOM     43  O   UNL     1      -0.856   3.337  -0.561  0.00  0.00    -0.343 OA
ATOM     44  C   UNL     1      -1.289   4.692  -0.791  0.00  0.00    +0.149 C 
ATOM     45  C   UNL     1      -0.691   5.242  -2.088  0.00  0.00    +0.041 C 
ATOM     46  C   UNL     1      -2.821   4.867  -0.694  0.00  0.00    +0.174 C 
ATOM     47  C   UNL     1      -3.588   3.737  -1.416  0.00  0.00    +0.179 C 
BRANCH  47  48
ATOM     48  O   UNL     1      -5.002   3.907  -1.276  0.00  0.00    -0.386 OA
ATOM     49  H   UNL     1      -5.429   3.410  -1.996  0.00  0.00    +0.210 HD
ENDBRANCH  47  48
BRANCH  46  50
ATOM     50  O   UNL     1      -3.187   4.937   0.690  0.00  0.00    -0.387 OA
ATOM     51  H   UNL     1      -2.919   4.086   1.094  0.00  0.00    +0.210 HD
ENDBRANCH  46  50
BRANCH  41  52
ATOM     52  O   UNL     1      -3.380   1.972   0.383  0.00  0.00    -0.338 OA
BRANCH  52  56
ATOM     53  C   UNL     1      -5.422   2.047   4.496  0.00  0.00    +0.041 C 
ATOM     54  C   UNL     1      -5.066   1.027   3.418  0.00  0.00    +0.149 C 
ATOM     55  O   UNL     1      -4.206   1.579   2.426  0.00  0.00    -0.343 OA
ATOM     56  C   UNL     1      -4.636   2.058   1.129  0.00  0.00    +0.282 C 
ATOM     57  C   UNL     1      -5.954   1.358   0.618  0.00  0.00    +0.201 C 
ATOM     58  C   UNL     1      -6.961   1.093   1.792  0.00  0.00    +0.179 C 
ATOM     59  C   UNL     1      -6.286   0.280   2.894  0.00  0.00    +0.174 C 
BRANCH  59  60
ATOM     60  O   UNL     1      -5.913  -1.016   2.401  0.00  0.00    -0.387 OA
ATOM     61  H   UNL     1      -4.988  -0.961   2.087  0.00  0.00    +0.210 HD
ENDBRANCH  59  60
BRANCH  58  62
ATOM     62  O   UNL     1      -8.096   0.389   1.317  0.00  0.00    -0.386 OA
ATOM     63  H   UNL     1      -8.583  -0.006   2.085  0.00  0.00    +0.210 HD
ENDBRANCH  58  62
BRANCH  57  64
ATOM     64  O   UNL     1      -5.667   0.122  -0.054  0.00  0.00    -0.384 OA
ATOM     65  H   UNL     1      -6.332  -0.521   0.275  0.00  0.00    +0.210 HD
ENDBRANCH  57  64
ENDBRANCH  52  56
ENDBRANCH  41  52
ENDBRANCH  40  42
ENDBRANCH  39  40
ENDBRANCH   1  39
TORSDOF 20
