REMARK  Name = 
REMARK  27 active torsions:
REMARK  status: ('A' for Active; 'I' for Inactive)
REMARK    1  A    between atoms: C_1  and  O_2
REMARK    2  A    between atoms: O_2  and  C_3
REMARK    3  A    between atoms: C_5  and  C_12
REMARK    4  A    between atoms: C_7  and  O_10
REMARK    5  A    between atoms: C_8  and  O_9
REMARK    6  A    between atoms: O_10  and  C_11
REMARK    7  A    between atoms: C_13  and  C_14
REMARK    8  A    between atoms: C_14  and  O_16
REMARK    9  A    between atoms: O_16  and  C_17
REMARK   10  A    between atoms: C_17  and  C_18
REMARK   11  A    between atoms: C_19  and  O_66
REMARK   12  A    between atoms: C_21  and  O_65
REMARK   13  A    between atoms: C_23  and  O_50
REMARK   14  A    between atoms: C_24  and  O_27
REMARK   15  A    between atoms: O_27  and  C_28
REMARK   16  A    between atoms: C_29  and  C_41
REMARK   17  A    between atoms: C_33  and  O_40
REMARK   18  A    between atoms: C_35  and  O_39
REMARK   19  A    between atoms: C_43  and  O_48
REMARK   20  A    between atoms: C_44  and  O_47
REMARK   21  A    between atoms: O_48  and  C_49
REMARK   22  A    between atoms: O_50  and  C_51
REMARK   23  A    between atoms: C_53  and  O_64
REMARK   24  A    between atoms: C_54  and  O_63
REMARK   25  A    between atoms: C_56  and  O_62
REMARK   26  A    between atoms: C_58  and  C_60
REMARK   27  A    between atoms: C_60  and  O_61
REMARK                            x       y       z     vdW  Elec       q    Type
REMARK                         _______ _______ _______ _____ _____    ______ ____
ROOT
ATOM      1  C   UNL     1       4.102   8.831  -5.741  0.00  0.00    +0.191 C 
ATOM      2  O   UNL     1       4.462  10.118  -5.190  0.00  0.00    -0.330 OA
ATOM      3  C   UNL     1       3.517  11.205  -5.236  0.00  0.00    +0.340 C 
ATOM      4  C   UNL     1       2.586  11.237  -6.546  0.00  0.00    +0.221 C 
ATOM      5  C   UNL     1       2.274   9.820  -7.072  0.00  0.00    +0.180 C 
ATOM      6  C   UNL     1       3.549   8.987  -7.159  0.00  0.00    +0.178 C 
ENDROOT
BRANCH   6   7
ATOM      7  O   UNL     1       3.201   7.728  -7.759  0.00  0.00    -0.386 OA
ATOM      8  H   UNL     1       3.989   7.153  -7.735  0.00  0.00    +0.210 HD
ENDBRANCH   6   7
BRANCH   5   9
ATOM      9  O   UNL     1       1.599   9.740  -8.329  0.00  0.00    -0.386 OA
ATOM     10  H   UNL     1       1.783   8.840  -8.674  0.00  0.00    +0.210 HD
ENDBRANCH   5   9
BRANCH   4  11
ATOM     11  O   UNL     1       3.056  12.137  -7.581  0.00  0.00    -0.337 OA
BRANCH  11  12
ATOM     12  C   UNL     1       2.093  12.473  -8.615  0.00  0.00    +0.282 C 
ATOM     13  O   UNL     1       2.709  13.352  -9.575  0.00  0.00    -0.341 OA
ATOM     14  C   UNL     1       3.030  14.657  -9.070  0.00  0.00    +0.178 C 
ATOM     15  C   UNL     1       1.819  15.368  -8.420  0.00  0.00    +0.177 C 
ATOM     16  C   UNL     1       1.083  14.448  -7.441  0.00  0.00    +0.179 C 
ATOM     17  C   UNL     1       0.762  13.121  -8.138  0.00  0.00    +0.201 C 
BRANCH  17  18
ATOM     18  O   UNL     1      -0.068  12.301  -7.304  0.00  0.00    -0.384 OA
ATOM     19  H   UNL     1      -0.045  12.688  -6.410  0.00  0.00    +0.210 HD
ENDBRANCH  17  18
BRANCH  16  20
ATOM     20  O   UNL     1       1.800  14.242  -6.221  0.00  0.00    -0.386 OA
ATOM     21  H   UNL     1       2.708  13.924  -6.435  0.00  0.00    +0.210 HD
ENDBRANCH  16  20
BRANCH  15  22
ATOM     22  O   UNL     1       0.890  15.788  -9.432  0.00  0.00    -0.386 OA
ATOM     23  H   UNL     1       0.063  16.067  -9.001  0.00  0.00    +0.210 HD
ENDBRANCH  15  22
BRANCH  14  24
ATOM     24  C   UNL     1       3.587  15.479 -10.249  0.00  0.00    +0.190 C 
BRANCH  24  25
ATOM     25  O   UNL     1       4.740  14.875 -10.844  0.00  0.00    -0.392 OA
ATOM     26  H   UNL     1       4.986  14.110 -10.295  0.00  0.00    +0.210 HD
ENDBRANCH  24  25
ENDBRANCH  14  24
ENDBRANCH  11  12
ENDBRANCH   4  11
BRANCH   3  27
ATOM     27  O   UNL     1       4.143  12.527  -5.058  0.00  0.00    -0.453 OA
BRANCH  27  28
ATOM     28  C   UNL     1       4.925  12.991  -4.002  0.00  0.00    +0.214 A 
ATOM     29  C   UNL     1       5.650  14.323  -4.229  0.00  0.00    +0.238 A 
ATOM     30  O   UNL     1       5.483  14.919  -5.304  0.00  0.00    -0.283 OA
ATOM     31  C   UNL     1       6.464  14.908  -3.113  0.00  0.00    +0.109 A 
ATOM     32  C   UNL     1       6.541  14.183  -1.929  0.00  0.00    +0.147 A 
ATOM     33  C   UNL     1       7.282  14.629  -0.822  0.00  0.00    +0.092 A 
ATOM     34  C   UNL     1       7.956  15.835  -0.892  0.00  0.00    +0.124 A 
ATOM     35  C   UNL     1       7.885  16.605  -2.046  0.00  0.00    +0.091 A 
ATOM     36  O   UNL     1       5.868  13.016  -1.740  0.00  0.00    -0.451 OA
ATOM     37  C   UNL     1       7.139  16.146  -3.149  0.00  0.00    +0.135 A 
ATOM     38  C   UNL     1       5.031  12.551  -2.724  0.00  0.00    +0.181 A 
BRANCH  38  39
ATOM     39  C   UNL     1       4.034  11.682  -2.132  0.00  0.00    +0.025 A 
ATOM     40  C   UNL     1       4.178  10.313  -2.059  0.00  0.00    +0.015 A 
ATOM     41  C   UNL     1       3.063   9.575  -1.689  0.00  0.00    +0.050 A 
ATOM     42  C   UNL     1       1.827  10.183  -1.433  0.00  0.00    +0.158 A 
ATOM     43  C   UNL     1       1.742  11.564  -1.318  0.00  0.00    +0.162 A 
ATOM     44  C   UNL     1       2.878  12.300  -1.635  0.00  0.00    +0.061 A 
BRANCH  43  45
ATOM     45  O   UNL     1       0.728  12.378  -0.928  0.00  0.00    -0.491 OA
ATOM     46  C   UNL     1      -0.609  11.937  -0.871  0.00  0.00    +0.277 C 
ENDBRANCH  43  45
BRANCH  42  47
ATOM     47  O   UNL     1       0.783   9.313  -1.352  0.00  0.00    -0.503 OA
ATOM     48  H   UNL     1      -0.018   9.777  -1.632  0.00  0.00    +0.292 HD
ENDBRANCH  42  47
ENDBRANCH  38  39
BRANCH  37  49
ATOM     49  O   UNL     1       7.089  16.950  -4.256  0.00  0.00    -0.506 OA
ATOM     50  H   UNL     1       7.597  17.764  -4.097  0.00  0.00    +0.292 HD
ENDBRANCH  37  49
BRANCH  34  51
ATOM     51  O   UNL     1       8.683  16.317   0.161  0.00  0.00    -0.507 OA
ATOM     52  H   UNL     1       8.650  15.665   0.886  0.00  0.00    +0.292 HD
ENDBRANCH  34  51
ENDBRANCH  27  28
ENDBRANCH   3  27
BRANCH   1  53
ATOM     53  C   UNL     1       3.129   7.925  -4.928  0.00  0.00    +0.266 C 
BRANCH  53  54
ATOM     54  O   UNL     1       3.602   7.489  -3.655  0.00  0.00    -0.459 OA
BRANCH  54  55
ATOM     55  C   UNL     1       4.482   6.464  -3.617  0.00  0.00    +0.332 C 
ATOM     56  O   UNL     1       5.097   6.005  -4.542  0.00  0.00    -0.246 OA
BRANCH  55  58
ATOM     57  C   UNL     1       5.350   5.056  -1.800  0.00  0.00    +0.015 C 
ATOM     58  C   UNL     1       4.490   5.991  -2.218  0.00  0.00    +0.092 C 
BRANCH  57  63
ATOM     59  C   UNL     1       6.183   3.066   1.268  0.00  0.00    +0.166 A 
ATOM     60  C   UNL     1       6.219   4.071   2.263  0.00  0.00    +0.201 A 
ATOM     61  C   UNL     1       5.856   5.384   1.947  0.00  0.00    +0.166 A 
ATOM     62  C   UNL     1       5.510   5.673   0.617  0.00  0.00    +0.057 A 
ATOM     63  C   UNL     1       5.505   4.696  -0.386  0.00  0.00    -0.018 A 
ATOM     64  C   UNL     1       5.801   3.381  -0.040  0.00  0.00    +0.057 A 
BRANCH  59  66
ATOM     65  C   UNL     1       7.073   0.962   0.642  0.00  0.00    +0.277 C 
ATOM     66  O   UNL     1       6.508   1.787   1.658  0.00  0.00    -0.491 OA
ENDBRANCH  59  66
BRANCH  61  67
ATOM     67  O   UNL     1       5.793   6.512   2.712  0.00  0.00    -0.491 OA
ATOM     68  C   UNL     1       6.258   6.551   4.044  0.00  0.00    +0.277 C 
ENDBRANCH  61  67
BRANCH  60  69
ATOM     69  O   UNL     1       6.669   3.672   3.494  0.00  0.00    -0.501 OA
ATOM     70  H   UNL     1       6.297   4.241   4.175  0.00  0.00    +0.292 HD
ENDBRANCH  60  69
ENDBRANCH  57  63
ENDBRANCH  55  58
ENDBRANCH  54  55
ENDBRANCH  53  54
ENDBRANCH   1  53
TORSDOF 24
