REMARK  Name = 
REMARK  20 active torsions:
REMARK  status: ('A' for Active; 'I' for Inactive)
REMARK    1  A    between atoms: C_1  and  C_2
REMARK    2  A    between atoms: C_3  and  O_53
REMARK    3  A    between atoms: C_5  and  O_52
REMARK    4  A    between atoms: C_6  and  O_51
REMARK    5  A    between atoms: C_8  and  O_11
REMARK    6  A    between atoms: O_11  and  C_12
REMARK    7  A    between atoms: C_12  and  C_13
REMARK    8  A    between atoms: C_14  and  O_50
REMARK    9  A    between atoms: C_16  and  O_49
REMARK   10  A    between atoms: C_18  and  O_45
REMARK   11  A    between atoms: C_19  and  O_22
REMARK   12  A    between atoms: O_22  and  C_23
REMARK   13  A    between atoms: C_24  and  C_36
REMARK   14  A    between atoms: C_28  and  O_35
REMARK   15  A    between atoms: C_30  and  O_34
REMARK   16  A    between atoms: C_38  and  O_43
REMARK   17  A    between atoms: C_39  and  O_42
REMARK   18  A    between atoms: O_43  and  C_44
REMARK   19  A    between atoms: O_45  and  C_46
REMARK   20  A    between atoms: C_46  and  C_48
REMARK                            x       y       z     vdW  Elec       q    Type
REMARK                         _______ _______ _______ _____ _____    ______ ____
ROOT
ATOM      1  C   UNL     1       3.187   3.783  -4.583  0.00  0.00    +0.179 C 
ATOM      2  O   UNL     1       3.839   4.770  -3.750  0.00  0.00    -0.330 OA
ATOM      3  C   UNL     1       3.023   5.756  -3.088  0.00  0.00    +0.352 C 
ATOM      4  C   UNL     1       1.987   6.455  -4.020  0.00  0.00    +0.275 C 
ATOM      5  C   UNL     1       1.244   5.383  -4.822  0.00  0.00    +0.192 C 
ATOM      6  C   UNL     1       2.230   4.481  -5.570  0.00  0.00    +0.178 C 
ENDROOT
BRANCH   6   7
ATOM      7  O   UNL     1       1.492   3.585  -6.403  0.00  0.00    -0.386 OA
ATOM      8  H   UNL     1       2.128   2.939  -6.762  0.00  0.00    +0.210 HD
ENDBRANCH   6   7
BRANCH   5   9
ATOM      9  O   UNL     1       0.331   5.969  -5.761  0.00  0.00    -0.385 OA
ATOM     10  H   UNL     1       0.049   5.223  -6.329  0.00  0.00    +0.210 HD
ENDBRANCH   5   9
BRANCH   4  11
ATOM     11  O   UNL     1       2.617   7.407  -4.929  0.00  0.00    -0.452 OA
BRANCH  11  12
ATOM     12  C   UNL     1       2.036   8.643  -4.991  0.00  0.00    +0.304 C 
ATOM     13  C   UNL     1       2.732   9.535  -5.976  0.00  0.00    +0.136 C 
ATOM     14  O   UNL     1       1.102   9.037  -4.302  0.00  0.00    -0.251 OA
ENDBRANCH  11  12
ENDBRANCH   4  11
BRANCH   3  15
ATOM     15  O   UNL     1       3.849   6.804  -2.535  0.00  0.00    -0.452 OA
BRANCH  15  16
ATOM     16  C   UNL     1       4.566   6.658  -1.353  0.00  0.00    +0.214 A 
ATOM     17  C   UNL     1       4.508   5.438  -0.480  0.00  0.00    +0.238 A 
ATOM     18  O   UNL     1       3.644   4.583  -0.627  0.00  0.00    -0.283 OA
ATOM     19  C   UNL     1       5.562   5.316   0.567  0.00  0.00    +0.109 A 
ATOM     20  C   UNL     1       6.316   6.442   0.867  0.00  0.00    +0.147 A 
ATOM     21  C   UNL     1       7.313   6.423   1.871  0.00  0.00    +0.092 A 
ATOM     22  C   UNL     1       7.530   5.238   2.549  0.00  0.00    +0.124 A 
ATOM     23  C   UNL     1       6.813   4.092   2.270  0.00  0.00    +0.091 A 
ATOM     24  O   UNL     1       6.158   7.627   0.214  0.00  0.00    -0.451 OA
ATOM     25  C   UNL     1       5.823   4.131   1.265  0.00  0.00    +0.135 A 
ATOM     26  C   UNL     1       5.415   7.630  -0.951  0.00  0.00    +0.181 A 
BRANCH  26  27
ATOM     27  C   UNL     1       5.872   8.694  -1.853  0.00  0.00    +0.025 A 
ATOM     28  C   UNL     1       6.862   8.301  -2.774  0.00  0.00    +0.015 A 
ATOM     29  C   UNL     1       7.511   9.235  -3.564  0.00  0.00    +0.050 A 
ATOM     30  C   UNL     1       7.054  10.541  -3.558  0.00  0.00    +0.158 A 
ATOM     31  C   UNL     1       5.990  10.923  -2.729  0.00  0.00    +0.162 A 
ATOM     32  C   UNL     1       5.471  10.029  -1.790  0.00  0.00    +0.061 A 
BRANCH  30  33
ATOM     33  O   UNL     1       7.593  11.420  -4.455  0.00  0.00    -0.503 OA
ATOM     34  H   UNL     1       7.764  10.913  -5.266  0.00  0.00    +0.292 HD
ENDBRANCH  30  33
BRANCH  31  35
ATOM     35  O   UNL     1       5.334  12.120  -2.883  0.00  0.00    -0.491 OA
ATOM     36  C   UNL     1       4.940  12.301  -4.252  0.00  0.00    +0.277 C 
ENDBRANCH  31  35
ENDBRANCH  26  27
BRANCH  25  37
ATOM     37  O   UNL     1       5.142   2.984   0.983  0.00  0.00    -0.506 OA
ATOM     38  H   UNL     1       5.393   2.283   1.603  0.00  0.00    +0.292 HD
ENDBRANCH  25  37
BRANCH  22  39
ATOM     39  O   UNL     1       8.483   5.155   3.531  0.00  0.00    -0.507 OA
ATOM     40  H   UNL     1       8.913   6.033   3.627  0.00  0.00    +0.292 HD
ENDBRANCH  22  39
ENDBRANCH  15  16
ENDBRANCH   3  15
BRANCH   1  41
ATOM     41  C   UNL     1       2.625   2.514  -3.823  0.00  0.00    +0.197 C 
BRANCH  41  42
ATOM     42  O   UNL     1       2.398   1.393  -4.718  0.00  0.00    -0.346 OA
BRANCH  42  46
ATOM     43  C   UNL     1      -1.032  -1.376  -3.975  0.00  0.00    +0.041 C 
ATOM     44  C   UNL     1      -0.234  -0.575  -2.942  0.00  0.00    +0.149 C 
ATOM     45  O   UNL     1       0.515   0.517  -3.511  0.00  0.00    -0.343 OA
ATOM     46  C   UNL     1       1.747   0.205  -4.169  0.00  0.00    +0.282 C 
ATOM     47  C   UNL     1       2.678  -0.712  -3.320  0.00  0.00    +0.201 C 
ATOM     48  C   UNL     1       1.896  -1.934  -2.796  0.00  0.00    +0.179 C 
ATOM     49  C   UNL     1       0.623  -1.497  -2.062  0.00  0.00    +0.174 C 
BRANCH  49  50
ATOM     50  O   UNL     1       0.999  -0.819  -0.851  0.00  0.00    -0.387 OA
ATOM     51  H   UNL     1       1.530  -0.037  -1.120  0.00  0.00    +0.210 HD
ENDBRANCH  49  50
BRANCH  48  52
ATOM     52  O   UNL     1       2.725  -2.683  -1.888  0.00  0.00    -0.386 OA
ATOM     53  H   UNL     1       2.549  -2.300  -1.002  0.00  0.00    +0.210 HD
ENDBRANCH  48  52
BRANCH  47  54
ATOM     54  O   UNL     1       3.212  -0.008  -2.184  0.00  0.00    -0.384 OA
ATOM     55  H   UNL     1       4.001  -0.514  -1.908  0.00  0.00    +0.210 HD
ENDBRANCH  47  54
ENDBRANCH  42  46
ENDBRANCH  41  42
ENDBRANCH   1  41
TORSDOF 17
