REMARK  Name = 
REMARK  15 active torsions:
REMARK  status: ('A' for Active; 'I' for Inactive)
REMARK    1  A    between atoms: C_1  and  O_2
REMARK    2  A    between atoms: O_2  and  C_3
REMARK    3  A    between atoms: C_4  and  O_41
REMARK    4  A    between atoms: C_6  and  C_9
REMARK    5  A    between atoms: C_10  and  O_26
REMARK    6  A    between atoms: C_14  and  O_25
REMARK    7  A    between atoms: C_16  and  O_20
REMARK    8  A    between atoms: O_20  and  S_21
REMARK    9  A    between atoms: S_21  and  O_24
REMARK   10  A    between atoms: O_26  and  C_27
REMARK   11  A    between atoms: C_29  and  O_40
REMARK   12  A    between atoms: C_30  and  O_39
REMARK   13  A    between atoms: C_31  and  O_38
REMARK   14  A    between atoms: C_33  and  C_36
REMARK   15  A    between atoms: C_36  and  O_37
REMARK                            x       y       z     vdW  Elec       q    Type
REMARK                         _______ _______ _______ _____ _____    ______ ____
ROOT
ATOM      1  C   UNL     1       4.734  -1.704  -5.122  0.00  0.00    +0.181 A 
ATOM      2  O   UNL     1       5.085  -0.863  -6.172  0.00  0.00    -0.451 OA
ATOM      3  C   UNL     1       5.362  -1.374  -7.401  0.00  0.00    +0.147 A 
ATOM      4  C   UNL     1       5.288  -2.724  -7.679  0.00  0.00    +0.109 A 
ATOM      5  C   UNL     1       5.495  -3.137  -9.007  0.00  0.00    +0.135 A 
ATOM      6  C   UNL     1       5.796  -2.208 -10.021  0.00  0.00    +0.095 A 
ATOM      7  C   UNL     1       5.922  -0.864  -9.707  0.00  0.00    +0.166 A 
ATOM      8  C   UNL     1       4.955  -3.640  -6.573  0.00  0.00    +0.238 A 
ATOM      9  O   UNL     1       4.826  -4.831  -6.847  0.00  0.00    -0.283 OA
ATOM     10  C   UNL     1       5.690  -0.438  -8.396  0.00  0.00    +0.096 A 
ATOM     11  C   UNL     1       4.728  -3.061  -5.185  0.00  0.00    +0.214 A 
ENDROOT
BRANCH   1  15
ATOM     12  C   UNL     1       4.014   1.580  -2.460  0.00  0.00    +0.161 A 
ATOM     13  C   UNL     1       5.278   1.005  -2.555  0.00  0.00    +0.050 A 
ATOM     14  C   UNL     1       5.471  -0.174  -3.304  0.00  0.00    +0.015 A 
ATOM     15  C   UNL     1       4.410  -0.802  -3.979  0.00  0.00    +0.025 A 
ATOM     16  C   UNL     1       3.128  -0.230  -3.856  0.00  0.00    +0.060 A 
ATOM     17  C   UNL     1       2.946   0.940  -3.096  0.00  0.00    +0.159 A 
BRANCH  12  19
ATOM     18  C   UNL     1       4.765   3.506  -1.259  0.00  0.00    +0.277 C 
ATOM     19  O   UNL     1       3.696   2.755  -1.827  0.00  0.00    -0.491 OA
ENDBRANCH  12  19
BRANCH  17  20
ATOM     20  O   UNL     1       1.679   1.503  -3.039  0.00  0.00    -0.503 OA
ATOM     21  H   UNL     1       1.779   2.297  -2.492  0.00  0.00    +0.292 HD
ENDBRANCH  17  20
ENDBRANCH   1  15
BRANCH   5  22
ATOM     22  O   UNL     1       5.398  -4.445  -9.396  0.00  0.00    -0.506 OA
ATOM     23  H   UNL     1       5.172  -4.987  -8.609  0.00  0.00    +0.292 HD
ENDBRANCH   5  22
BRANCH   7  24
ATOM     24  O   UNL     1       6.184   0.142 -10.607  0.00  0.00    -0.325 OA
BRANCH  24  25
ATOM     25  S   UNL     1       7.105  -0.108 -11.928  0.00  0.00    +0.251 S 
ATOM     26  O   UNL     1       6.335  -0.803 -12.931  0.00  0.00    -0.108 OA
ATOM     27  O   UNL     1       8.412  -0.567 -11.499  0.00  0.00    -0.108 OA
BRANCH  25  28
ATOM     28  O   UNL     1       7.354   1.395 -12.461  0.00  0.00    -0.222 OA
ATOM     29  H   UNL     1       8.188   1.715 -12.058  0.00  0.00    +0.248 HD
ENDBRANCH  25  28
ENDBRANCH  24  25
ENDBRANCH   7  24
BRANCH  11  30
ATOM     30  O   UNL     1       4.432  -3.865  -4.069  0.00  0.00    -0.453 OA
BRANCH  30  31
ATOM     31  C   UNL     1       4.954  -5.219  -3.960  0.00  0.00    +0.340 C 
ATOM     32  O   UNL     1       3.944  -6.192  -3.678  0.00  0.00    -0.331 OA
ATOM     33  C   UNL     1       3.360  -6.227  -2.371  0.00  0.00    +0.179 C 
ATOM     34  C   UNL     1       4.252  -5.844  -1.161  0.00  0.00    +0.177 C 
ATOM     35  C   UNL     1       5.587  -5.148  -1.491  0.00  0.00    +0.180 C 
ATOM     36  C   UNL     1       6.082  -5.336  -2.925  0.00  0.00    +0.214 C 
BRANCH  34  37
ATOM     37  O   UNL     1       4.512  -7.014  -0.352  0.00  0.00    -0.386 OA
ATOM     38  H   UNL     1       3.866  -7.024   0.380  0.00  0.00    +0.210 HD
ENDBRANCH  34  37
BRANCH  35  39
ATOM     39  O   UNL     1       6.647  -5.531  -0.587  0.00  0.00    -0.386 OA
ATOM     40  H   UNL     1       6.246  -5.766   0.268  0.00  0.00    +0.210 HD
ENDBRANCH  35  39
BRANCH  36  41
ATOM     41  O   UNL     1       7.114  -4.378  -3.231  0.00  0.00    -0.383 OA
ATOM     42  H   UNL     1       6.738  -3.501  -3.045  0.00  0.00    +0.210 HD
ENDBRANCH  36  41
BRANCH  33  43
ATOM     43  C   UNL     1       2.028  -5.462  -2.410  0.00  0.00    +0.190 C 
BRANCH  43  44
ATOM     44  O   UNL     1       2.221  -4.066  -2.577  0.00  0.00    -0.392 OA
ATOM     45  H   UNL     1       2.495  -3.942  -3.508  0.00  0.00    +0.210 HD
ENDBRANCH  43  44
ENDBRANCH  33  43
ENDBRANCH  30  31
ENDBRANCH  11  30
TORSDOF 14
