REMARK  Name = 
REMARK  26 active torsions:
REMARK  status: ('A' for Active; 'I' for Inactive)
REMARK    1  A    between atoms: C_1  and  C_2
REMARK    2  A    between atoms: C_2  and  C_3
REMARK    3  A    between atoms: C_2  and  C_7
REMARK    4  A    between atoms: C_2  and  O_58
REMARK    5  A    between atoms: C_3  and  C_4
REMARK    6  A    between atoms: C_4  and  O_6
REMARK    7  A    between atoms: C_7  and  C_8
REMARK    8  A    between atoms: C_8  and  O_10
REMARK    9  A    between atoms: O_10  and  C_11
REMARK   10  A    between atoms: C_11  and  C_12
REMARK   11  A    between atoms: C_13  and  O_57
REMARK   12  A    between atoms: C_15  and  O_56
REMARK   13  A    between atoms: C_17  and  O_44
REMARK   14  A    between atoms: C_18  and  O_21
REMARK   15  A    between atoms: O_21  and  C_22
REMARK   16  A    between atoms: C_23  and  C_36
REMARK   17  A    between atoms: C_27  and  O_34
REMARK   18  A    between atoms: C_29  and  O_33
REMARK   19  A    between atoms: O_34  and  C_35
REMARK   20  A    between atoms: C_38  and  O_43
REMARK   21  A    between atoms: C_39  and  O_42
REMARK   22  A    between atoms: O_44  and  C_45
REMARK   23  A    between atoms: C_47  and  O_55
REMARK   24  A    between atoms: C_49  and  C_52
REMARK   25  A    between atoms: C_49  and  O_54
REMARK   26  A    between atoms: C_52  and  O_53
REMARK                            x       y       z     vdW  Elec       q    Type
REMARK                         _______ _______ _______ _____ _____    ______ ____
ROOT
ATOM      1  C   UNL     1       2.183  -0.794  -6.104  0.00  0.00    +0.191 C 
ATOM      2  O   UNL     1       2.432   0.627  -6.185  0.00  0.00    -0.330 OA
ATOM      3  C   UNL     1       1.244   1.448  -6.096  0.00  0.00    +0.340 C 
ATOM      4  C   UNL     1       0.251   1.117  -7.262  0.00  0.00    +0.221 C 
ATOM      5  C   UNL     1      -0.047  -0.393  -7.205  0.00  0.00    +0.180 C 
ATOM      6  C   UNL     1       1.249  -1.225  -7.244  0.00  0.00    +0.178 C 
ENDROOT
BRANCH   6   7
ATOM      7  O   UNL     1       1.900  -1.044  -8.506  0.00  0.00    -0.386 OA
ATOM      8  H   UNL     1       2.230  -0.120  -8.542  0.00  0.00    +0.210 HD
ENDBRANCH   6   7
BRANCH   5   9
ATOM      9  O   UNL     1      -0.975  -0.789  -8.220  0.00  0.00    -0.386 OA
ATOM     10  H   UNL     1      -0.635  -1.608  -8.631  0.00  0.00    +0.210 HD
ENDBRANCH   5   9
BRANCH   4  11
ATOM     11  O   UNL     1       0.876   1.568  -8.481  0.00  0.00    -0.337 OA
BRANCH  11  12
ATOM     12  C   UNL     1       0.225   1.334  -9.722  0.00  0.00    +0.282 C 
ATOM     13  O   UNL     1       1.139   1.696 -10.784  0.00  0.00    -0.346 OA
ATOM     14  C   UNL     1       0.436   2.544 -11.707  0.00  0.00    +0.202 C 
ATOM     15  C   UNL     1      -1.049   2.249 -11.498  0.00  0.00    +0.142 C 
ATOM     16  C   UNL     1      -1.091   2.108  -9.973  0.00  0.00    +0.206 C 
BRANCH  16  17
ATOM     17  O   UNL     1      -1.126   3.406  -9.358  0.00  0.00    -0.384 OA
ATOM     18  H   UNL     1      -1.010   3.265  -8.403  0.00  0.00    +0.210 HD
ENDBRANCH  16  17
BRANCH  15  19
ATOM     19  O   UNL     1      -1.411   0.992 -12.102  0.00  0.00    -0.381 OA
ATOM     20  H   UNL     1      -0.596   0.477 -12.249  0.00  0.00    +0.210 HD
ENDBRANCH  15  19
BRANCH  15  21
ATOM     21  C   UNL     1      -1.944   3.344 -12.090  0.00  0.00    +0.195 C 
BRANCH  21  22
ATOM     22  O   UNL     1      -1.588   4.657 -11.672  0.00  0.00    -0.392 OA
ATOM     23  H   UNL     1      -1.457   4.608 -10.701  0.00  0.00    +0.210 HD
ENDBRANCH  21  22
ENDBRANCH  15  21
ENDBRANCH  11  12
ENDBRANCH   4  11
BRANCH   3  24
ATOM     24  O   UNL     1       1.621   2.844  -6.118  0.00  0.00    -0.453 OA
BRANCH  24  25
ATOM     25  C   UNL     1       0.778   3.790  -5.540  0.00  0.00    +0.214 A 
ATOM     26  C   UNL     1      -0.502   3.405  -4.843  0.00  0.00    +0.238 A 
ATOM     27  O   UNL     1      -0.768   2.252  -4.524  0.00  0.00    -0.283 OA
ATOM     28  C   UNL     1      -1.449   4.476  -4.510  0.00  0.00    +0.109 A 
ATOM     29  C   UNL     1      -0.948   5.760  -4.447  0.00  0.00    +0.147 A 
ATOM     30  C   UNL     1      -1.720   6.807  -3.934  0.00  0.00    +0.092 A 
ATOM     31  C   UNL     1      -3.027   6.560  -3.519  0.00  0.00    +0.127 A 
ATOM     32  C   UNL     1      -3.569   5.282  -3.680  0.00  0.00    +0.092 A 
ATOM     33  O   UNL     1       0.308   6.067  -4.869  0.00  0.00    -0.451 OA
ATOM     34  C   UNL     1      -2.786   4.244  -4.181  0.00  0.00    +0.135 A 
ATOM     35  C   UNL     1       1.060   5.115  -5.560  0.00  0.00    +0.181 A 
BRANCH  35  36
ATOM     36  C   UNL     1       2.208   5.808  -6.211  0.00  0.00    +0.025 A 
ATOM     37  C   UNL     1       1.948   7.071  -6.802  0.00  0.00    +0.015 A 
ATOM     38  C   UNL     1       2.976   7.950  -7.143  0.00  0.00    +0.050 A 
ATOM     39  C   UNL     1       4.279   7.567  -6.903  0.00  0.00    +0.158 A 
ATOM     40  C   UNL     1       4.565   6.302  -6.391  0.00  0.00    +0.159 A 
ATOM     41  C   UNL     1       3.542   5.402  -6.069  0.00  0.00    +0.060 A 
BRANCH  39  42
ATOM     42  O   UNL     1       5.282   8.474  -7.102  0.00  0.00    -0.503 OA
ATOM     43  H   UNL     1       6.089   8.024  -6.784  0.00  0.00    +0.292 HD
ENDBRANCH  39  42
BRANCH  40  44
ATOM     44  O   UNL     1       5.883   6.017  -6.148  0.00  0.00    -0.503 OA
ATOM     45  H   UNL     1       5.925   5.179  -5.656  0.00  0.00    +0.292 HD
ENDBRANCH  40  44
ENDBRANCH  35  36
BRANCH  34  46
ATOM     46  O   UNL     1      -3.346   3.014  -4.371  0.00  0.00    -0.506 OA
ATOM     47  H   UNL     1      -4.266   3.016  -4.065  0.00  0.00    +0.292 HD
ENDBRANCH  34  46
BRANCH  31  48
ATOM     48  O   UNL     1      -3.878   7.471  -2.959  0.00  0.00    -0.495 OA
ATOM     49  C   UNL     1      -3.336   8.745  -2.634  0.00  0.00    +0.277 C 
ENDBRANCH  31  48
ENDBRANCH  24  25
ENDBRANCH   3  24
BRANCH   1  50
ATOM     50  C   UNL     1       1.643  -1.272  -4.729  0.00  0.00    +0.266 C 
BRANCH  50  51
ATOM     51  O   UNL     1       2.513  -0.883  -3.652  0.00  0.00    -0.462 OA
BRANCH  51  52
ATOM     52  C   UNL     1       3.589  -1.695  -3.462  0.00  0.00    +0.310 C 
ATOM     53  O   UNL     1       3.814  -2.711  -4.117  0.00  0.00    -0.251 OA
BRANCH  52  54
ATOM     54  C   UNL     1       4.462  -1.156  -2.359  0.00  0.00    +0.155 C 
BRANCH  54  56
ATOM     55  C   UNL     1       5.135  -1.046   0.018  0.00  0.00    +0.042 C 
ATOM     56  C   UNL     1       4.179  -1.746  -0.961  0.00  0.00    +0.083 C 
BRANCH  56  57
ATOM     57  O   UNL     1       4.518  -3.133  -0.990  0.00  0.00    -0.388 OA
ATOM     58  H   UNL     1       4.480  -3.472  -0.071  0.00  0.00    +0.210 HD
ENDBRANCH  56  57
BRANCH  56  59
ATOM     59  C   UNL     1       2.695  -1.589  -0.570  0.00  0.00    +0.155 C 
BRANCH  59  60
ATOM     60  C   UNL     1       2.328  -2.213   0.758  0.00  0.00    +0.307 C 
ATOM     61  O   UNL     1       3.105  -2.775   1.513  0.00  0.00    -0.251 OA
BRANCH  60  62
ATOM     62  O   UNL     1       1.006  -2.112   1.029  0.00  0.00    -0.481 OA
ATOM     63  H   UNL     1       0.481  -1.689   0.322  0.00  0.00    +0.295 HD
ENDBRANCH  60  62
ENDBRANCH  59  60
ENDBRANCH  56  59
ENDBRANCH  54  56
ENDBRANCH  52  54
ENDBRANCH  51  52
ENDBRANCH  50  51
ENDBRANCH   1  50
TORSDOF 24
