REMARK  Name = 
REMARK  19 active torsions:
REMARK  status: ('A' for Active; 'I' for Inactive)
REMARK    1  A    between atoms: C_1  and  O_2
REMARK    2  A    between atoms: O_2  and  C_3
REMARK    3  A    between atoms: C_4  and  C_44
REMARK    4  A    between atoms: C_8  and  O_15
REMARK    5  A    between atoms: C_10  and  O_14
REMARK    6  A    between atoms: O_15  and  C_16
REMARK    7  A    between atoms: C_18  and  O_43
REMARK    8  A    between atoms: C_19  and  O_42
REMARK    9  A    between atoms: C_21  and  O_41
REMARK   10  A    between atoms: C_23  and  C_25
REMARK   11  A    between atoms: C_25  and  O_26
REMARK   12  A    between atoms: O_26  and  C_27
REMARK   13  A    between atoms: C_29  and  O_40
REMARK   14  A    between atoms: C_30  and  O_39
REMARK   15  A    between atoms: C_32  and  O_38
REMARK   16  A    between atoms: C_34  and  C_36
REMARK   17  A    between atoms: C_36  and  O_37
REMARK   18  A    between atoms: C_46  and  O_51
REMARK   19  A    between atoms: C_47  and  O_50
REMARK                            x       y       z     vdW  Elec       q    Type
REMARK                         _______ _______ _______ _____ _____    ______ ____
ROOT
ATOM      1  C   UNL     1       6.192   1.687   7.329  0.00  0.00    +0.339 C 
ATOM      2  O   UNL     1       7.555   1.708   6.882  0.00  0.00    -0.331 OA
ATOM      3  C   UNL     1       7.764   1.013   5.640  0.00  0.00    +0.179 C 
ATOM      4  C   UNL     1       7.247  -0.449   5.631  0.00  0.00    +0.177 C 
ATOM      5  C   UNL     1       5.916  -0.639   6.371  0.00  0.00    +0.180 C 
ATOM      6  C   UNL     1       5.829   0.224   7.640  0.00  0.00    +0.214 C 
ENDROOT
BRANCH   6   7
ATOM      7  O   UNL     1       4.520   0.128   8.216  0.00  0.00    -0.383 OA
ATOM      8  H   UNL     1       3.918  -0.175   7.508  0.00  0.00    +0.210 HD
ENDBRANCH   6   7
BRANCH   5   9
ATOM      9  O   UNL     1       4.791  -0.398   5.514  0.00  0.00    -0.386 OA
ATOM     10  H   UNL     1       4.630   0.567   5.483  0.00  0.00    +0.210 HD
ENDBRANCH   5   9
BRANCH   4  11
ATOM     11  O   UNL     1       8.201  -1.324   6.250  0.00  0.00    -0.386 OA
ATOM     12  H   UNL     1       8.084  -2.203   5.844  0.00  0.00    +0.210 HD
ENDBRANCH   4  11
BRANCH   3  13
ATOM     13  C   UNL     1       9.275   1.061   5.320  0.00  0.00    +0.197 C 
BRANCH  13  14
ATOM     14  O   UNL     1       9.649   0.680   3.986  0.00  0.00    -0.346 OA
BRANCH  14  15
ATOM     15  C   UNL     1       9.027   1.419   2.923  0.00  0.00    +0.282 C 
ATOM     16  O   UNL     1       9.364   0.815   1.666  0.00  0.00    -0.341 OA
ATOM     17  C   UNL     1      10.753   0.918   1.300  0.00  0.00    +0.178 C 
ATOM     18  C   UNL     1      11.270   2.377   1.335  0.00  0.00    +0.177 C 
ATOM     19  C   UNL     1      10.909   3.058   2.658  0.00  0.00    +0.179 C 
ATOM     20  C   UNL     1       9.398   2.917   2.895  0.00  0.00    +0.201 C 
BRANCH  20  21
ATOM     21  O   UNL     1       8.980   3.633   4.060  0.00  0.00    -0.384 OA
ATOM     22  H   UNL     1       9.781   3.862   4.570  0.00  0.00    +0.210 HD
ENDBRANCH  20  21
BRANCH  19  23
ATOM     23  O   UNL     1      11.679   2.535   3.746  0.00  0.00    -0.386 OA
ATOM     24  H   UNL     1      11.405   1.608   3.904  0.00  0.00    +0.210 HD
ENDBRANCH  19  23
BRANCH  18  25
ATOM     25  O   UNL     1      10.694   3.130   0.260  0.00  0.00    -0.386 OA
ATOM     26  H   UNL     1      10.978   4.058   0.345  0.00  0.00    +0.210 HD
ENDBRANCH  18  25
BRANCH  17  27
ATOM     27  C   UNL     1      10.927   0.319  -0.111  0.00  0.00    +0.190 C 
BRANCH  27  28
ATOM     28  O   UNL     1      10.538  -1.054  -0.182  0.00  0.00    -0.392 OA
ATOM     29  H   UNL     1      10.738  -1.473   0.670  0.00  0.00    +0.210 HD
ENDBRANCH  27  28
ENDBRANCH  17  27
ENDBRANCH  14  15
ENDBRANCH  13  14
ENDBRANCH   3  13
BRANCH   1  30
ATOM     30  O   UNL     1       5.282   2.202   6.336  0.00  0.00    -0.461 OA
BRANCH  30  37
ATOM     31  C   UNL     1       2.461   7.842   7.859  0.00  0.00    +0.211 A 
ATOM     32  C   UNL     1       2.085   6.877   6.763  0.00  0.00    +0.238 A 
ATOM     33  O   UNL     1       1.154   7.097   5.997  0.00  0.00    -0.283 OA
ATOM     34  C   UNL     1       2.909   5.648   6.645  0.00  0.00    +0.109 A 
ATOM     35  C   UNL     1       3.819   5.366   7.659  0.00  0.00    +0.147 A 
ATOM     36  C   UNL     1       4.603   4.196   7.635  0.00  0.00    +0.093 A 
ATOM     37  C   UNL     1       4.538   3.328   6.548  0.00  0.00    +0.131 A 
ATOM     38  C   UNL     1       3.638   3.623   5.515  0.00  0.00    +0.092 A 
ATOM     39  O   UNL     1       4.036   6.210   8.718  0.00  0.00    -0.451 OA
ATOM     40  C   UNL     1       2.814   4.755   5.573  0.00  0.00    +0.135 A 
ATOM     41  C   UNL     1       3.428   7.452   8.713  0.00  0.00    +0.181 A 
BRANCH  41  42
ATOM     42  C   UNL     1       3.974   8.340   9.756  0.00  0.00    +0.025 A 
ATOM     43  C   UNL     1       5.091   9.145   9.462  0.00  0.00    +0.015 A 
ATOM     44  C   UNL     1       5.673   9.949  10.448  0.00  0.00    +0.050 A 
ATOM     45  C   UNL     1       5.132   9.948  11.724  0.00  0.00    +0.158 A 
ATOM     46  C   UNL     1       4.021   9.162  12.024  0.00  0.00    +0.159 A 
ATOM     47  C   UNL     1       3.435   8.356  11.049  0.00  0.00    +0.060 A 
BRANCH  46  48
ATOM     48  O   UNL     1       3.544   9.210  13.307  0.00  0.00    -0.503 OA
ATOM     49  H   UNL     1       2.780   8.621  13.365  0.00  0.00    +0.292 HD
ENDBRANCH  46  48
BRANCH  45  50
ATOM     50  O   UNL     1       5.705  10.723  12.691  0.00  0.00    -0.503 OA
ATOM     51  H   UNL     1       5.164  10.560  13.490  0.00  0.00    +0.292 HD
ENDBRANCH  45  50
ENDBRANCH  41  42
BRANCH  31  53
ATOM     52  C   UNL     1       0.500   9.173   7.611  0.00  0.00    +0.277 C 
ATOM     53  O   UNL     1       1.878   9.102   7.973  0.00  0.00    -0.488 OA
ENDBRANCH  31  53
BRANCH  40  54
ATOM     54  O   UNL     1       1.945   4.980   4.544  0.00  0.00    -0.506 OA
ATOM     55  H   UNL     1       1.739   4.148   4.087  0.00  0.00    +0.292 HD
ENDBRANCH  40  54
ENDBRANCH  30  37
ENDBRANCH   1  30
TORSDOF 18
