REMARK  Name = 
REMARK  22 active torsions:
REMARK  status: ('A' for Active; 'I' for Inactive)
REMARK    1  A    between atoms: C_1  and  C_2
REMARK    2  A    between atoms: C_3  and  O_61
REMARK    3  A    between atoms: C_5  and  O_60
REMARK    4  A    between atoms: C_7  and  O_59
REMARK    5  A    between atoms: C_8  and  O_11
REMARK    6  A    between atoms: O_11  and  C_12
REMARK    7  A    between atoms: C_14  and  O_58
REMARK    8  A    between atoms: C_16  and  O_57
REMARK    9  A    between atoms: C_17  and  O_22
REMARK   10  A    between atoms: C_20  and  C_21
REMARK   11  A    between atoms: O_22  and  C_23
REMARK   12  A    between atoms: C_23  and  C_24
REMARK   13  A    between atoms: C_25  and  O_56
REMARK   14  A    between atoms: C_27  and  O_55
REMARK   15  A    between atoms: C_28  and  O_54
REMARK   16  A    between atoms: C_29  and  O_32
REMARK   17  A    between atoms: O_32  and  C_33
REMARK   18  A    between atoms: C_34  and  C_46
REMARK   19  A    between atoms: C_38  and  O_45
REMARK   20  A    between atoms: C_40  and  O_44
REMARK   21  A    between atoms: C_48  and  O_53
REMARK   22  A    between atoms: C_49  and  O_52
REMARK                            x       y       z     vdW  Elec       q    Type
REMARK                         _______ _______ _______ _____ _____    ______ ____
ROOT
ATOM      1  C   UNL     1      -1.481   4.595  -6.436  0.00  0.00    +0.179 C 
ATOM      2  O   UNL     1      -2.468   3.541  -6.523  0.00  0.00    -0.331 OA
ATOM      3  C   UNL     1      -2.324   2.767  -7.724  0.00  0.00    +0.340 C 
ATOM      4  C   UNL     1      -2.617   3.658  -8.949  0.00  0.00    +0.214 C 
ATOM      5  C   UNL     1      -1.756   4.933  -8.918  0.00  0.00    +0.180 C 
ATOM      6  C   UNL     1      -1.787   5.620  -7.537  0.00  0.00    +0.177 C 
ENDROOT
BRANCH   6   7
ATOM      7  O   UNL     1      -3.088   6.185  -7.288  0.00  0.00    -0.386 OA
ATOM      8  H   UNL     1      -3.659   5.462  -6.964  0.00  0.00    +0.210 HD
ENDBRANCH   6   7
BRANCH   5   9
ATOM      9  O   UNL     1      -2.197   5.840  -9.930  0.00  0.00    -0.386 OA
ATOM     10  H   UNL     1      -3.139   6.003  -9.716  0.00  0.00    +0.210 HD
ENDBRANCH   5   9
BRANCH   4  11
ATOM     11  O   UNL     1      -4.009   4.044  -8.970  0.00  0.00    -0.383 OA
ATOM     12  H   UNL     1      -4.462   3.539  -8.267  0.00  0.00    +0.210 HD
ENDBRANCH   4  11
BRANCH   3  13
ATOM     13  O   UNL     1      -3.241   1.678  -7.659  0.00  0.00    -0.453 OA
BRANCH  13  14
ATOM     14  C   UNL     1      -3.100   0.650  -8.580  0.00  0.00    +0.214 A 
ATOM     15  C   UNL     1      -1.756   0.271  -9.121  0.00  0.00    +0.238 A 
ATOM     16  O   UNL     1      -0.718   0.696  -8.629  0.00  0.00    -0.283 OA
ATOM     17  C   UNL     1      -1.721  -0.671 -10.244  0.00  0.00    +0.109 A 
ATOM     18  C   UNL     1      -2.892  -1.362 -10.535  0.00  0.00    +0.147 A 
ATOM     19  C   UNL     1      -2.870  -2.374 -11.498  0.00  0.00    +0.092 A 
ATOM     20  C   UNL     1      -1.679  -2.665 -12.159  0.00  0.00    +0.124 A 
ATOM     21  C   UNL     1      -0.520  -1.940 -11.916  0.00  0.00    +0.091 A 
ATOM     22  O   UNL     1      -4.093  -1.107  -9.916  0.00  0.00    -0.451 OA
ATOM     23  C   UNL     1      -0.542  -0.934 -10.958  0.00  0.00    +0.135 A 
ATOM     24  C   UNL     1      -4.169  -0.072  -8.985  0.00  0.00    +0.181 A 
BRANCH  24  25
ATOM     25  C   UNL     1      -5.554   0.194  -8.499  0.00  0.00    +0.025 A 
ATOM     26  C   UNL     1      -5.823   0.649  -7.184  0.00  0.00    +0.015 A 
ATOM     27  C   UNL     1      -7.117   0.965  -6.749  0.00  0.00    +0.050 A 
ATOM     28  C   UNL     1      -8.178   0.784  -7.614  0.00  0.00    +0.158 A 
ATOM     29  C   UNL     1      -7.966   0.293  -8.896  0.00  0.00    +0.159 A 
ATOM     30  C   UNL     1      -6.675   0.002  -9.348  0.00  0.00    +0.060 A 
BRANCH  29  31
ATOM     31  O   UNL     1      -9.067   0.116  -9.687  0.00  0.00    -0.503 OA
ATOM     32  H   UNL     1      -8.782  -0.268 -10.534  0.00  0.00    +0.292 HD
ENDBRANCH  29  31
BRANCH  28  33
ATOM     33  O   UNL     1      -9.439   1.089  -7.191  0.00  0.00    -0.503 OA
ATOM     34  H   UNL     1     -10.013   0.892  -7.958  0.00  0.00    +0.292 HD
ENDBRANCH  28  33
ENDBRANCH  24  25
BRANCH  23  35
ATOM     35  O   UNL     1       0.591  -0.198 -10.752  0.00  0.00    -0.506 OA
ATOM     36  H   UNL     1       1.323  -0.545 -11.286  0.00  0.00    +0.292 HD
ENDBRANCH  23  35
BRANCH  20  37
ATOM     37  O   UNL     1      -1.596  -3.673 -13.073  0.00  0.00    -0.507 OA
ATOM     38  H   UNL     1      -2.410  -4.201 -13.045  0.00  0.00    +0.292 HD
ENDBRANCH  20  37
ENDBRANCH  13  14
ENDBRANCH   3  13
BRANCH   1  39
ATOM     39  C   UNL     1      -0.032   4.061  -6.507  0.00  0.00    +0.197 C 
BRANCH  39  40
ATOM     40  O   UNL     1       0.999   4.987  -6.206  0.00  0.00    -0.346 OA
BRANCH  40  45
ATOM     41  C   UNL     1       3.509   5.128  -3.675  0.00  0.00    +0.181 C 
ATOM     42  C   UNL     1       3.323   6.143  -4.825  0.00  0.00    +0.150 C 
ATOM     43  C   UNL     1       3.866   5.752  -6.203  0.00  0.00    +0.041 C 
ATOM     44  O   UNL     1       1.971   6.623  -4.883  0.00  0.00    -0.343 OA
ATOM     45  C   UNL     1       0.943   5.620  -4.933  0.00  0.00    +0.282 C 
ATOM     46  C   UNL     1       1.057   4.661  -3.722  0.00  0.00    +0.201 C 
ATOM     47  C   UNL     1       2.443   4.023  -3.694  0.00  0.00    +0.179 C 
BRANCH  47  48
ATOM     48  O   UNL     1       2.576   3.094  -4.772  0.00  0.00    -0.386 OA
ATOM     49  H   UNL     1       2.393   3.542  -5.621  0.00  0.00    +0.210 HD
ENDBRANCH  47  48
BRANCH  46  50
ATOM     50  O   UNL     1       0.047   3.649  -3.690  0.00  0.00    -0.384 OA
ATOM     51  H   UNL     1       0.487   2.802  -3.916  0.00  0.00    +0.210 HD
ENDBRANCH  46  50
BRANCH  41  52
ATOM     52  O   UNL     1       4.780   4.504  -3.566  0.00  0.00    -0.340 OA
BRANCH  52  56
ATOM     53  C   UNL     1       8.705   5.563  -4.637  0.00  0.00    +0.041 C 
ATOM     54  C   UNL     1       8.325   5.023  -3.262  0.00  0.00    +0.149 C 
ATOM     55  O   UNL     1       7.026   4.422  -3.314  0.00  0.00    -0.343 OA
ATOM     56  C   UNL     1       5.929   5.331  -3.442  0.00  0.00    +0.282 C 
ATOM     57  C   UNL     1       5.902   6.255  -2.205  0.00  0.00    +0.201 C 
ATOM     58  C   UNL     1       7.226   7.039  -2.183  0.00  0.00    +0.179 C 
ATOM     59  C   UNL     1       8.429   6.079  -2.146  0.00  0.00    +0.174 C 
BRANCH  59  60
ATOM     60  O   UNL     1       8.504   5.430  -0.869  0.00  0.00    -0.387 OA
ATOM     61  H   UNL     1       7.606   5.086  -0.670  0.00  0.00    +0.210 HD
ENDBRANCH  59  60
BRANCH  58  62
ATOM     62  O   UNL     1       7.246   7.974  -1.101  0.00  0.00    -0.386 OA
ATOM     63  H   UNL     1       8.120   7.917  -0.673  0.00  0.00    +0.210 HD
ENDBRANCH  58  62
BRANCH  57  64
ATOM     64  O   UNL     1       5.761   5.454  -1.011  0.00  0.00    -0.384 OA
ATOM     65  H   UNL     1       5.415   4.585  -1.302  0.00  0.00    +0.210 HD
ENDBRANCH  57  64
ENDBRANCH  52  56
ENDBRANCH  41  52
ENDBRANCH  40  45
ENDBRANCH  39  40
ENDBRANCH   1  39
TORSDOF 20
