REMARK  Name = 
REMARK  13 active torsions:
REMARK  status: ('A' for Active; 'I' for Inactive)
REMARK    1  A    between atoms: C_1  and  C_2
REMARK    2  A    between atoms: C_3  and  O_35
REMARK    3  A    between atoms: C_5  and  O_34
REMARK    4  A    between atoms: C_6  and  O_33
REMARK    5  A    between atoms: C_8  and  O_11
REMARK    6  A    between atoms: O_11  and  C_12
REMARK    7  A    between atoms: C_13  and  C_25
REMARK    8  A    between atoms: C_17  and  O_24
REMARK    9  A    between atoms: C_19  and  O_23
REMARK   10  A    between atoms: C_27  and  O_32
REMARK   11  A    between atoms: C_28  and  O_31
REMARK   12  A    between atoms: O_35  and  C_36
REMARK   13  A    between atoms: C_36  and  C_38
REMARK                            x       y       z     vdW  Elec       q    Type
REMARK                         _______ _______ _______ _____ _____    ______ ____
ROOT
ATOM      1  C   UNL     1       2.812   2.888  -3.175  0.00  0.00    +0.214 A 
ATOM      2  C   UNL     1       1.416   3.364  -2.874  0.00  0.00    +0.238 A 
ATOM      3  O   UNL     1       0.458   2.603  -2.815  0.00  0.00    -0.283 OA
ATOM      4  C   UNL     1       1.187   4.795  -2.712  0.00  0.00    +0.109 A 
ATOM      5  C   UNL     1       2.239   5.655  -2.997  0.00  0.00    +0.147 A 
ATOM      6  C   UNL     1       2.029   7.035  -2.926  0.00  0.00    +0.092 A 
ATOM      7  C   UNL     1       0.766   7.524  -2.576  0.00  0.00    +0.124 A 
ATOM      8  C   UNL     1      -0.284   6.669  -2.276  0.00  0.00    +0.091 A 
ATOM      9  O   UNL     1       3.486   5.213  -3.367  0.00  0.00    -0.451 OA
ATOM     10  C   UNL     1      -0.072   5.301  -2.340  0.00  0.00    +0.135 A 
ATOM     11  C   UNL     1       3.743   3.839  -3.432  0.00  0.00    +0.181 A 
ENDROOT
BRANCH  11  12
ATOM     12  C   UNL     1       5.162   3.526  -3.813  0.00  0.00    +0.025 A 
ATOM     13  C   UNL     1       6.218   4.372  -3.410  0.00  0.00    +0.015 A 
ATOM     14  C   UNL     1       7.554   4.089  -3.740  0.00  0.00    +0.050 A 
ATOM     15  C   UNL     1       7.848   2.954  -4.478  0.00  0.00    +0.158 A 
ATOM     16  C   UNL     1       6.828   2.120  -4.914  0.00  0.00    +0.159 A 
ATOM     17  C   UNL     1       5.496   2.407  -4.605  0.00  0.00    +0.060 A 
BRANCH  15  18
ATOM     18  O   UNL     1       9.149   2.658  -4.769  0.00  0.00    -0.503 OA
ATOM     19  H   UNL     1       9.105   1.806  -5.250  0.00  0.00    +0.292 HD
ENDBRANCH  15  18
BRANCH  16  20
ATOM     20  O   UNL     1       7.178   1.017  -5.645  0.00  0.00    -0.503 OA
ATOM     21  H   UNL     1       6.368   0.503  -5.815  0.00  0.00    +0.292 HD
ENDBRANCH  16  20
ENDBRANCH  11  12
BRANCH   7  22
ATOM     22  O   UNL     1       0.498   8.861  -2.511  0.00  0.00    -0.507 OA
ATOM     23  H   UNL     1       1.297   9.352  -2.755  0.00  0.00    +0.292 HD
ENDBRANCH   7  22
BRANCH  10  24
ATOM     24  O   UNL     1      -1.105   4.466  -2.014  0.00  0.00    -0.506 OA
ATOM     25  H   UNL     1      -1.933   4.963  -1.917  0.00  0.00    +0.292 HD
ENDBRANCH  10  24
BRANCH   1  26
ATOM     26  O   UNL     1       3.133   1.525  -3.209  0.00  0.00    -0.453 OA
BRANCH  26  30
ATOM     27  C   UNL     1       0.654  -1.230  -1.124  0.00  0.00    +0.042 C 
ATOM     28  C   UNL     1       1.451  -1.636  -2.375  0.00  0.00    +0.163 C 
ATOM     29  O   UNL     1       2.526  -0.712  -2.661  0.00  0.00    -0.333 OA
ATOM     30  C   UNL     1       2.053   0.588  -3.068  0.00  0.00    +0.340 C 
ATOM     31  C   UNL     1       1.245   0.471  -4.388  0.00  0.00    +0.215 C 
ATOM     32  C   UNL     1       0.067  -0.483  -4.159  0.00  0.00    +0.192 C 
ATOM     33  C   UNL     1       0.537  -1.836  -3.604  0.00  0.00    +0.236 C 
BRANCH  31  34
ATOM     34  O   UNL     1       2.073   0.014  -5.482  0.00  0.00    -0.383 OA
ATOM     35  H   UNL     1       1.480  -0.007  -6.255  0.00  0.00    +0.210 HD
ENDBRANCH  31  34
BRANCH  32  36
ATOM     36  O   UNL     1      -0.644  -0.671  -5.396  0.00  0.00    -0.385 OA
ATOM     37  H   UNL     1      -0.200  -1.410  -5.852  0.00  0.00    +0.210 HD
ENDBRANCH  32  36
BRANCH  33  38
ATOM     38  O   UNL     1       1.257  -2.483  -4.687  0.00  0.00    -0.456 OA
BRANCH  38  39
ATOM     39  C   UNL     1       1.471  -3.815  -4.579  0.00  0.00    +0.304 C 
ATOM     40  C   UNL     1       2.269  -4.313  -5.746  0.00  0.00    +0.136 C 
ATOM     41  O   UNL     1       1.067  -4.520  -3.669  0.00  0.00    -0.251 OA
ENDBRANCH  38  39
ENDBRANCH  33  38
ENDBRANCH  26  30
ENDBRANCH   1  26
TORSDOF 11
