REMARK  Name = 
REMARK  26 active torsions:
REMARK  status: ('A' for Active; 'I' for Inactive)
REMARK    1  A    between atoms: C_1  and  C_2
REMARK    2  A    between atoms: C_3  and  O_64
REMARK    3  A    between atoms: C_5  and  O_63
REMARK    4  A    between atoms: C_6  and  O_62
REMARK    5  A    between atoms: C_8  and  O_11
REMARK    6  A    between atoms: O_11  and  C_12
REMARK    7  A    between atoms: C_13  and  O_61
REMARK    8  A    between atoms: C_15  and  O_60
REMARK    9  A    between atoms: C_17  and  C_44
REMARK   10  A    between atoms: C_19  and  O_21
REMARK   11  A    between atoms: O_21  and  C_22
REMARK   12  A    between atoms: C_23  and  C_35
REMARK   13  A    between atoms: C_27  and  O_34
REMARK   14  A    between atoms: C_29  and  O_33
REMARK   15  A    between atoms: C_37  and  O_42
REMARK   16  A    between atoms: C_38  and  O_41
REMARK   17  A    between atoms: O_42  and  C_43
REMARK   18  A    between atoms: C_44  and  O_45
REMARK   19  A    between atoms: O_45  and  C_46
REMARK   20  A    between atoms: C_48  and  O_59
REMARK   21  A    between atoms: C_49  and  O_58
REMARK   22  A    between atoms: C_51  and  O_57
REMARK   23  A    between atoms: C_53  and  C_55
REMARK   24  A    between atoms: C_55  and  O_56
REMARK   25  A    between atoms: O_64  and  C_65
REMARK   26  A    between atoms: C_65  and  C_67
REMARK                            x       y       z     vdW  Elec       q    Type
REMARK                         _______ _______ _______ _____ _____    ______ ____
ROOT
ATOM      1  C   UNL     1       2.679   2.618  -3.167  0.00  0.00    +0.221 C 
ATOM      2  C   UNL     1       1.596   2.087  -4.168  0.00  0.00    +0.340 C 
ATOM      3  O   UNL     1       2.133   2.023  -5.506  0.00  0.00    -0.331 OA
ATOM      4  C   UNL     1       2.535   3.326  -6.012  0.00  0.00    +0.179 C 
ATOM      5  C   UNL     1       3.624   3.942  -5.118  0.00  0.00    +0.177 C 
ATOM      6  C   UNL     1       3.100   4.034  -3.679  0.00  0.00    +0.180 C 
ENDROOT
BRANCH   6   7
ATOM      7  O   UNL     1       4.070   4.742  -2.878  0.00  0.00    -0.386 OA
ATOM      8  H   UNL     1       3.612   5.035  -2.070  0.00  0.00    +0.210 HD
ENDBRANCH   6   7
BRANCH   5   9
ATOM      9  O   UNL     1       4.016   5.237  -5.576  0.00  0.00    -0.386 OA
ATOM     10  H   UNL     1       4.477   5.662  -4.827  0.00  0.00    +0.210 HD
ENDBRANCH   5   9
BRANCH   2  11
ATOM     11  O   UNL     1       0.940   0.850  -3.771  0.00  0.00    -0.453 OA
BRANCH  11  12
ATOM     12  C   UNL     1      -0.392   1.010  -3.347  0.00  0.00    +0.214 A 
ATOM     13  C   UNL     1      -0.819   2.300  -2.679  0.00  0.00    +0.238 A 
ATOM     14  O   UNL     1      -0.025   3.031  -2.108  0.00  0.00    -0.283 OA
ATOM     15  C   UNL     1      -2.241   2.661  -2.776  0.00  0.00    +0.109 A 
ATOM     16  C   UNL     1      -3.125   1.609  -2.910  0.00  0.00    +0.147 A 
ATOM     17  C   UNL     1      -4.505   1.831  -2.920  0.00  0.00    +0.092 A 
ATOM     18  C   UNL     1      -4.978   3.136  -2.816  0.00  0.00    +0.124 A 
ATOM     19  C   UNL     1      -4.098   4.210  -2.720  0.00  0.00    +0.091 A 
ATOM     20  O   UNL     1      -2.686   0.320  -3.017  0.00  0.00    -0.451 OA
ATOM     21  C   UNL     1      -2.723   3.973  -2.706  0.00  0.00    +0.135 A 
ATOM     22  C   UNL     1      -1.375   0.077  -3.464  0.00  0.00    +0.181 A 
BRANCH  22  23
ATOM     23  C   UNL     1      -1.303  -1.315  -4.017  0.00  0.00    +0.025 A 
ATOM     24  C   UNL     1      -2.494  -1.868  -4.558  0.00  0.00    +0.015 A 
ATOM     25  C   UNL     1      -2.597  -3.208  -4.932  0.00  0.00    +0.050 A 
ATOM     26  C   UNL     1      -1.486  -4.017  -4.818  0.00  0.00    +0.158 A 
ATOM     27  C   UNL     1      -0.274  -3.501  -4.350  0.00  0.00    +0.162 A 
ATOM     28  C   UNL     1      -0.187  -2.162  -3.920  0.00  0.00    +0.061 A 
BRANCH  27  29
ATOM     29  O   UNL     1       0.758  -4.404  -4.308  0.00  0.00    -0.491 OA
ATOM     30  C   UNL     1       2.016  -3.861  -4.700  0.00  0.00    +0.277 C 
ENDBRANCH  27  29
BRANCH  26  31
ATOM     31  O   UNL     1      -1.599  -5.326  -5.195  0.00  0.00    -0.503 OA
ATOM     32  H   UNL     1      -0.710  -5.709  -5.066  0.00  0.00    +0.292 HD
ENDBRANCH  26  31
ENDBRANCH  22  23
BRANCH  18  33
ATOM     33  O   UNL     1      -6.312   3.417  -2.812  0.00  0.00    -0.507 OA
ATOM     34  H   UNL     1      -6.819   2.589  -2.850  0.00  0.00    +0.292 HD
ENDBRANCH  18  33
BRANCH  21  35
ATOM     35  O   UNL     1      -1.863   5.033  -2.671  0.00  0.00    -0.506 OA
ATOM     36  H   UNL     1      -2.369   5.856  -2.553  0.00  0.00    +0.292 HD
ENDBRANCH  21  35
ENDBRANCH  11  12
ENDBRANCH   2  11
BRANCH   4  37
ATOM     37  C   UNL     1       1.306   4.254  -6.171  0.00  0.00    +0.197 C 
BRANCH  37  38
ATOM     38  O   UNL     1       1.492   5.529  -6.763  0.00  0.00    -0.346 OA
BRANCH  38  39
ATOM     39  C   UNL     1       1.967   5.574  -8.109  0.00  0.00    +0.282 C 
ATOM     40  O   UNL     1       2.164   6.955  -8.464  0.00  0.00    -0.341 OA
ATOM     41  C   UNL     1       0.966   7.740  -8.298  0.00  0.00    +0.178 C 
ATOM     42  C   UNL     1      -0.185   7.201  -9.188  0.00  0.00    +0.177 C 
ATOM     43  C   UNL     1      -0.381   5.689  -8.992  0.00  0.00    +0.179 C 
ATOM     44  C   UNL     1       0.975   4.961  -9.118  0.00  0.00    +0.201 C 
BRANCH  44  45
ATOM     45  O   UNL     1       0.837   3.545  -8.973  0.00  0.00    -0.384 OA
ATOM     46  H   UNL     1      -0.026   3.374  -8.554  0.00  0.00    +0.210 HD
ENDBRANCH  44  45
BRANCH  43  47
ATOM     47  O   UNL     1      -1.031   5.414  -7.742  0.00  0.00    -0.386 OA
ATOM     48  H   UNL     1      -0.453   5.758  -7.032  0.00  0.00    +0.210 HD
ENDBRANCH  43  47
BRANCH  42  49
ATOM     49  O   UNL     1       0.093   7.415 -10.574  0.00  0.00    -0.386 OA
ATOM     50  H   UNL     1      -0.713   7.191 -11.075  0.00  0.00    +0.210 HD
ENDBRANCH  42  49
BRANCH  41  51
ATOM     51  C   UNL     1       1.330   9.216  -8.545  0.00  0.00    +0.190 C 
BRANCH  51  52
ATOM     52  O   UNL     1       1.758   9.488  -9.873  0.00  0.00    -0.392 OA
ATOM     53  H   UNL     1       2.096   8.644 -10.230  0.00  0.00    +0.210 HD
ENDBRANCH  51  52
ENDBRANCH  41  51
ENDBRANCH  38  39
ENDBRANCH  37  38
ENDBRANCH   4  37
BRANCH   1  54
ATOM     54  O   UNL     1       3.796   1.706  -3.014  0.00  0.00    -0.337 OA
BRANCH  54  58
ATOM     55  C   UNL     1       7.656   3.017  -1.896  0.00  0.00    +0.042 C 
ATOM     56  C   UNL     1       7.003   1.812  -1.204  0.00  0.00    +0.162 C 
ATOM     57  O   UNL     1       5.909   1.264  -1.978  0.00  0.00    -0.342 OA
ATOM     58  C   UNL     1       4.777   2.143  -2.051  0.00  0.00    +0.282 C 
ATOM     59  C   UNL     1       4.198   2.396  -0.635  0.00  0.00    +0.202 C 
ATOM     60  C   UNL     1       5.290   2.980   0.258  0.00  0.00    +0.191 C 
ATOM     61  C   UNL     1       6.581   2.152   0.243  0.00  0.00    +0.236 C 
BRANCH  60  62
ATOM     62  O   UNL     1       4.787   3.125   1.595  0.00  0.00    -0.385 OA
ATOM     63  H   UNL     1       4.837   2.232   1.988  0.00  0.00    +0.210 HD
ENDBRANCH  60  62
BRANCH  59  64
ATOM     64  O   UNL     1       3.649   1.201  -0.058  0.00  0.00    -0.384 OA
ATOM     65  H   UNL     1       3.085   1.484   0.683  0.00  0.00    +0.210 HD
ENDBRANCH  59  64
BRANCH  61  66
ATOM     66  O   UNL     1       6.347   0.945   1.002  0.00  0.00    -0.456 OA
BRANCH  66  67
ATOM     67  C   UNL     1       7.464   0.316   1.456  0.00  0.00    +0.304 C 
ATOM     68  C   UNL     1       7.131  -0.955   2.165  0.00  0.00    +0.136 C 
ATOM     69  O   UNL     1       8.608   0.729   1.296  0.00  0.00    -0.251 OA
ENDBRANCH  66  67
ENDBRANCH  61  66
ENDBRANCH  54  58
ENDBRANCH   1  54
TORSDOF 23
