REMARK  Name = 
REMARK  13 active torsions:
REMARK  status: ('A' for Active; 'I' for Inactive)
REMARK    1  A    between atoms: C_1  and  O_2
REMARK    2  A    between atoms: O_2  and  C_3
REMARK    3  A    between atoms: C_5  and  O_35
REMARK    4  A    between atoms: C_10  and  C_19
REMARK    5  A    between atoms: C_11  and  O_14
REMARK    6  A    between atoms: O_14  and  S_15
REMARK    7  A    between atoms: S_15  and  O_18
REMARK    8  A    between atoms: C_21  and  O_30
REMARK    9  A    between atoms: C_22  and  O_25
REMARK   10  A    between atoms: O_25  and  S_26
REMARK   11  A    between atoms: S_26  and  O_29
REMARK   12  A    between atoms: O_30  and  S_31
REMARK   13  A    between atoms: S_31  and  O_34
REMARK                            x       y       z     vdW  Elec       q    Type
REMARK                         _______ _______ _______ _____ _____    ______ ____
ROOT
ATOM      1  C   UNL     1       3.065   1.210  -0.018  0.00  0.00    +0.127 A 
ATOM      2  C   UNL     1       2.497   2.481   0.089  0.00  0.00    +0.092 A 
ATOM      3  C   UNL     1       3.311   3.622   0.005  0.00  0.00    +0.147 A 
ATOM      4  O   UNL     1       2.687   4.840   0.138  0.00  0.00    -0.451 OA
ATOM      5  C   UNL     1       3.436   5.997  -0.024  0.00  0.00    +0.184 A 
ATOM      6  C   UNL     1       4.763   6.028  -0.250  0.00  0.00    +0.248 A 
ATOM      7  C   UNL     1       5.494   4.730  -0.237  0.00  0.00    +0.241 A 
ATOM      8  O   UNL     1       6.721   4.720  -0.213  0.00  0.00    -0.283 OA
ATOM      9  C   UNL     1       4.686   3.497  -0.188  0.00  0.00    +0.109 A 
ATOM     10  C   UNL     1       5.249   2.222  -0.299  0.00  0.00    +0.135 A 
ATOM     11  C   UNL     1       4.443   1.088  -0.213  0.00  0.00    +0.092 A 
ENDROOT
BRANCH   5  12
ATOM     12  C   UNL     1       2.614   7.220   0.053  0.00  0.00    +0.025 A 
ATOM     13  C   UNL     1       1.999   7.722  -1.101  0.00  0.00    +0.015 A 
ATOM     14  C   UNL     1       1.145   8.831  -1.036  0.00  0.00    +0.053 A 
ATOM     15  C   UNL     1       0.907   9.460   0.186  0.00  0.00    +0.203 A 
ATOM     16  C   UNL     1       1.543   8.983   1.344  0.00  0.00    +0.204 A 
ATOM     17  C   UNL     1       2.385   7.863   1.280  0.00  0.00    +0.064 A 
BRANCH  15  18
ATOM     18  O   UNL     1       0.031  10.506   0.362  0.00  0.00    -0.321 OA
BRANCH  18  19
ATOM     19  S   UNL     1      -0.362  11.532  -0.839  0.00  0.00    +0.251 S 
ATOM     20  O   UNL     1      -1.194  10.850  -1.802  0.00  0.00    -0.108 OA
ATOM     21  O   UNL     1       0.821  12.268  -1.229  0.00  0.00    -0.108 OA
BRANCH  19  22
ATOM     22  O   UNL     1      -1.291  12.613  -0.086  0.00  0.00    -0.222 OA
ATOM     23  H   UNL     1      -0.727  13.383   0.128  0.00  0.00    +0.248 HD
ENDBRANCH  19  22
ENDBRANCH  18  19
ENDBRANCH  15  18
BRANCH  16  24
ATOM     24  O   UNL     1       1.237   9.639   2.515  0.00  0.00    -0.321 OA
BRANCH  24  25
ATOM     25  S   UNL     1       2.323   9.803   3.716  0.00  0.00    +0.251 S 
ATOM     26  O   UNL     1       3.601  10.201   3.172  0.00  0.00    -0.108 OA
ATOM     27  O   UNL     1       2.187   8.668   4.605  0.00  0.00    -0.108 OA
BRANCH  25  28
ATOM     28  O   UNL     1       1.736  11.058   4.544  0.00  0.00    -0.222 OA
ATOM     29  H   UNL     1       1.176  10.703   5.264  0.00  0.00    +0.248 HD
ENDBRANCH  25  28
ENDBRANCH  24  25
ENDBRANCH  16  24
ENDBRANCH   5  12
BRANCH   1  31
ATOM     30  C   UNL     1       1.005   0.035   0.237  0.00  0.00    +0.277 C 
ATOM     31  O   UNL     1       2.413   0.012   0.051  0.00  0.00    -0.495 OA
ENDBRANCH   1  31
BRANCH  10  32
ATOM     32  O   UNL     1       6.589   2.060  -0.499  0.00  0.00    -0.506 OA
ATOM     33  H   UNL     1       6.814   1.115  -0.532  0.00  0.00    +0.292 HD
ENDBRANCH  10  32
BRANCH   6  34
ATOM     34  O   UNL     1       5.459   7.220  -0.407  0.00  0.00    -0.317 OA
BRANCH  34  35
ATOM     35  S   UNL     1       6.758   7.365  -1.393  0.00  0.00    +0.252 S 
ATOM     36  O   UNL     1       7.014   8.778  -1.575  0.00  0.00    -0.108 OA
ATOM     37  O   UNL     1       6.569   6.502  -2.541  0.00  0.00    -0.108 OA
BRANCH  35  38
ATOM     38  O   UNL     1       7.990   6.769  -0.536  0.00  0.00    -0.222 OA
ATOM     39  H   UNL     1       7.818   5.799  -0.410  0.00  0.00    +0.248 HD
ENDBRANCH  35  38
ENDBRANCH  34  35
ENDBRANCH   6  34
TORSDOF 12
