REMARK  Name = 
REMARK  23 active torsions:
REMARK  status: ('A' for Active; 'I' for Inactive)
REMARK    1  A    between atoms: C_1  and  C_2
REMARK    2  A    between atoms: C_3  and  O_62
REMARK    3  A    between atoms: C_5  and  O_61
REMARK    4  A    between atoms: C_7  and  O_60
REMARK    5  A    between atoms: C_8  and  O_11
REMARK    6  A    between atoms: O_11  and  C_12
REMARK    7  A    between atoms: C_12  and  C_13
REMARK    8  A    between atoms: C_14  and  O_59
REMARK    9  A    between atoms: C_16  and  O_58
REMARK   10  A    between atoms: C_17  and  O_57
REMARK   11  A    between atoms: C_18  and  O_21
REMARK   12  A    between atoms: O_21  and  C_22
REMARK   13  A    between atoms: C_23  and  C_49
REMARK   14  A    between atoms: C_27  and  O_34
REMARK   15  A    between atoms: C_29  and  O_33
REMARK   16  A    between atoms: O_34  and  C_35
REMARK   17  A    between atoms: C_37  and  O_48
REMARK   18  A    between atoms: C_38  and  O_47
REMARK   19  A    between atoms: C_40  and  O_46
REMARK   20  A    between atoms: C_42  and  C_44
REMARK   21  A    between atoms: C_44  and  O_45
REMARK   22  A    between atoms: C_51  and  O_56
REMARK   23  A    between atoms: C_52  and  O_55
REMARK                            x       y       z     vdW  Elec       q    Type
REMARK                         _______ _______ _______ _____ _____    ______ ____
ROOT
ATOM      1  C   UNL     1       4.319   7.231  -1.111  0.00  0.00    +0.214 A 
ATOM      2  C   UNL     1       4.731   8.502  -0.437  0.00  0.00    +0.238 A 
ATOM      3  O   UNL     1       4.413   9.585  -0.919  0.00  0.00    -0.283 OA
ATOM      4  C   UNL     1       5.499   8.343   0.839  0.00  0.00    +0.109 A 
ATOM      5  C   UNL     1       5.304   7.162   1.545  0.00  0.00    +0.147 A 
ATOM      6  C   UNL     1       5.989   6.877   2.739  0.00  0.00    +0.093 A 
ATOM      7  C   UNL     1       6.947   7.756   3.239  0.00  0.00    +0.131 A 
ATOM      8  C   UNL     1       7.135   8.962   2.547  0.00  0.00    +0.092 A 
ATOM      9  O   UNL     1       4.454   6.207   1.089  0.00  0.00    -0.451 OA
ATOM     10  C   UNL     1       6.394   9.258   1.376  0.00  0.00    +0.135 A 
ATOM     11  C   UNL     1       4.240   6.139  -0.276  0.00  0.00    +0.181 A 
ENDROOT
BRANCH  11  12
ATOM     12  C   UNL     1       3.945   4.736  -0.678  0.00  0.00    +0.025 A 
ATOM     13  C   UNL     1       4.221   4.313  -1.980  0.00  0.00    +0.015 A 
ATOM     14  C   UNL     1       3.931   3.015  -2.396  0.00  0.00    +0.050 A 
ATOM     15  C   UNL     1       3.560   2.073  -1.455  0.00  0.00    +0.158 A 
ATOM     16  C   UNL     1       3.470   2.420  -0.109  0.00  0.00    +0.159 A 
ATOM     17  C   UNL     1       3.584   3.758   0.271  0.00  0.00    +0.060 A 
BRANCH  16  18
ATOM     18  O   UNL     1       3.452   1.458   0.846  0.00  0.00    -0.503 OA
ATOM     19  H   UNL     1       2.526   1.297   1.075  0.00  0.00    +0.292 HD
ENDBRANCH  16  18
BRANCH  15  20
ATOM     20  O   UNL     1       3.391   0.784  -1.857  0.00  0.00    -0.503 OA
ATOM     21  H   UNL     1       4.294   0.421  -1.891  0.00  0.00    +0.292 HD
ENDBRANCH  15  20
ENDBRANCH  11  12
BRANCH  10  22
ATOM     22  O   UNL     1       6.623  10.444   0.745  0.00  0.00    -0.506 OA
ATOM     23  H   UNL     1       6.676  11.148   1.410  0.00  0.00    +0.292 HD
ENDBRANCH  10  22
BRANCH   7  24
ATOM     24  O   UNL     1       7.763   7.522   4.334  0.00  0.00    -0.461 OA
BRANCH  24  25
ATOM     25  C   UNL     1       7.360   6.451   5.221  0.00  0.00    +0.339 C 
ATOM     26  O   UNL     1       6.152   6.789   5.902  0.00  0.00    -0.331 OA
ATOM     27  C   UNL     1       6.324   7.881   6.822  0.00  0.00    +0.179 C 
ATOM     28  C   UNL     1       7.294   7.509   7.965  0.00  0.00    +0.177 C 
ATOM     29  C   UNL     1       8.648   7.043   7.393  0.00  0.00    +0.180 C 
ATOM     30  C   UNL     1       8.440   6.028   6.256  0.00  0.00    +0.214 C 
BRANCH  29  31
ATOM     31  O   UNL     1       9.469   8.142   6.982  0.00  0.00    -0.386 OA
ATOM     32  H   UNL     1       8.919   8.877   6.668  0.00  0.00    +0.210 HD
ENDBRANCH  29  31
BRANCH  30  33
ATOM     33  O   UNL     1       9.673   5.644   5.640  0.00  0.00    -0.383 OA
ATOM     34  H   UNL     1       9.932   6.364   5.037  0.00  0.00    +0.210 HD
ENDBRANCH  30  33
BRANCH  28  35
ATOM     35  O   UNL     1       6.719   6.472   8.766  0.00  0.00    -0.386 OA
ATOM     36  H   UNL     1       7.275   6.349   9.557  0.00  0.00    +0.210 HD
ENDBRANCH  28  35
BRANCH  27  37
ATOM     37  C   UNL     1       4.937   8.275   7.349  0.00  0.00    +0.190 C 
BRANCH  37  38
ATOM     38  O   UNL     1       4.088   8.752   6.300  0.00  0.00    -0.392 OA
ATOM     39  H   UNL     1       4.635   9.201   5.635  0.00  0.00    +0.210 HD
ENDBRANCH  37  38
ENDBRANCH  27  37
ENDBRANCH  24  25
ENDBRANCH   7  24
BRANCH   1  40
ATOM     40  O   UNL     1       3.922   7.180  -2.439  0.00  0.00    -0.453 OA
BRANCH  40  43
ATOM     41  C   UNL     1       5.960   9.758  -4.410  0.00  0.00    +0.179 C 
ATOM     42  O   UNL     1       5.600   8.717  -3.437  0.00  0.00    -0.331 OA
ATOM     43  C   UNL     1       4.332   8.027  -3.556  0.00  0.00    +0.340 C 
ATOM     44  C   UNL     1       3.138   8.894  -4.023  0.00  0.00    +0.214 C 
ATOM     45  C   UNL     1       3.566   9.678  -5.267  0.00  0.00    +0.180 C 
ATOM     46  C   UNL     1       4.770  10.577  -4.944  0.00  0.00    +0.177 C 
BRANCH  46  47
ATOM     47  O   UNL     1       4.402  11.566  -3.967  0.00  0.00    -0.386 OA
ATOM     48  H   UNL     1       4.192  11.098  -3.132  0.00  0.00    +0.210 HD
ENDBRANCH  46  47
BRANCH  45  49
ATOM     49  O   UNL     1       2.478  10.471  -5.755  0.00  0.00    -0.386 OA
ATOM     50  H   UNL     1       2.303  11.125  -5.047  0.00  0.00    +0.210 HD
ENDBRANCH  45  49
BRANCH  44  51
ATOM     51  O   UNL     1       2.661   9.825  -3.033  0.00  0.00    -0.383 OA
ATOM     52  H   UNL     1       3.050   9.576  -2.174  0.00  0.00    +0.210 HD
ENDBRANCH  44  51
BRANCH  41  53
ATOM     53  C   UNL     1       6.901   9.291  -5.577  0.00  0.00    +0.197 C 
BRANCH  53  54
ATOM     54  O   UNL     1       7.430  10.319  -6.463  0.00  0.00    -0.346 OA
BRANCH  54  58
ATOM     55  C   UNL     1       9.638  12.608  -3.444  0.00  0.00    +0.041 C 
ATOM     56  C   UNL     1       8.798  13.168  -4.589  0.00  0.00    +0.149 C 
ATOM     57  O   UNL     1       7.911  12.159  -5.102  0.00  0.00    -0.343 OA
ATOM     58  C   UNL     1       8.496  11.155  -5.940  0.00  0.00    +0.282 C 
ATOM     59  C   UNL     1       9.262  11.850  -7.125  0.00  0.00    +0.201 C 
ATOM     60  C   UNL     1      10.342  12.797  -6.555  0.00  0.00    +0.179 C 
ATOM     61  C   UNL     1       9.690  13.846  -5.647  0.00  0.00    +0.174 C 
BRANCH  61  62
ATOM     62  O   UNL     1       8.931  14.767  -6.449  0.00  0.00    -0.387 OA
ATOM     63  H   UNL     1       8.394  14.225  -7.071  0.00  0.00    +0.210 HD
ENDBRANCH  61  62
BRANCH  60  64
ATOM     64  O   UNL     1      11.091  13.454  -7.591  0.00  0.00    -0.386 OA
ATOM     65  H   UNL     1      10.733  14.363  -7.663  0.00  0.00    +0.210 HD
ENDBRANCH  60  64
BRANCH  59  66
ATOM     66  O   UNL     1       8.348  12.636  -7.919  0.00  0.00    -0.384 OA
ATOM     67  H   UNL     1       7.559  12.072  -8.045  0.00  0.00    +0.210 HD
ENDBRANCH  59  66
ENDBRANCH  54  58
ENDBRANCH  53  54
ENDBRANCH  41  53
ENDBRANCH  40  43
ENDBRANCH   1  40
TORSDOF 22
