REMARK  Name = 
REMARK  28 active torsions:
REMARK  status: ('A' for Active; 'I' for Inactive)
REMARK    1  A    between atoms: C_1  and  C_2
REMARK    2  A    between atoms: C_3  and  O_76
REMARK    3  A    between atoms: C_5  and  O_75
REMARK    4  A    between atoms: C_6  and  O_74
REMARK    5  A    between atoms: C_8  and  O_11
REMARK    6  A    between atoms: O_11  and  C_12
REMARK    7  A    between atoms: C_12  and  C_13
REMARK    8  A    between atoms: C_14  and  O_73
REMARK    9  A    between atoms: C_16  and  O_72
REMARK   10  A    between atoms: C_18  and  O_71
REMARK   11  A    between atoms: C_19  and  O_22
REMARK   12  A    between atoms: O_22  and  C_23
REMARK   13  A    between atoms: C_25  and  O_70
REMARK   14  A    between atoms: C_30  and  C_62
REMARK   15  A    between atoms: C_31  and  O_34
REMARK   16  A    between atoms: O_34  and  C_35
REMARK   17  A    between atoms: C_37  and  O_61
REMARK   18  A    between atoms: C_39  and  O_60
REMARK   19  A    between atoms: C_40  and  O_45
REMARK   20  A    between atoms: C_42  and  C_44
REMARK   21  A    between atoms: O_45  and  C_46
REMARK   22  A    between atoms: C_48  and  O_59
REMARK   23  A    between atoms: C_49  and  O_58
REMARK   24  A    between atoms: C_51  and  O_57
REMARK   25  A    between atoms: C_53  and  C_55
REMARK   26  A    between atoms: C_55  and  O_56
REMARK   27  A    between atoms: C_64  and  O_69
REMARK   28  A    between atoms: C_65  and  O_68
REMARK                            x       y       z     vdW  Elec       q    Type
REMARK                         _______ _______ _______ _____ _____    ______ ____
ROOT
ATOM      1  C   UNL     1       3.983   6.945  -0.945  0.00  0.00    +0.131 A 
ATOM      2  C   UNL     1       4.592   8.035  -0.294  0.00  0.00    +0.093 A 
ATOM      3  C   UNL     1       5.263   7.840   0.918  0.00  0.00    +0.147 A 
ATOM      4  O   UNL     1       5.854   8.902   1.568  0.00  0.00    -0.451 OA
ATOM      5  C   UNL     1       6.805   8.610   2.561  0.00  0.00    +0.181 A 
ATOM      6  C   UNL     1       6.949   7.398   3.150  0.00  0.00    +0.214 A 
ATOM      7  C   UNL     1       5.874   6.437   2.799  0.00  0.00    +0.238 A 
ATOM      8  O   UNL     1       5.469   5.579   3.582  0.00  0.00    -0.283 OA
ATOM      9  C   UNL     1       5.294   6.570   1.474  0.00  0.00    +0.109 A 
ATOM     10  C   UNL     1       4.778   5.473   0.789  0.00  0.00    +0.135 A 
ATOM     11  C   UNL     1       4.135   5.657  -0.427  0.00  0.00    +0.092 A 
ENDROOT
BRANCH   5  12
ATOM     12  C   UNL     1       7.570   9.802   2.986  0.00  0.00    +0.025 A 
ATOM     13  C   UNL     1       6.969  10.714   3.876  0.00  0.00    +0.015 A 
ATOM     14  C   UNL     1       7.628  11.885   4.260  0.00  0.00    +0.050 A 
ATOM     15  C   UNL     1       8.891  12.145   3.755  0.00  0.00    +0.158 A 
ATOM     16  C   UNL     1       9.506  11.248   2.884  0.00  0.00    +0.159 A 
ATOM     17  C   UNL     1       8.857  10.074   2.493  0.00  0.00    +0.060 A 
BRANCH  16  18
ATOM     18  O   UNL     1      10.749  11.579   2.414  0.00  0.00    -0.503 OA
ATOM     19  H   UNL     1      11.002  10.920   1.745  0.00  0.00    +0.292 HD
ENDBRANCH  16  18
BRANCH  15  20
ATOM     20  O   UNL     1       9.524  13.301   4.114  0.00  0.00    -0.503 OA
ATOM     21  H   UNL     1      10.367  13.288   3.620  0.00  0.00    +0.292 HD
ENDBRANCH  15  20
ENDBRANCH   5  12
BRANCH  10  22
ATOM     22  O   UNL     1       4.920   4.214   1.297  0.00  0.00    -0.506 OA
ATOM     23  H   UNL     1       4.765   3.555   0.600  0.00  0.00    +0.292 HD
ENDBRANCH  10  22
BRANCH   6  24
ATOM     24  O   UNL     1       7.976   7.082   4.027  0.00  0.00    -0.453 OA
BRANCH  24  25
ATOM     25  C   UNL     1       7.863   5.910   4.858  0.00  0.00    +0.339 C 
ATOM     26  O   UNL     1       8.693   6.076   6.019  0.00  0.00    -0.334 OA
ATOM     27  C   UNL     1      10.096   6.215   5.744  0.00  0.00    +0.151 C 
ATOM     28  C   UNL     1      10.734   6.229   7.137  0.00  0.00    +0.041 C 
ATOM     29  C   UNL     1      10.673   5.061   4.884  0.00  0.00    +0.181 C 
ATOM     30  C   UNL     1       9.722   4.576   3.793  0.00  0.00    +0.180 C 
ATOM     31  C   UNL     1       8.265   4.552   4.224  0.00  0.00    +0.214 C 
BRANCH  31  32
ATOM     32  O   UNL     1       7.536   4.119   3.066  0.00  0.00    -0.383 OA
ATOM     33  H   UNL     1       6.579   4.236   3.261  0.00  0.00    +0.210 HD
ENDBRANCH  31  32
BRANCH  30  34
ATOM     34  O   UNL     1      10.111   3.237   3.408  0.00  0.00    -0.386 OA
ATOM     35  H   UNL     1       9.309   2.819   3.037  0.00  0.00    +0.210 HD
ENDBRANCH  30  34
BRANCH  29  36
ATOM     36  O   UNL     1      12.016   5.252   4.396  0.00  0.00    -0.340 OA
BRANCH  36  37
ATOM     37  C   UNL     1      12.298   6.192   3.345  0.00  0.00    +0.282 C 
ATOM     38  O   UNL     1      11.771   5.860   2.058  0.00  0.00    -0.341 OA
ATOM     39  C   UNL     1      12.295   4.659   1.443  0.00  0.00    +0.178 C 
ATOM     40  C   UNL     1      13.838   4.529   1.457  0.00  0.00    +0.177 C 
ATOM     41  C   UNL     1      14.415   4.932   2.816  0.00  0.00    +0.179 C 
ATOM     42  C   UNL     1      13.832   6.313   3.188  0.00  0.00    +0.201 C 
BRANCH  42  43
ATOM     43  O   UNL     1      14.470   6.849   4.346  0.00  0.00    -0.384 OA
ATOM     44  H   UNL     1      14.334   7.812   4.325  0.00  0.00    +0.210 HD
ENDBRANCH  42  43
BRANCH  41  45
ATOM     45  O   UNL     1      14.159   3.895   3.769  0.00  0.00    -0.386 OA
ATOM     46  H   UNL     1      13.296   4.085   4.196  0.00  0.00    +0.210 HD
ENDBRANCH  41  45
BRANCH  40  47
ATOM     47  O   UNL     1      14.429   5.353   0.443  0.00  0.00    -0.386 OA
ATOM     48  H   UNL     1      15.392   5.197   0.472  0.00  0.00    +0.210 HD
ENDBRANCH  40  47
BRANCH  39  49
ATOM     49  C   UNL     1      11.760   4.605  -0.005  0.00  0.00    +0.190 C 
BRANCH  49  50
ATOM     50  O   UNL     1      10.333   4.665  -0.075  0.00  0.00    -0.392 OA
ATOM     51  H   UNL     1       9.983   4.361   0.780  0.00  0.00    +0.210 HD
ENDBRANCH  49  50
ENDBRANCH  39  49
ENDBRANCH  36  37
ENDBRANCH  29  36
ENDBRANCH  24  25
ENDBRANCH   6  24
BRANCH   1  52
ATOM     52  O   UNL     1       3.277   7.212  -2.093  0.00  0.00    -0.461 OA
BRANCH  52  55
ATOM     53  C   UNL     1       1.644   4.217  -3.516  0.00  0.00    +0.179 C 
ATOM     54  O   UNL     1       2.662   5.172  -3.148  0.00  0.00    -0.331 OA
ATOM     55  C   UNL     1       2.188   6.308  -2.396  0.00  0.00    +0.339 C 
ATOM     56  C   UNL     1       1.130   7.071  -3.229  0.00  0.00    +0.214 C 
ATOM     57  C   UNL     1      -0.014   6.105  -3.572  0.00  0.00    +0.180 C 
ATOM     58  C   UNL     1       0.529   4.895  -4.341  0.00  0.00    +0.177 C 
BRANCH  57  59
ATOM     59  O   UNL     1      -1.043   6.742  -4.335  0.00  0.00    -0.386 OA
ATOM     60  H   UNL     1      -1.542   6.012  -4.755  0.00  0.00    +0.210 HD
ENDBRANCH  57  59
BRANCH  56  61
ATOM     61  O   UNL     1       1.714   7.589  -4.440  0.00  0.00    -0.383 OA
ATOM     62  H   UNL     1       2.519   7.071  -4.627  0.00  0.00    +0.210 HD
ENDBRANCH  56  61
BRANCH  58  63
ATOM     63  O   UNL     1      -0.571   4.041  -4.671  0.00  0.00    -0.386 OA
ATOM     64  H   UNL     1      -0.202   3.198  -4.997  0.00  0.00    +0.210 HD
ENDBRANCH  58  63
BRANCH  53  65
ATOM     65  C   UNL     1       1.149   3.416  -2.292  0.00  0.00    +0.197 C 
BRANCH  65  66
ATOM     66  O   UNL     1       0.303   2.345  -2.698  0.00  0.00    -0.346 OA
BRANCH  66  70
ATOM     67  C   UNL     1      -0.181   1.150   1.434  0.00  0.00    +0.041 C 
ATOM     68  C   UNL     1       0.374   0.268   0.317  0.00  0.00    +0.149 C 
ATOM     69  O   UNL     1       0.797   1.058  -0.803  0.00  0.00    -0.343 OA
ATOM     70  C   UNL     1      -0.253   1.634  -1.584  0.00  0.00    +0.282 C 
ATOM     71  C   UNL     1      -1.228   0.559  -2.117  0.00  0.00    +0.201 C 
ATOM     72  C   UNL     1      -1.757  -0.282  -0.949  0.00  0.00    +0.179 C 
ATOM     73  C   UNL     1      -0.597  -0.841  -0.111  0.00  0.00    +0.174 C 
BRANCH  71  74
ATOM     74  O   UNL     1      -0.567  -0.324  -3.051  0.00  0.00    -0.384 OA
ATOM     75  H   UNL     1      -1.276  -0.900  -3.398  0.00  0.00    +0.210 HD
ENDBRANCH  71  74
BRANCH  72  76
ATOM     76  O   UNL     1      -2.542  -1.367  -1.469  0.00  0.00    -0.386 OA
ATOM     77  H   UNL     1      -1.936  -2.138  -1.508  0.00  0.00    +0.210 HD
ENDBRANCH  72  76
BRANCH  73  78
ATOM     78  O   UNL     1       0.101  -1.819  -0.905  0.00  0.00    -0.387 OA
ATOM     79  H   UNL     1       0.459  -1.339  -1.687  0.00  0.00    +0.210 HD
ENDBRANCH  73  78
ENDBRANCH  66  70
ENDBRANCH  65  66
ENDBRANCH  53  65
ENDBRANCH  52  55
ENDBRANCH   1  52
TORSDOF 26
