REMARK  Name = 
REMARK  18 active torsions:
REMARK  status: ('A' for Active; 'I' for Inactive)
REMARK    1  A    between atoms: C_3  and  O_50
REMARK    2  A    between atoms: C_4  and  O_49
REMARK    3  A    between atoms: C_6  and  C_7
REMARK    4  A    between atoms: C_8  and  O_20
REMARK    5  A    between atoms: C_12  and  O_19
REMARK    6  A    between atoms: C_14  and  O_18
REMARK    7  A    between atoms: O_20  and  C_21
REMARK    8  A    between atoms: C_23  and  O_48
REMARK    9  A    between atoms: C_24  and  O_33
REMARK   10  A    between atoms: C_26  and  O_32
REMARK   11  A    between atoms: C_28  and  C_30
REMARK   12  A    between atoms: C_30  and  O_31
REMARK   13  A    between atoms: O_33  and  C_34
REMARK   14  A    between atoms: C_36  and  O_47
REMARK   15  A    between atoms: C_37  and  O_46
REMARK   16  A    between atoms: C_39  and  O_45
REMARK   17  A    between atoms: C_41  and  C_43
REMARK   18  A    between atoms: C_43  and  O_44
REMARK                            x       y       z     vdW  Elec       q    Type
REMARK                         _______ _______ _______ _____ _____    ______ ____
ROOT
ATOM      1  C   UNL     1      -3.718  -0.519  -0.845  0.00  0.00    +0.340 C 
ATOM      2  O   UNL     1      -4.216  -0.250  -2.207  0.00  0.00    -0.331 OA
ATOM      3  C   UNL     1      -3.320  -0.233  -3.410  0.00  0.00    +0.179 C 
ATOM      4  C   UNL     1      -2.027  -1.089  -3.342  0.00  0.00    +0.177 C 
ATOM      5  C   UNL     1      -2.127  -1.917  -2.089  0.00  0.00    +0.187 C 
ATOM      6  C   UNL     1      -2.233  -0.807  -0.977  0.00  0.00    +0.214 C 
ENDROOT
BRANCH   6   7
ATOM      7  O   UNL     1      -1.634  -1.201   0.261  0.00  0.00    -0.383 OA
ATOM      8  H   UNL     1      -2.343  -1.166   0.933  0.00  0.00    +0.210 HD
ENDBRANCH   6   7
BRANCH   4   9
ATOM      9  O   UNL     1      -1.796  -1.838  -4.536  0.00  0.00    -0.386 OA
ATOM     10  H   UNL     1      -1.183  -2.568  -4.318  0.00  0.00    +0.210 HD
ENDBRANCH   4   9
BRANCH   5  11
ATOM     11  O   UNL     1      -3.315  -2.769  -2.125  0.00  0.00    -0.340 OA
BRANCH  11  12
ATOM     12  C   UNL     1      -3.524  -3.705  -3.196  0.00  0.00    +0.282 C 
ATOM     13  O   UNL     1      -4.906  -4.116  -3.267  0.00  0.00    -0.341 OA
ATOM     14  C   UNL     1      -5.396  -4.776  -2.095  0.00  0.00    +0.178 C 
ATOM     15  C   UNL     1      -4.509  -5.965  -1.667  0.00  0.00    +0.177 C 
ATOM     16  C   UNL     1      -3.029  -5.574  -1.640  0.00  0.00    +0.179 C 
ATOM     17  C   UNL     1      -2.631  -4.930  -2.981  0.00  0.00    +0.201 C 
BRANCH  17  18
ATOM     18  O   UNL     1      -1.239  -4.584  -2.973  0.00  0.00    -0.384 OA
ATOM     19  H   UNL     1      -0.987  -4.528  -2.028  0.00  0.00    +0.210 HD
ENDBRANCH  17  18
BRANCH  16  20
ATOM     20  O   UNL     1      -2.748  -4.693  -0.537  0.00  0.00    -0.386 OA
ATOM     21  H   UNL     1      -3.171  -3.831  -0.721  0.00  0.00    +0.210 HD
ENDBRANCH  16  20
BRANCH  15  22
ATOM     22  O   UNL     1      -4.691  -7.063  -2.569  0.00  0.00    -0.386 OA
ATOM     23  H   UNL     1      -4.087  -7.778  -2.299  0.00  0.00    +0.210 HD
ENDBRANCH  15  22
BRANCH  14  24
ATOM     24  C   UNL     1      -6.853  -5.216  -2.321  0.00  0.00    +0.190 C 
BRANCH  24  25
ATOM     25  O   UNL     1      -7.423  -5.715  -1.112  0.00  0.00    -0.392 OA
ATOM     26  H   UNL     1      -7.074  -6.613  -0.977  0.00  0.00    +0.210 HD
ENDBRANCH  24  25
ENDBRANCH  14  24
ENDBRANCH  11  12
ENDBRANCH   5  11
BRANCH   3  27
ATOM     27  C   UNL     1      -2.915   1.159  -3.986  0.00  0.00    +0.190 C 
BRANCH  27  28
ATOM     28  O   UNL     1      -1.788   1.742  -3.325  0.00  0.00    -0.392 OA
ATOM     29  H   UNL     1      -2.093   2.153  -2.502  0.00  0.00    +0.210 HD
ENDBRANCH  27  28
ENDBRANCH   3  27
BRANCH   1  30
ATOM     30  O   UNL     1      -4.049  -1.711   0.024  0.00  0.00    -0.453 OA
BRANCH  30  41
ATOM     31  C   UNL     1      -5.327  -3.014   1.654  0.00  0.00    +0.181 A 
ATOM     32  O   UNL     1      -6.586  -3.538   2.008  0.00  0.00    -0.451 OA
ATOM     33  C   UNL     1      -7.677  -3.358   1.206  0.00  0.00    +0.147 A 
ATOM     34  C   UNL     1      -7.687  -2.400   0.212  0.00  0.00    +0.109 A 
ATOM     35  C   UNL     1      -8.817  -2.219  -0.582  0.00  0.00    +0.135 A 
ATOM     36  C   UNL     1      -9.951  -2.999  -0.367  0.00  0.00    +0.091 A 
ATOM     37  C   UNL     1      -9.947  -3.961   0.645  0.00  0.00    +0.124 A 
ATOM     38  C   UNL     1      -6.486  -1.606   0.005  0.00  0.00    +0.238 A 
ATOM     39  O   UNL     1      -6.552  -0.560  -0.632  0.00  0.00    -0.283 OA
ATOM     40  C   UNL     1      -8.812  -4.140   1.443  0.00  0.00    +0.092 A 
ATOM     41  C   UNL     1      -5.218  -2.120   0.609  0.00  0.00    +0.214 A 
BRANCH  31  43
ATOM     42  C   UNL     1      -4.872  -4.212   3.861  0.00  0.00    +0.015 A 
ATOM     43  C   UNL     1      -4.327  -3.597   2.679  0.00  0.00    +0.025 A 
ATOM     44  C   UNL     1      -2.928  -3.554   2.642  0.00  0.00    +0.060 A 
ATOM     45  C   UNL     1      -2.162  -3.969   3.760  0.00  0.00    +0.159 A 
ATOM     46  C   UNL     1      -2.748  -4.442   4.934  0.00  0.00    +0.158 A 
ATOM     47  C   UNL     1      -4.111  -4.611   4.976  0.00  0.00    +0.050 A 
BRANCH  46  48
ATOM     48  O   UNL     1      -1.954  -4.714   6.015  0.00  0.00    -0.503 OA
ATOM     49  H   UNL     1      -2.510  -4.723   6.809  0.00  0.00    +0.292 HD
ENDBRANCH  46  48
BRANCH  45  50
ATOM     50  O   UNL     1      -0.795  -3.889   3.719  0.00  0.00    -0.503 OA
ATOM     51  H   UNL     1      -0.476  -4.216   4.579  0.00  0.00    +0.292 HD
ENDBRANCH  45  50
ENDBRANCH  31  43
BRANCH  37  52
ATOM     52  O   UNL     1     -11.038  -4.735   0.883  0.00  0.00    -0.507 OA
ATOM     53  H   UNL     1     -11.718  -4.522   0.223  0.00  0.00    +0.292 HD
ENDBRANCH  37  52
BRANCH  35  54
ATOM     54  O   UNL     1      -8.878  -1.282  -1.571  0.00  0.00    -0.506 OA
ATOM     55  H   UNL     1      -8.037  -0.768  -1.555  0.00  0.00    +0.292 HD
ENDBRANCH  35  54
ENDBRANCH  30  41
ENDBRANCH   1  30
TORSDOF 18
