REMARK  Name = 
REMARK  12 active torsions:
REMARK  status: ('A' for Active; 'I' for Inactive)
REMARK    1  A    between atoms: C_3  and  O_36
REMARK    2  A    between atoms: C_4  and  O_35
REMARK    3  A    between atoms: C_6  and  C_7
REMARK    4  A    between atoms: C_8  and  O_34
REMARK    5  A    between atoms: C_15  and  O_33
REMARK    6  A    between atoms: C_17  and  O_18
REMARK    7  A    between atoms: O_18  and  C_19
REMARK    8  A    between atoms: C_21  and  O_32
REMARK    9  A    between atoms: C_22  and  O_31
REMARK   10  A    between atoms: C_24  and  O_30
REMARK   11  A    between atoms: C_26  and  C_28
REMARK   12  A    between atoms: C_28  and  O_29
REMARK                            x       y       z     vdW  Elec       q    Type
REMARK                         _______ _______ _______ _____ _____    ______ ____
ROOT
ATOM      1  C   UNL     1      -0.966  -2.509  -0.300  0.00  0.00    +0.181 A 
ATOM      2  O   UNL     1      -0.319  -3.727  -0.122  0.00  0.00    -0.451 OA
ATOM      3  C   UNL     1      -1.007  -4.891  -0.392  0.00  0.00    +0.147 A 
ATOM      4  C   UNL     1      -0.400  -6.079   0.013  0.00  0.00    +0.092 A 
ATOM      5  C   UNL     1      -1.075  -7.279  -0.187  0.00  0.00    +0.124 A 
ATOM      6  C   UNL     1      -2.323  -7.317  -0.812  0.00  0.00    +0.092 A 
ATOM      7  C   UNL     1      -2.913  -6.142  -1.288  0.00  0.00    +0.142 A 
ATOM      8  C   UNL     1      -2.250  -4.921  -1.040  0.00  0.00    +0.110 A 
ATOM      9  C   UNL     1      -2.839  -3.622  -1.403  0.00  0.00    +0.238 A 
ATOM     10  O   UNL     1      -3.819  -3.484  -2.131  0.00  0.00    -0.283 OA
ATOM     11  C   UNL     1      -2.192  -2.405  -0.844  0.00  0.00    +0.208 A 
ENDROOT
BRANCH   1  13
ATOM     12  C   UNL     1      -0.129  -0.190  -0.773  0.00  0.00    +0.015 A 
ATOM     13  C   UNL     1      -0.137  -1.328   0.063  0.00  0.00    +0.025 A 
ATOM     14  C   UNL     1       0.742  -1.343   1.160  0.00  0.00    +0.060 A 
ATOM     15  C   UNL     1       1.609  -0.268   1.373  0.00  0.00    +0.159 A 
ATOM     16  C   UNL     1       1.613   0.828   0.517  0.00  0.00    +0.158 A 
ATOM     17  C   UNL     1       0.731   0.888  -0.550  0.00  0.00    +0.050 A 
BRANCH  15  18
ATOM     18  O   UNL     1       2.484  -0.298   2.423  0.00  0.00    -0.503 OA
ATOM     19  H   UNL     1       2.976   0.547   2.363  0.00  0.00    +0.292 HD
ENDBRANCH  15  18
BRANCH  16  20
ATOM     20  O   UNL     1       2.528   1.822   0.740  0.00  0.00    -0.503 OA
ATOM     21  H   UNL     1       2.505   2.426  -0.023  0.00  0.00    +0.292 HD
ENDBRANCH  16  20
ENDBRANCH   1  13
BRANCH   5  22
ATOM     22  O   UNL     1      -0.539  -8.470   0.208  0.00  0.00    -0.507 OA
ATOM     23  H   UNL     1       0.370  -8.326   0.518  0.00  0.00    +0.292 HD
ENDBRANCH   5  22
BRANCH  11  24
ATOM     24  O   UNL     1      -2.886  -1.218  -0.993  0.00  0.00    -0.501 OA
ATOM     25  H   UNL     1      -3.700  -1.459  -1.484  0.00  0.00    +0.292 HD
ENDBRANCH  11  24
BRANCH   7  26
ATOM     26  O   UNL     1      -4.081  -6.106  -2.010  0.00  0.00    -0.460 OA
BRANCH  26  27
ATOM     27  C   UNL     1      -4.906  -7.283  -2.069  0.00  0.00    +0.339 C 
ATOM     28  O   UNL     1      -4.383  -8.280  -2.953  0.00  0.00    -0.331 OA
ATOM     29  C   UNL     1      -4.436  -7.936  -4.355  0.00  0.00    +0.179 C 
ATOM     30  C   UNL     1      -5.858  -7.585  -4.832  0.00  0.00    +0.177 C 
ATOM     31  C   UNL     1      -6.454  -6.490  -3.943  0.00  0.00    +0.180 C 
ATOM     32  C   UNL     1      -6.348  -6.894  -2.465  0.00  0.00    +0.214 C 
BRANCH  30  33
ATOM     33  O   UNL     1      -6.694  -8.748  -4.786  0.00  0.00    -0.386 OA
ATOM     34  H   UNL     1      -7.548  -8.520  -5.196  0.00  0.00    +0.210 HD
ENDBRANCH  30  33
BRANCH  31  35
ATOM     35  O   UNL     1      -5.849  -5.221  -4.214  0.00  0.00    -0.386 OA
ATOM     36  H   UNL     1      -4.949  -5.185  -3.831  0.00  0.00    +0.210 HD
ENDBRANCH  31  35
BRANCH  32  37
ATOM     37  O   UNL     1      -6.863  -5.855  -1.630  0.00  0.00    -0.383 OA
ATOM     38  H   UNL     1      -6.426  -5.027  -1.915  0.00  0.00    +0.210 HD
ENDBRANCH  32  37
BRANCH  29  39
ATOM     39  C   UNL     1      -3.887  -9.149  -5.118  0.00  0.00    +0.190 C 
BRANCH  39  40
ATOM     40  O   UNL     1      -2.531  -9.377  -4.727  0.00  0.00    -0.392 OA
ATOM     41  H   UNL     1      -2.548  -9.384  -3.750  0.00  0.00    +0.210 HD
ENDBRANCH  39  40
ENDBRANCH  29  39
ENDBRANCH  26  27
ENDBRANCH   7  26
TORSDOF 12
