REMARK  Name = 
REMARK  26 active torsions:
REMARK  status: ('A' for Active; 'I' for Inactive)
REMARK    1  A    between atoms: C_1  and  C_2
REMARK    2  A    between atoms: C_3  and  O_74
REMARK    3  A    between atoms: C_5  and  O_73
REMARK    4  A    between atoms: C_6  and  O_47
REMARK    5  A    between atoms: C_8  and  O_11
REMARK    6  A    between atoms: O_11  and  C_12
REMARK    7  A    between atoms: C_12  and  C_13
REMARK    8  A    between atoms: C_14  and  O_46
REMARK    9  A    between atoms: C_16  and  O_45
REMARK   10  A    between atoms: C_18  and  O_44
REMARK   11  A    between atoms: C_19  and  O_22
REMARK   12  A    between atoms: O_22  and  C_23
REMARK   13  A    between atoms: C_25  and  O_43
REMARK   14  A    between atoms: C_30  and  C_35
REMARK   15  A    between atoms: C_31  and  O_34
REMARK   16  A    between atoms: C_37  and  O_42
REMARK   17  A    between atoms: C_38  and  O_41
REMARK   18  A    between atoms: O_47  and  C_48
REMARK   19  A    between atoms: C_50  and  O_60
REMARK   20  A    between atoms: C_52  and  O_59
REMARK   21  A    between atoms: C_53  and  O_58
REMARK   22  A    between atoms: C_55  and  C_57
REMARK   23  A    between atoms: O_60  and  C_61
REMARK   24  A    between atoms: C_63  and  O_72
REMARK   25  A    between atoms: C_64  and  O_71
REMARK   26  A    between atoms: C_66  and  O_70
REMARK                            x       y       z     vdW  Elec       q    Type
REMARK                         _______ _______ _______ _____ _____    ______ ____
ROOT
ATOM      1  C   UNL     1       1.523   3.001  -2.835  0.00  0.00    +0.197 C 
ENDROOT
BRANCH   1   2
ATOM      2  C   UNL     1       1.791   3.932  -1.609  0.00  0.00    +0.179 C 
ATOM      3  O   UNL     1       0.917   5.093  -1.544  0.00  0.00    -0.331 OA
ATOM      4  C   UNL     1       1.195   6.196  -2.437  0.00  0.00    +0.339 C 
ATOM      5  C   UNL     1       2.708   6.591  -2.393  0.00  0.00    +0.214 C 
ATOM      6  C   UNL     1       3.594   5.345  -2.559  0.00  0.00    +0.180 C 
ATOM      7  C   UNL     1       3.260   4.352  -1.445  0.00  0.00    +0.177 C 
BRANCH   6   8
ATOM      8  O   UNL     1       4.991   5.652  -2.519  0.00  0.00    -0.386 OA
ATOM      9  H   UNL     1       5.432   4.793  -2.343  0.00  0.00    +0.210 HD
ENDBRANCH   6   8
BRANCH   7  10
ATOM     10  O   UNL     1       4.197   3.275  -1.464  0.00  0.00    -0.386 OA
ATOM     11  H   UNL     1       3.917   2.645  -0.773  0.00  0.00    +0.210 HD
ENDBRANCH   7  10
BRANCH   5  12
ATOM     12  O   UNL     1       3.034   7.240  -1.143  0.00  0.00    -0.383 OA
ATOM     13  H   UNL     1       2.355   6.997  -0.490  0.00  0.00    +0.210 HD
ENDBRANCH   5  12
BRANCH   4  14
ATOM     14  O   UNL     1       0.444   7.404  -2.087  0.00  0.00    -0.461 OA
BRANCH  14  15
ATOM     15  C   UNL     1      -0.928   7.428  -2.059  0.00  0.00    +0.131 A 
ATOM     16  C   UNL     1      -1.554   8.669  -1.775  0.00  0.00    +0.093 A 
ATOM     17  C   UNL     1      -2.963   8.781  -1.671  0.00  0.00    +0.147 A 
ATOM     18  O   UNL     1      -3.517  10.028  -1.435  0.00  0.00    -0.451 OA
ATOM     19  C   UNL     1      -4.907  10.160  -1.485  0.00  0.00    +0.181 A 
ATOM     20  C   UNL     1      -5.767   9.128  -1.562  0.00  0.00    +0.208 A 
ATOM     21  C   UNL     1      -5.202   7.749  -1.577  0.00  0.00    +0.238 A 
ATOM     22  O   UNL     1      -5.912   6.776  -1.357  0.00  0.00    -0.283 OA
ATOM     23  C   UNL     1      -3.749   7.643  -1.819  0.00  0.00    +0.109 A 
ATOM     24  C   UNL     1      -3.135   6.428  -2.154  0.00  0.00    +0.135 A 
ATOM     25  C   UNL     1      -1.740   6.324  -2.282  0.00  0.00    +0.092 A 
BRANCH  19  26
ATOM     26  C   UNL     1      -5.400  11.557  -1.410  0.00  0.00    +0.025 A 
ATOM     27  C   UNL     1      -5.690  12.268  -2.590  0.00  0.00    +0.015 A 
ATOM     28  C   UNL     1      -6.216  13.565  -2.537  0.00  0.00    +0.050 A 
ATOM     29  C   UNL     1      -6.462  14.150  -1.305  0.00  0.00    +0.158 A 
ATOM     30  C   UNL     1      -6.207  13.453  -0.128  0.00  0.00    +0.159 A 
ATOM     31  C   UNL     1      -5.680  12.159  -0.169  0.00  0.00    +0.060 A 
BRANCH  30  32
ATOM     32  O   UNL     1      -6.504  14.085   1.049  0.00  0.00    -0.503 OA
ATOM     33  H   UNL     1      -6.327  13.473   1.785  0.00  0.00    +0.292 HD
ENDBRANCH  30  32
BRANCH  29  34
ATOM     34  O   UNL     1      -6.968  15.418  -1.258  0.00  0.00    -0.503 OA
ATOM     35  H   UNL     1      -7.040  15.626  -0.305  0.00  0.00    +0.292 HD
ENDBRANCH  29  34
ENDBRANCH  19  26
BRANCH  24  36
ATOM     36  O   UNL     1      -3.887   5.318  -2.402  0.00  0.00    -0.506 OA
ATOM     37  H   UNL     1      -3.350   4.519  -2.288  0.00  0.00    +0.292 HD
ENDBRANCH  24  36
BRANCH  20  38
ATOM     38  O   UNL     1      -7.151   9.247  -1.607  0.00  0.00    -0.501 OA
ATOM     39  H   UNL     1      -7.401  10.179  -1.707  0.00  0.00    +0.292 HD
ENDBRANCH  20  38
ENDBRANCH  14  15
ENDBRANCH   4  14
ENDBRANCH   1   2
BRANCH   1  40
ATOM     40  O   UNL     1       2.398   1.861  -2.984  0.00  0.00    -0.346 OA
BRANCH  40  44
ATOM     41  C   UNL     1       0.412  -0.071   0.506  0.00  0.00    +0.041 C 
ATOM     42  C   UNL     1       1.887   0.145   0.235  0.00  0.00    +0.149 C 
ATOM     43  O   UNL     1       2.209   1.126  -0.768  0.00  0.00    -0.343 OA
ATOM     44  C   UNL     1       2.077   0.744  -2.147  0.00  0.00    +0.282 C 
ATOM     45  C   UNL     1       2.908  -0.585  -2.530  0.00  0.00    +0.208 C 
ATOM     46  C   UNL     1       2.282  -1.587  -1.545  0.00  0.00    +0.179 C 
ATOM     47  C   UNL     1       2.616  -1.148  -0.070  0.00  0.00    +0.174 C 
BRANCH  47  48
ATOM     48  O   UNL     1       3.984  -0.728   0.191  0.00  0.00    -0.387 OA
ATOM     49  H   UNL     1       4.235  -0.141  -0.558  0.00  0.00    +0.210 HD
ENDBRANCH  47  48
BRANCH  46  50
ATOM     50  O   UNL     1       2.524  -2.955  -1.855  0.00  0.00    -0.386 OA
ATOM     51  H   UNL     1       3.309  -3.038  -2.424  0.00  0.00    +0.210 HD
ENDBRANCH  46  50
BRANCH  45  52
ATOM     52  O   UNL     1       4.360  -0.492  -2.322  0.00  0.00    -0.338 OA
BRANCH  52  53
ATOM     53  C   UNL     1       5.222  -1.518  -2.919  0.00  0.00    +0.283 C 
ATOM     54  O   UNL     1       5.025  -2.874  -2.420  0.00  0.00    -0.343 OA
ATOM     55  C   UNL     1       5.243  -2.987  -1.005  0.00  0.00    +0.149 C 
ATOM     56  C   UNL     1       4.817  -4.308  -0.362  0.00  0.00    +0.041 C 
ATOM     57  C   UNL     1       6.511  -2.358  -0.426  0.00  0.00    +0.174 C 
ATOM     58  C   UNL     1       7.004  -1.111  -1.186  0.00  0.00    +0.179 C 
ATOM     59  C   UNL     1       6.751  -1.222  -2.709  0.00  0.00    +0.208 C 
BRANCH  58  60
ATOM     60  O   UNL     1       8.404  -1.001  -0.881  0.00  0.00    -0.386 OA
ATOM     61  H   UNL     1       8.500  -0.286  -0.226  0.00  0.00    +0.210 HD
ENDBRANCH  58  60
BRANCH  57  62
ATOM     62  O   UNL     1       6.280  -1.988   0.955  0.00  0.00    -0.387 OA
ATOM     63  H   UNL     1       5.457  -1.453   0.980  0.00  0.00    +0.210 HD
ENDBRANCH  57  62
BRANCH  59  64
ATOM     64  O   UNL     1       7.208  -0.104  -3.522  0.00  0.00    -0.338 OA
BRANCH  64  65
ATOM     65  C   UNL     1       8.629   0.177  -3.455  0.00  0.00    +0.282 C 
ATOM     66  O   UNL     1       8.912   1.490  -3.980  0.00  0.00    -0.346 OA
ATOM     67  C   UNL     1       9.068   1.643  -5.393  0.00  0.00    +0.197 C 
ATOM     68  C   UNL     1       9.925   0.567  -6.062  0.00  0.00    +0.171 C 
ATOM     69  C   UNL     1       9.444  -0.792  -5.610  0.00  0.00    +0.178 C 
ATOM     70  C   UNL     1       9.548  -0.900  -4.098  0.00  0.00    +0.201 C 
BRANCH  70  71
ATOM     71  O   UNL     1       9.327  -2.249  -3.699  0.00  0.00    -0.384 OA
ATOM     72  H   UNL     1       8.760  -2.660  -4.379  0.00  0.00    +0.210 HD
ENDBRANCH  70  71
BRANCH  69  73
ATOM     73  O   UNL     1       8.099  -1.077  -6.060  0.00  0.00    -0.386 OA
ATOM     74  H   UNL     1       7.484  -0.508  -5.546  0.00  0.00    +0.210 HD
ENDBRANCH  69  73
BRANCH  68  75
ATOM     75  O   UNL     1      11.301   0.749  -5.693  0.00  0.00    -0.387 OA
ATOM     76  H   UNL     1      11.793  -0.069  -5.884  0.00  0.00    +0.210 HD
ENDBRANCH  68  75
ENDBRANCH  64  65
ENDBRANCH  59  64
ENDBRANCH  52  53
ENDBRANCH  45  52
ENDBRANCH  40  44
ENDBRANCH   1  40
TORSDOF 24
