REMARK  Name = 
REMARK  11 active torsions:
REMARK  status: ('A' for Active; 'I' for Inactive)
REMARK    1  A    between atoms: C_1  and  O_2
REMARK    2  A    between atoms: O_2  and  C_3
REMARK    3  A    between atoms: C_4  and  O_28
REMARK    4  A    between atoms: C_6  and  C_9
REMARK    5  A    between atoms: C_10  and  O_23
REMARK    6  A    between atoms: C_14  and  O_22
REMARK    7  A    between atoms: C_16  and  O_20
REMARK    8  A    between atoms: O_20  and  C_21
REMARK    9  A    between atoms: O_23  and  S_24
REMARK   10  A    between atoms: S_24  and  O_27
REMARK   11  A    between atoms: O_28  and  C_29
REMARK                            x       y       z     vdW  Elec       q    Type
REMARK                         _______ _______ _______ _____ _____    ______ ____
ROOT
ATOM      1  C   UNL     1       4.334  -4.624  -2.671  0.00  0.00    +0.184 A 
ATOM      2  O   UNL     1       5.071  -4.530  -3.847  0.00  0.00    -0.451 OA
ATOM      3  C   UNL     1       5.187  -5.653  -4.631  0.00  0.00    +0.147 A 
ATOM      4  C   UNL     1       4.814  -6.913  -4.181  0.00  0.00    +0.109 A 
ATOM      5  C   UNL     1       4.932  -8.018  -5.028  0.00  0.00    +0.135 A 
ATOM      6  C   UNL     1       5.434  -7.871  -6.319  0.00  0.00    +0.092 A 
ATOM      7  C   UNL     1       5.821  -6.610  -6.775  0.00  0.00    +0.127 A 
ATOM      8  C   UNL     1       4.254  -7.032  -2.830  0.00  0.00    +0.241 A 
ATOM      9  O   UNL     1       4.002  -8.140  -2.362  0.00  0.00    -0.283 OA
ATOM     10  C   UNL     1       5.689  -5.500  -5.927  0.00  0.00    +0.092 A 
ATOM     11  C   UNL     1       3.927  -5.782  -2.111  0.00  0.00    +0.248 A 
ENDROOT
BRANCH   1  15
ATOM     12  C   UNL     1       2.743  -0.876  -1.373  0.00  0.00    +0.162 A 
ATOM     13  C   UNL     1       2.008  -1.736  -2.191  0.00  0.00    +0.050 A 
ATOM     14  C   UNL     1       2.562  -2.941  -2.616  0.00  0.00    +0.015 A 
ATOM     15  C   UNL     1       3.846  -3.320  -2.210  0.00  0.00    +0.025 A 
ATOM     16  C   UNL     1       4.595  -2.460  -1.396  0.00  0.00    +0.061 A 
ATOM     17  C   UNL     1       4.049  -1.230  -0.990  0.00  0.00    +0.162 A 
BRANCH  12  19
ATOM     18  C   UNL     1       1.153   0.874  -1.608  0.00  0.00    +0.277 C 
ATOM     19  O   UNL     1       2.254   0.319  -0.898  0.00  0.00    -0.491 OA
ENDBRANCH  12  19
BRANCH  17  20
ATOM     20  O   UNL     1       4.721  -0.343  -0.184  0.00  0.00    -0.491 OA
ATOM     21  C   UNL     1       6.112  -0.211  -0.457  0.00  0.00    +0.277 C 
ENDBRANCH  17  20
ENDBRANCH   1  15
BRANCH   5  22
ATOM     22  O   UNL     1       4.548  -9.281  -4.663  0.00  0.00    -0.506 OA
ATOM     23  H   UNL     1       4.228  -9.252  -3.733  0.00  0.00    +0.292 HD
ENDBRANCH   5  22
BRANCH   7  24
ATOM     24  O   UNL     1       6.330  -6.338  -8.016  0.00  0.00    -0.495 OA
ATOM     25  C   UNL     1       6.538  -7.451  -8.882  0.00  0.00    +0.277 C 
ENDBRANCH   7  24
BRANCH  11  26
ATOM     26  O   UNL     1       3.043  -5.922  -1.059  0.00  0.00    -0.317 OA
BRANCH  26  27
ATOM     27  S   UNL     1       3.337  -5.372   0.439  0.00  0.00    +0.252 S 
ATOM     28  O   UNL     1       2.458  -4.258   0.713  0.00  0.00    -0.108 OA
ATOM     29  O   UNL     1       4.762  -5.280   0.674  0.00  0.00    -0.108 OA
BRANCH  27  30
ATOM     30  O   UNL     1       2.808  -6.572   1.379  0.00  0.00    -0.222 OA
ATOM     31  H   UNL     1       2.918  -6.295   2.311  0.00  0.00    +0.248 HD
ENDBRANCH  27  30
ENDBRANCH  26  27
ENDBRANCH  11  26
TORSDOF 8
