REMARK  Name = 
REMARK  23 active torsions:
REMARK  status: ('A' for Active; 'I' for Inactive)
REMARK    1  A    between atoms: C_1  and  C_2
REMARK    2  A    between atoms: C_3  and  O_62
REMARK    3  A    between atoms: C_5  and  O_61
REMARK    4  A    between atoms: C_7  and  O_60
REMARK    5  A    between atoms: C_8  and  O_11
REMARK    6  A    between atoms: O_11  and  C_12
REMARK    7  A    between atoms: C_12  and  C_13
REMARK    8  A    between atoms: C_14  and  O_59
REMARK    9  A    between atoms: C_16  and  O_58
REMARK   10  A    between atoms: C_17  and  O_57
REMARK   11  A    between atoms: C_18  and  O_21
REMARK   12  A    between atoms: O_21  and  C_22
REMARK   13  A    between atoms: C_23  and  C_49
REMARK   14  A    between atoms: C_27  and  O_34
REMARK   15  A    between atoms: C_29  and  O_33
REMARK   16  A    between atoms: O_34  and  C_35
REMARK   17  A    between atoms: C_37  and  O_48
REMARK   18  A    between atoms: C_38  and  O_47
REMARK   19  A    between atoms: C_40  and  O_46
REMARK   20  A    between atoms: C_42  and  C_44
REMARK   21  A    between atoms: C_44  and  O_45
REMARK   22  A    between atoms: C_51  and  O_56
REMARK   23  A    between atoms: C_52  and  O_55
REMARK                            x       y       z     vdW  Elec       q    Type
REMARK                         _______ _______ _______ _____ _____    ______ ____
ROOT
ATOM      1  C   UNL     1       4.184   7.045  -1.031  0.00  0.00    +0.214 A 
ATOM      2  C   UNL     1       4.654   8.333  -0.417  0.00  0.00    +0.238 A 
ATOM      3  O   UNL     1       4.380   9.412  -0.963  0.00  0.00    -0.283 OA
ATOM      4  C   UNL     1       5.438   8.220   0.864  0.00  0.00    +0.109 A 
ATOM      5  C   UNL     1       5.234   7.067   1.611  0.00  0.00    +0.147 A 
ATOM      6  C   UNL     1       5.931   6.771   2.798  0.00  0.00    +0.093 A 
ATOM      7  C   UNL     1       6.898   7.646   3.279  0.00  0.00    +0.131 A 
ATOM      8  C   UNL     1       7.092   8.836   2.558  0.00  0.00    +0.092 A 
ATOM      9  O   UNL     1       4.324   6.134   1.219  0.00  0.00    -0.451 OA
ATOM     10  C   UNL     1       6.350   9.130   1.385  0.00  0.00    +0.135 A 
ATOM     11  C   UNL     1       4.116   6.022  -0.139  0.00  0.00    +0.181 A 
ENDROOT
BRANCH  11  12
ATOM     12  C   UNL     1       3.987   4.599  -0.457  0.00  0.00    +0.025 A 
ATOM     13  C   UNL     1       5.167   3.924  -0.819  0.00  0.00    +0.015 A 
ATOM     14  C   UNL     1       5.180   2.540  -0.980  0.00  0.00    +0.050 A 
ATOM     15  C   UNL     1       4.036   1.815  -0.663  0.00  0.00    +0.158 A 
ATOM     16  C   UNL     1       2.895   2.473  -0.196  0.00  0.00    +0.159 A 
ATOM     17  C   UNL     1       2.856   3.859  -0.112  0.00  0.00    +0.060 A 
BRANCH  16  18
ATOM     18  O   UNL     1       1.801   1.793   0.262  0.00  0.00    -0.503 OA
ATOM     19  H   UNL     1       1.777   0.952  -0.227  0.00  0.00    +0.292 HD
ENDBRANCH  16  18
BRANCH  15  20
ATOM     20  O   UNL     1       4.038   0.452  -0.743  0.00  0.00    -0.503 OA
ATOM     21  H   UNL     1       4.965   0.158  -0.799  0.00  0.00    +0.292 HD
ENDBRANCH  15  20
ENDBRANCH  11  12
BRANCH  10  22
ATOM     22  O   UNL     1       6.570  10.319   0.751  0.00  0.00    -0.506 OA
ATOM     23  H   UNL     1       6.739  11.001   1.425  0.00  0.00    +0.292 HD
ENDBRANCH  10  22
BRANCH   7  24
ATOM     24  O   UNL     1       7.693   7.433   4.394  0.00  0.00    -0.461 OA
BRANCH  24  25
ATOM     25  C   UNL     1       7.279   6.374   5.289  0.00  0.00    +0.339 C 
ATOM     26  O   UNL     1       6.079   6.725   5.985  0.00  0.00    -0.331 OA
ATOM     27  C   UNL     1       6.263   7.815   6.901  0.00  0.00    +0.179 C 
ATOM     28  C   UNL     1       7.235   7.416   8.030  0.00  0.00    +0.177 C 
ATOM     29  C   UNL     1       8.583   6.959   7.449  0.00  0.00    +0.180 C 
ATOM     30  C   UNL     1       8.364   5.945   6.317  0.00  0.00    +0.214 C 
BRANCH  29  31
ATOM     31  O   UNL     1       9.357   8.099   7.044  0.00  0.00    -0.386 OA
ATOM     32  H   UNL     1       8.882   8.590   6.352  0.00  0.00    +0.210 HD
ENDBRANCH  29  31
BRANCH  30  33
ATOM     33  O   UNL     1       9.588   5.552   5.696  0.00  0.00    -0.383 OA
ATOM     34  H   UNL     1       9.899   6.298   5.153  0.00  0.00    +0.210 HD
ENDBRANCH  30  33
BRANCH  28  35
ATOM     35  O   UNL     1       7.428   8.501   8.946  0.00  0.00    -0.386 OA
ATOM     36  H   UNL     1       8.321   8.867   8.771  0.00  0.00    +0.210 HD
ENDBRANCH  28  35
BRANCH  27  37
ATOM     37  C   UNL     1       4.889   8.217   7.452  0.00  0.00    +0.190 C 
BRANCH  37  38
ATOM     38  O   UNL     1       4.956   9.356   8.300  0.00  0.00    -0.392 OA
ATOM     39  H   UNL     1       5.686   9.199   8.938  0.00  0.00    +0.210 HD
ENDBRANCH  37  38
ENDBRANCH  27  37
ENDBRANCH  24  25
ENDBRANCH   7  24
BRANCH   1  40
ATOM     40  O   UNL     1       3.807   6.873  -2.350  0.00  0.00    -0.453 OA
BRANCH  40  43
ATOM     41  C   UNL     1       5.878   9.227  -4.415  0.00  0.00    +0.179 C 
ATOM     42  O   UNL     1       5.477   8.323  -3.363  0.00  0.00    -0.331 OA
ATOM     43  C   UNL     1       4.205   7.680  -3.485  0.00  0.00    +0.340 C 
ATOM     44  C   UNL     1       3.036   8.580  -3.994  0.00  0.00    +0.214 C 
ATOM     45  C   UNL     1       3.488   9.313  -5.265  0.00  0.00    +0.180 C 
ATOM     46  C   UNL     1       4.730  10.151  -4.924  0.00  0.00    +0.177 C 
BRANCH  46  47
ATOM     47  O   UNL     1       5.135  10.909  -6.070  0.00  0.00    -0.386 OA
ATOM     48  H   UNL     1       5.644  11.677  -5.757  0.00  0.00    +0.210 HD
ENDBRANCH  46  47
BRANCH  45  49
ATOM     49  O   UNL     1       2.428  10.135  -5.775  0.00  0.00    -0.386 OA
ATOM     50  H   UNL     1       2.122  10.690  -5.034  0.00  0.00    +0.210 HD
ENDBRANCH  45  49
BRANCH  44  51
ATOM     51  O   UNL     1       2.590   9.576  -3.057  0.00  0.00    -0.383 OA
ATOM     52  H   UNL     1       3.201   9.573  -2.286  0.00  0.00    +0.210 HD
ENDBRANCH  44  51
BRANCH  41  53
ATOM     53  C   UNL     1       6.620   8.559  -5.616  0.00  0.00    +0.197 C 
BRANCH  53  54
ATOM     54  O   UNL     1       7.916   8.025  -5.364  0.00  0.00    -0.346 OA
BRANCH  54  58
ATOM     55  C   UNL     1      10.274   5.020  -3.354  0.00  0.00    +0.041 C 
ATOM     56  C   UNL     1      10.028   5.124  -4.856  0.00  0.00    +0.149 C 
ATOM     57  O   UNL     1       9.511   6.422  -5.180  0.00  0.00    -0.343 OA
ATOM     58  C   UNL     1       8.109   6.673  -4.955  0.00  0.00    +0.282 C 
ATOM     59  C   UNL     1       7.303   5.613  -5.744  0.00  0.00    +0.201 C 
ATOM     60  C   UNL     1       7.680   4.234  -5.167  0.00  0.00    +0.179 C 
ATOM     61  C   UNL     1       9.174   3.955  -5.379  0.00  0.00    +0.174 C 
BRANCH  61  62
ATOM     62  O   UNL     1       9.442   3.716  -6.769  0.00  0.00    -0.387 OA
ATOM     63  H   UNL     1       8.944   4.396  -7.276  0.00  0.00    +0.210 HD
ENDBRANCH  61  62
BRANCH  60  64
ATOM     64  O   UNL     1       6.868   3.196  -5.724  0.00  0.00    -0.386 OA
ATOM     65  H   UNL     1       7.460   2.472  -6.002  0.00  0.00    +0.210 HD
ENDBRANCH  60  64
BRANCH  59  66
ATOM     66  O   UNL     1       7.635   5.663  -7.151  0.00  0.00    -0.384 OA
ATOM     67  H   UNL     1       7.906   6.583  -7.343  0.00  0.00    +0.210 HD
ENDBRANCH  59  66
ENDBRANCH  54  58
ENDBRANCH  53  54
ENDBRANCH  41  53
ENDBRANCH  40  43
ENDBRANCH   1  40
TORSDOF 22
