REMARK  Name = 
REMARK  15 active torsions:
REMARK  status: ('A' for Active; 'I' for Inactive)
REMARK    1  A    between atoms: C_1  and  C_2
REMARK    2  A    between atoms: C_3  and  O_46
REMARK    3  A    between atoms: C_5  and  O_45
REMARK    4  A    between atoms: C_7  and  O_44
REMARK    5  A    between atoms: C_8  and  O_11
REMARK    6  A    between atoms: O_11  and  C_12
REMARK    7  A    between atoms: C_14  and  O_43
REMARK    8  A    between atoms: C_19  and  C_35
REMARK    9  A    between atoms: C_20  and  O_23
REMARK   10  A    between atoms: O_23  and  C_24
REMARK   11  A    between atoms: C_26  and  O_34
REMARK   12  A    between atoms: C_27  and  O_33
REMARK   13  A    between atoms: C_28  and  O_32
REMARK   14  A    between atoms: C_37  and  O_42
REMARK   15  A    between atoms: C_38  and  O_41
REMARK                            x       y       z     vdW  Elec       q    Type
REMARK                         _______ _______ _______ _____ _____    ______ ____
ROOT
ATOM      1  C   UNL     1       2.669   2.794  -3.179  0.00  0.00    +0.131 A 
ATOM      2  C   UNL     1       1.431   3.314  -2.761  0.00  0.00    +0.093 A 
ATOM      3  C   UNL     1       1.244   4.700  -2.654  0.00  0.00    +0.147 A 
ATOM      4  O   UNL     1       0.037   5.191  -2.204  0.00  0.00    -0.451 OA
ATOM      5  C   UNL     1      -0.239   6.573  -2.332  0.00  0.00    +0.181 A 
ATOM      6  C   UNL     1       0.735   7.488  -2.595  0.00  0.00    +0.214 A 
ATOM      7  C   UNL     1       2.127   6.941  -2.586  0.00  0.00    +0.238 A 
ATOM      8  O   UNL     1       3.102   7.565  -2.185  0.00  0.00    -0.283 OA
ATOM      9  C   UNL     1       2.297   5.545  -2.954  0.00  0.00    +0.109 A 
ATOM     10  C   UNL     1       3.507   5.044  -3.443  0.00  0.00    +0.135 A 
ATOM     11  C   UNL     1       3.687   3.672  -3.556  0.00  0.00    +0.092 A 
ENDROOT
BRANCH   5  12
ATOM     12  C   UNL     1      -1.698   6.893  -2.094  0.00  0.00    +0.025 A 
ATOM     13  C   UNL     1      -2.204   8.208  -2.062  0.00  0.00    +0.015 A 
ATOM     14  C   UNL     1      -3.552   8.501  -1.814  0.00  0.00    +0.050 A 
ATOM     15  C   UNL     1      -4.430   7.467  -1.580  0.00  0.00    +0.158 A 
ATOM     16  C   UNL     1      -3.976   6.155  -1.578  0.00  0.00    +0.159 A 
ATOM     17  C   UNL     1      -2.629   5.863  -1.831  0.00  0.00    +0.060 A 
BRANCH  15  18
ATOM     18  O   UNL     1      -5.742   7.752  -1.338  0.00  0.00    -0.503 OA
ATOM     19  H   UNL     1      -6.165   6.881  -1.210  0.00  0.00    +0.292 HD
ENDBRANCH  15  18
BRANCH  16  20
ATOM     20  O   UNL     1      -4.896   5.178  -1.306  0.00  0.00    -0.503 OA
ATOM     21  H   UNL     1      -4.432   4.327  -1.250  0.00  0.00    +0.292 HD
ENDBRANCH  16  20
ENDBRANCH   5  12
BRANCH  10  22
ATOM     22  O   UNL     1       4.505   5.885  -3.841  0.00  0.00    -0.506 OA
ATOM     23  H   UNL     1       5.349   5.405  -3.870  0.00  0.00    +0.292 HD
ENDBRANCH  10  22
BRANCH   1  24
ATOM     24  O   UNL     1       3.033   1.484  -3.262  0.00  0.00    -0.461 OA
BRANCH  24  28
ATOM     25  C   UNL     1      -0.606  -0.216  -1.722  0.00  0.00    +0.041 C 
ATOM     26  C   UNL     1       0.774  -0.450  -1.113  0.00  0.00    +0.150 C 
ATOM     27  O   UNL     1       1.684   0.568  -1.557  0.00  0.00    -0.334 OA
ATOM     28  C   UNL     1       2.082   0.470  -2.930  0.00  0.00    +0.339 C 
ATOM     29  C   UNL     1       2.795  -0.884  -3.150  0.00  0.00    +0.214 C 
ATOM     30  C   UNL     1       1.801  -2.009  -2.828  0.00  0.00    +0.180 C 
ATOM     31  C   UNL     1       1.300  -1.874  -1.379  0.00  0.00    +0.174 C 
BRANCH  29  32
ATOM     32  O   UNL     1       3.935  -0.975  -2.260  0.00  0.00    -0.383 OA
ATOM     33  H   UNL     1       4.307  -0.073  -2.197  0.00  0.00    +0.210 HD
ENDBRANCH  29  32
BRANCH  30  34
ATOM     34  O   UNL     1       2.376  -3.293  -3.080  0.00  0.00    -0.386 OA
ATOM     35  H   UNL     1       2.230  -3.849  -2.292  0.00  0.00    +0.210 HD
ENDBRANCH  30  34
BRANCH  31  36
ATOM     36  O   UNL     1       2.357  -2.181  -0.457  0.00  0.00    -0.387 OA
ATOM     37  H   UNL     1       3.156  -1.699  -0.769  0.00  0.00    +0.210 HD
ENDBRANCH  31  36
ENDBRANCH  24  28
ENDBRANCH   1  24
BRANCH   6  38
ATOM     38  O   UNL     1       0.479   8.838  -2.857  0.00  0.00    -0.453 OA
BRANCH  38  39
ATOM     39  C   UNL     1       1.509   9.800  -2.567  0.00  0.00    +0.339 C 
ATOM     40  O   UNL     1       1.553  10.110  -1.177  0.00  0.00    -0.337 OA
ATOM     41  C   UNL     1       0.581  11.052  -0.724  0.00  0.00    +0.198 C 
ATOM     42  C   UNL     1       0.676  12.375  -1.474  0.00  0.00    +0.171 C 
ATOM     43  C   UNL     1       0.446  12.123  -2.958  0.00  0.00    +0.180 C 
ATOM     44  C   UNL     1       1.401  11.049  -3.480  0.00  0.00    +0.214 C 
BRANCH  42  45
ATOM     45  O   UNL     1       1.974  12.956  -1.284  0.00  0.00    -0.387 OA
ATOM     46  H   UNL     1       1.997  13.745  -1.859  0.00  0.00    +0.210 HD
ENDBRANCH  42  45
BRANCH  43  47
ATOM     47  O   UNL     1       0.654  13.370  -3.653  0.00  0.00    -0.386 OA
ATOM     48  H   UNL     1       1.280  13.198  -4.383  0.00  0.00    +0.210 HD
ENDBRANCH  43  47
BRANCH  44  49
ATOM     49  O   UNL     1       1.048  10.721  -4.835  0.00  0.00    -0.383 OA
ATOM     50  H   UNL     1       0.259  10.149  -4.795  0.00  0.00    +0.210 HD
ENDBRANCH  44  49
ENDBRANCH  38  39
ENDBRANCH   6  38
TORSDOF 14
