REMARK  Name = 
REMARK  23 active torsions:
REMARK  status: ('A' for Active; 'I' for Inactive)
REMARK    1  A    between atoms: C_1  and  O_2
REMARK    2  A    between atoms: O_2  and  C_3
REMARK    3  A    between atoms: C_5  and  O_62
REMARK    4  A    between atoms: C_10  and  C_54
REMARK    5  A    between atoms: C_11  and  O_14
REMARK    6  A    between atoms: O_14  and  C_15
REMARK    7  A    between atoms: C_17  and  O_53
REMARK    8  A    between atoms: C_18  and  O_41
REMARK    9  A    between atoms: C_20  and  O_40
REMARK   10  A    between atoms: C_22  and  C_24
REMARK   11  A    between atoms: C_24  and  O_25
REMARK   12  A    between atoms: O_25  and  C_26
REMARK   13  A    between atoms: C_28  and  O_39
REMARK   14  A    between atoms: C_29  and  O_38
REMARK   15  A    between atoms: C_31  and  O_37
REMARK   16  A    between atoms: C_33  and  C_35
REMARK   17  A    between atoms: C_35  and  O_36
REMARK   18  A    between atoms: O_41  and  C_42
REMARK   19  A    between atoms: C_44  and  O_52
REMARK   20  A    between atoms: C_45  and  O_51
REMARK   21  A    between atoms: C_47  and  O_50
REMARK   22  A    between atoms: C_56  and  O_61
REMARK   23  A    between atoms: C_57  and  O_60
REMARK                            x       y       z     vdW  Elec       q    Type
REMARK                         _______ _______ _______ _____ _____    ______ ____
ROOT
ATOM      1  C   UNL     1       6.293  -6.802  -2.919  0.00  0.00    +0.340 C 
ATOM      2  O   UNL     1       6.396  -7.749  -4.020  0.00  0.00    -0.331 OA
ATOM      3  C   UNL     1       5.926  -7.429  -5.353  0.00  0.00    +0.179 C 
ATOM      4  C   UNL     1       4.523  -6.783  -5.340  0.00  0.00    +0.177 C 
ATOM      5  C   UNL     1       4.645  -5.550  -4.435  0.00  0.00    +0.187 C 
ATOM      6  C   UNL     1       4.874  -6.237  -3.017  0.00  0.00    +0.214 C 
ENDROOT
BRANCH   6   7
ATOM      7  O   UNL     1       4.541  -5.441  -1.889  0.00  0.00    -0.383 OA
ATOM      8  H   UNL     1       4.756  -5.986  -1.103  0.00  0.00    +0.210 HD
ENDBRANCH   6   7
BRANCH   4   9
ATOM      9  O   UNL     1       3.967  -6.518  -6.622  0.00  0.00    -0.386 OA
ATOM     10  H   UNL     1       4.445  -5.778  -7.041  0.00  0.00    +0.210 HD
ENDBRANCH   4   9
BRANCH   5  11
ATOM     11  O   UNL     1       5.779  -4.736  -4.910  0.00  0.00    -0.340 OA
BRANCH  11  12
ATOM     12  C   UNL     1       5.576  -3.866  -6.054  0.00  0.00    +0.282 C 
ATOM     13  O   UNL     1       5.409  -4.541  -7.310  0.00  0.00    -0.346 OA
ATOM     14  C   UNL     1       6.563  -5.110  -7.950  0.00  0.00    +0.197 C 
ATOM     15  C   UNL     1       7.826  -4.255  -7.972  0.00  0.00    +0.171 C 
ATOM     16  C   UNL     1       8.023  -3.508  -6.659  0.00  0.00    +0.178 C 
ATOM     17  C   UNL     1       6.730  -2.834  -6.198  0.00  0.00    +0.201 C 
BRANCH  17  18
ATOM     18  O   UNL     1       6.946  -2.136  -4.967  0.00  0.00    -0.384 OA
ATOM     19  H   UNL     1       7.811  -2.442  -4.613  0.00  0.00    +0.210 HD
ENDBRANCH  17  18
BRANCH  16  20
ATOM     20  O   UNL     1       8.482  -4.386  -5.644  0.00  0.00    -0.386 OA
ATOM     21  H   UNL     1       7.744  -4.655  -5.061  0.00  0.00    +0.210 HD
ENDBRANCH  16  20
BRANCH  15  22
ATOM     22  O   UNL     1       7.788  -3.316  -9.050  0.00  0.00    -0.387 OA
ATOM     23  H   UNL     1       6.884  -3.261  -9.405  0.00  0.00    +0.210 HD
ENDBRANCH  15  22
ENDBRANCH  11  12
ENDBRANCH   5  11
BRANCH   3  24
ATOM     24  C   UNL     1       5.875  -8.656  -6.315  0.00  0.00    +0.197 C 
BRANCH  24  25
ATOM     25  O   UNL     1       7.132  -9.252  -6.674  0.00  0.00    -0.346 OA
BRANCH  25  26
ATOM     26  C   UNL     1       7.767  -9.914  -5.573  0.00  0.00    +0.282 C 
ATOM     27  O   UNL     1       8.334  -8.963  -4.700  0.00  0.00    -0.341 OA
ATOM     28  C   UNL     1       9.224  -8.054  -5.356  0.00  0.00    +0.178 C 
ATOM     29  C   UNL     1      10.471  -8.823  -5.725  0.00  0.00    +0.177 C 
ATOM     30  C   UNL     1      10.039  -9.937  -6.689  0.00  0.00    +0.179 C 
ATOM     31  C   UNL     1       8.923 -10.805  -6.062  0.00  0.00    +0.201 C 
BRANCH  31  32
ATOM     32  O   UNL     1       8.464 -11.780  -6.997  0.00  0.00    -0.384 OA
ATOM     33  H   UNL     1       8.227 -11.286  -7.805  0.00  0.00    +0.210 HD
ENDBRANCH  31  32
BRANCH  30  34
ATOM     34  O   UNL     1       9.577  -9.335  -7.922  0.00  0.00    -0.386 OA
ATOM     35  H   UNL     1       8.644  -9.065  -7.788  0.00  0.00    +0.210 HD
ENDBRANCH  30  34
BRANCH  29  36
ATOM     36  O   UNL     1      11.436  -7.955  -6.317  0.00  0.00    -0.386 OA
ATOM     37  H   UNL     1      11.057  -7.680  -7.176  0.00  0.00    +0.210 HD
ENDBRANCH  29  36
BRANCH  28  38
ATOM     38  C   UNL     1       9.479  -6.935  -4.396  0.00  0.00    +0.190 C 
BRANCH  38  39
ATOM     39  O   UNL     1      10.493  -6.005  -4.693  0.00  0.00    -0.392 OA
ATOM     40  H   UNL     1      11.245  -6.508  -5.055  0.00  0.00    +0.210 HD
ENDBRANCH  38  39
ENDBRANCH  28  38
ENDBRANCH  25  26
ENDBRANCH  24  25
ENDBRANCH   3  24
BRANCH   1  41
ATOM     41  O   UNL     1       7.195  -5.657  -2.804  0.00  0.00    -0.453 OA
BRANCH  41  47
ATOM     42  C   UNL     1      12.887  -5.887   0.147  0.00  0.00    +0.127 A 
ATOM     43  C   UNL     1      11.830  -4.960   0.308  0.00  0.00    +0.092 A 
ATOM     44  C   UNL     1      10.620  -5.127  -0.390  0.00  0.00    +0.147 A 
ATOM     45  O   UNL     1       9.568  -4.245  -0.238  0.00  0.00    -0.451 OA
ATOM     46  C   UNL     1       8.434  -4.364  -1.099  0.00  0.00    +0.181 A 
ATOM     47  C   UNL     1       8.147  -5.508  -1.782  0.00  0.00    +0.214 A 
ATOM     48  C   UNL     1       9.064  -6.639  -1.452  0.00  0.00    +0.238 A 
ATOM     49  O   UNL     1       8.670  -7.791  -1.345  0.00  0.00    -0.283 OA
ATOM     50  C   UNL     1      10.470  -6.257  -1.171  0.00  0.00    +0.109 A 
ATOM     51  C   UNL     1      11.565  -7.081  -1.459  0.00  0.00    +0.135 A 
ATOM     52  C   UNL     1      12.782  -6.882  -0.820  0.00  0.00    +0.092 A 
BRANCH  46  53
ATOM     53  C   UNL     1       7.591  -3.120  -1.103  0.00  0.00    +0.025 A 
ATOM     54  C   UNL     1       7.724  -2.141  -0.092  0.00  0.00    +0.015 A 
ATOM     55  C   UNL     1       6.952  -0.958  -0.081  0.00  0.00    +0.050 A 
ATOM     56  C   UNL     1       6.048  -0.723  -1.097  0.00  0.00    +0.158 A 
ATOM     57  C   UNL     1       5.885  -1.668  -2.090  0.00  0.00    +0.159 A 
ATOM     58  C   UNL     1       6.623  -2.855  -2.082  0.00  0.00    +0.060 A 
BRANCH  57  59
ATOM     59  O   UNL     1       5.038  -1.377  -3.129  0.00  0.00    -0.503 OA
ATOM     60  H   UNL     1       5.483  -1.747  -3.923  0.00  0.00    +0.292 HD
ENDBRANCH  57  59
BRANCH  56  61
ATOM     61  O   UNL     1       5.349   0.448  -1.142  0.00  0.00    -0.503 OA
ATOM     62  H   UNL     1       4.844   0.397  -1.980  0.00  0.00    +0.292 HD
ENDBRANCH  56  61
ENDBRANCH  46  53
BRANCH  51  63
ATOM     63  O   UNL     1      11.473  -8.105  -2.359  0.00  0.00    -0.506 OA
ATOM     64  H   UNL     1      12.305  -8.604  -2.392  0.00  0.00    +0.292 HD
ENDBRANCH  51  63
BRANCH  42  66
ATOM     65  C   UNL     1      14.886  -6.869   1.010  0.00  0.00    +0.277 C 
ATOM     66  O   UNL     1      13.968  -5.766   0.987  0.00  0.00    -0.495 OA
ENDBRANCH  42  66
ENDBRANCH  41  47
ENDBRANCH   1  41
TORSDOF 22
