REMARK  Name = 
REMARK  28 active torsions:
REMARK  status: ('A' for Active; 'I' for Inactive)
REMARK    1  A    between atoms: C_1  and  C_2
REMARK    2  A    between atoms: C_4  and  O_75
REMARK    3  A    between atoms: C_6  and  O_48
REMARK    4  A    between atoms: C_7  and  O_47
REMARK    5  A    between atoms: C_9  and  O_11
REMARK    6  A    between atoms: O_11  and  C_12
REMARK    7  A    between atoms: C_14  and  O_46
REMARK    8  A    between atoms: C_19  and  C_38
REMARK    9  A    between atoms: C_20  and  O_23
REMARK   10  A    between atoms: O_23  and  C_24
REMARK   11  A    between atoms: C_26  and  O_37
REMARK   12  A    between atoms: C_27  and  O_36
REMARK   13  A    between atoms: C_28  and  O_35
REMARK   14  A    between atoms: C_30  and  C_33
REMARK   15  A    between atoms: C_33  and  O_34
REMARK   16  A    between atoms: C_40  and  O_45
REMARK   17  A    between atoms: C_41  and  O_44
REMARK   18  A    between atoms: O_48  and  C_49
REMARK   19  A    between atoms: C_51  and  O_74
REMARK   20  A    between atoms: C_52  and  O_73
REMARK   21  A    between atoms: C_54  and  O_72
REMARK   22  A    between atoms: C_56  and  C_58
REMARK   23  A    between atoms: C_58  and  O_59
REMARK   24  A    between atoms: O_59  and  C_60
REMARK   25  A    between atoms: C_60  and  C_62
REMARK   26  A    between atoms: C_63  and  C_64
REMARK   27  A    between atoms: C_66  and  O_71
REMARK   28  A    between atoms: C_67  and  O_70
REMARK                            x       y       z     vdW  Elec       q    Type
REMARK                         _______ _______ _______ _____ _____    ______ ____
ROOT
ATOM      1  C   UNL     1       0.944   0.075   0.397  0.00  0.00    +0.041 C 
ATOM      2  C   UNL     1       2.463   0.023   0.222  0.00  0.00    +0.150 C 
ATOM      3  O   UNL     1       2.923   0.996  -0.726  0.00  0.00    -0.334 OA
ATOM      4  C   UNL     1       2.533   0.752  -2.081  0.00  0.00    +0.339 C 
ATOM      5  C   UNL     1       3.062  -0.618  -2.559  0.00  0.00    +0.214 C 
ATOM      6  C   UNL     1       2.604  -1.719  -1.601  0.00  0.00    +0.187 C 
ATOM      7  C   UNL     1       2.998  -1.370  -0.152  0.00  0.00    +0.175 C 
ENDROOT
BRANCH   5   8
ATOM      8  O   UNL     1       4.504  -0.626  -2.621  0.00  0.00    -0.383 OA
ATOM      9  H   UNL     1       4.771  -1.566  -2.569  0.00  0.00    +0.210 HD
ENDBRANCH   5   8
BRANCH   7  10
ATOM     10  O   UNL     1       4.427  -1.362  -0.019  0.00  0.00    -0.387 OA
ATOM     11  H   UNL     1       4.755  -0.589  -0.529  0.00  0.00    +0.210 HD
ENDBRANCH   7  10
BRANCH   6  12
ATOM     12  O   UNL     1       3.146  -2.962  -2.104  0.00  0.00    -0.340 OA
BRANCH  12  13
ATOM     13  C   UNL     1       2.827  -4.142  -1.348  0.00  0.00    +0.282 C 
ATOM     14  O   UNL     1       3.477  -5.279  -1.942  0.00  0.00    -0.339 OA
ATOM     15  C   UNL     1       3.018  -5.616  -3.269  0.00  0.00    +0.190 C 
ATOM     16  C   UNL     1       1.485  -5.811  -3.335  0.00  0.00    +0.178 C 
ATOM     17  C   UNL     1       0.751  -4.642  -2.673  0.00  0.00    +0.179 C 
ATOM     18  C   UNL     1       1.312  -4.438  -1.255  0.00  0.00    +0.201 C 
BRANCH  18  19
ATOM     19  O   UNL     1       0.578  -3.432  -0.543  0.00  0.00    -0.384 OA
ATOM     20  H   UNL     1      -0.097  -3.081  -1.155  0.00  0.00    +0.210 HD
ENDBRANCH  18  19
BRANCH  17  21
ATOM     21  O   UNL     1       0.829  -3.447  -3.460  0.00  0.00    -0.386 OA
ATOM     22  H   UNL     1       1.776  -3.229  -3.591  0.00  0.00    +0.210 HD
ENDBRANCH  17  21
BRANCH  16  23
ATOM     23  O   UNL     1       1.119  -7.024  -2.662  0.00  0.00    -0.386 OA
ATOM     24  H   UNL     1       0.149  -7.064  -2.590  0.00  0.00    +0.210 HD
ENDBRANCH  16  23
BRANCH  15  25
ATOM     25  C   UNL     1       3.722  -6.912  -3.713  0.00  0.00    +0.266 C 
BRANCH  25  26
ATOM     26  O   UNL     1       5.152  -6.766  -3.760  0.00  0.00    -0.459 OA
BRANCH  26  27
ATOM     27  C   UNL     1       5.623  -6.109  -4.842  0.00  0.00    +0.332 C 
ATOM     28  O   UNL     1       4.959  -5.608  -5.741  0.00  0.00    -0.246 OA
BRANCH  27  29
ATOM     29  C   UNL     1       7.095  -6.114  -4.771  0.00  0.00    +0.092 C 
ATOM     30  C   UNL     1       7.797  -5.529  -5.752  0.00  0.00    +0.015 C 
BRANCH  30  31
ATOM     31  C   UNL     1       9.264  -5.514  -5.830  0.00  0.00    -0.021 A 
ATOM     32  C   UNL     1      10.083  -5.527  -4.690  0.00  0.00    +0.012 A 
ATOM     33  C   UNL     1      11.477  -5.514  -4.811  0.00  0.00    +0.050 A 
ATOM     34  C   UNL     1      12.044  -5.478  -6.075  0.00  0.00    +0.158 A 
ATOM     35  C   UNL     1      11.246  -5.442  -7.213  0.00  0.00    +0.159 A 
ATOM     36  C   UNL     1       9.859  -5.452  -7.100  0.00  0.00    +0.057 A 
BRANCH  35  37
ATOM     37  O   UNL     1      11.871  -5.396  -8.429  0.00  0.00    -0.503 OA
ATOM     38  H   UNL     1      11.189  -5.401  -9.123  0.00  0.00    +0.292 HD
ENDBRANCH  35  37
BRANCH  34  39
ATOM     39  O   UNL     1      13.404  -5.478  -6.196  0.00  0.00    -0.503 OA
ATOM     40  H   UNL     1      13.565  -5.460  -7.160  0.00  0.00    +0.292 HD
ENDBRANCH  34  39
ENDBRANCH  30  31
ENDBRANCH  27  29
ENDBRANCH  26  27
ENDBRANCH  25  26
ENDBRANCH  15  25
ENDBRANCH  12  13
ENDBRANCH   6  12
BRANCH   4  41
ATOM     41  O   UNL     1       3.058   1.696  -3.013  0.00  0.00    -0.461 OA
BRANCH  41  42
ATOM     42  C   UNL     1       2.751   3.013  -2.903  0.00  0.00    +0.131 A 
ATOM     43  C   UNL     1       2.501   3.716  -1.724  0.00  0.00    +0.093 A 
ATOM     44  C   UNL     1       2.404   5.107  -1.763  0.00  0.00    +0.147 A 
ATOM     45  O   UNL     1       2.249   5.783  -0.580  0.00  0.00    -0.451 OA
ATOM     46  C   UNL     1       1.892   7.142  -0.609  0.00  0.00    +0.181 A 
ATOM     47  C   UNL     1       2.001   7.891  -1.736  0.00  0.00    +0.214 A 
ATOM     48  C   UNL     1       2.682   7.217  -2.892  0.00  0.00    +0.238 A 
ATOM     49  O   UNL     1       3.396   7.805  -3.696  0.00  0.00    -0.283 OA
ATOM     50  C   UNL     1       2.545   5.770  -2.970  0.00  0.00    +0.109 A 
ATOM     51  C   UNL     1       2.708   5.066  -4.161  0.00  0.00    +0.135 A 
ATOM     52  C   UNL     1       2.825   3.687  -4.124  0.00  0.00    +0.092 A 
BRANCH  46  53
ATOM     53  C   UNL     1       1.453   7.626   0.748  0.00  0.00    +0.025 A 
ATOM     54  C   UNL     1       1.357   6.714   1.828  0.00  0.00    +0.015 A 
ATOM     55  C   UNL     1       1.039   7.128   3.131  0.00  0.00    +0.050 A 
ATOM     56  C   UNL     1       0.804   8.470   3.374  0.00  0.00    +0.158 A 
ATOM     57  C   UNL     1       0.879   9.391   2.338  0.00  0.00    +0.159 A 
ATOM     58  C   UNL     1       1.205   8.978   1.045  0.00  0.00    +0.060 A 
BRANCH  57  59
ATOM     59  O   UNL     1       0.642  10.711   2.618  0.00  0.00    -0.503 OA
ATOM     60  H   UNL     1       0.673  11.211   1.774  0.00  0.00    +0.292 HD
ENDBRANCH  57  59
BRANCH  56  61
ATOM     61  O   UNL     1       0.519   8.881   4.644  0.00  0.00    -0.503 OA
ATOM     62  H   UNL     1       0.435   9.853   4.573  0.00  0.00    +0.292 HD
ENDBRANCH  56  61
ENDBRANCH  46  53
BRANCH  51  63
ATOM     63  O   UNL     1       2.751   5.711  -5.361  0.00  0.00    -0.506 OA
ATOM     64  H   UNL     1       3.109   5.120  -6.042  0.00  0.00    +0.292 HD
ENDBRANCH  51  63
BRANCH  47  65
ATOM     65  O   UNL     1       1.526   9.203  -1.855  0.00  0.00    -0.453 OA
BRANCH  65  66
ATOM     66  C   UNL     1       2.249  10.079  -2.742  0.00  0.00    +0.340 C 
ATOM     67  O   UNL     1       2.469  11.359  -2.128  0.00  0.00    -0.331 OA
ATOM     68  C   UNL     1       1.521  12.408  -2.323  0.00  0.00    +0.179 C 
ATOM     69  C   UNL     1       1.066  12.546  -3.776  0.00  0.00    +0.177 C 
ATOM     70  C   UNL     1       0.547  11.224  -4.304  0.00  0.00    +0.180 C 
ATOM     71  C   UNL     1       1.598  10.125  -4.157  0.00  0.00    +0.214 C 
BRANCH  71  72
ATOM     72  O   UNL     1       0.947   8.907  -4.571  0.00  0.00    -0.383 OA
ATOM     73  H   UNL     1       0.389   8.606  -3.832  0.00  0.00    +0.210 HD
ENDBRANCH  71  72
BRANCH  70  74
ATOM     74  O   UNL     1       0.204  11.417  -5.692  0.00  0.00    -0.386 OA
ATOM     75  H   UNL     1       0.636  10.698  -6.196  0.00  0.00    +0.210 HD
ENDBRANCH  70  74
BRANCH  69  76
ATOM     76  O   UNL     1       2.169  12.966  -4.597  0.00  0.00    -0.386 OA
ATOM     77  H   UNL     1       1.822  12.979  -5.512  0.00  0.00    +0.210 HD
ENDBRANCH  69  76
BRANCH  68  78
ATOM     78  C   UNL     1       0.340  12.289  -1.344  0.00  0.00    +0.190 C 
BRANCH  78  79
ATOM     79  O   UNL     1       0.776  12.281   0.023  0.00  0.00    -0.392 OA
ATOM     80  H   UNL     1       1.474  12.960   0.095  0.00  0.00    +0.210 HD
ENDBRANCH  78  79
ENDBRANCH  68  78
ENDBRANCH  65  66
ENDBRANCH  47  65
ENDBRANCH  41  42
ENDBRANCH   4  41
TORSDOF 27
