REMARK  Name = 
REMARK  13 active torsions:
REMARK  status: ('A' for Active; 'I' for Inactive)
REMARK    1  A    between atoms: C_1  and  O_2
REMARK    2  A    between atoms: O_2  and  C_3
REMARK    3  A    between atoms: C_4  and  O_35
REMARK    4  A    between atoms: C_6  and  C_9
REMARK    5  A    between atoms: C_10  and  O_23
REMARK    6  A    between atoms: C_14  and  O_22
REMARK    7  A    between atoms: C_16  and  O_20
REMARK    8  A    between atoms: O_20  and  C_21
REMARK    9  A    between atoms: O_23  and  C_24
REMARK   10  A    between atoms: C_26  and  O_34
REMARK   11  A    between atoms: C_27  and  O_33
REMARK   12  A    between atoms: C_28  and  O_32
REMARK   13  A    between atoms: O_35  and  C_36
REMARK                            x       y       z     vdW  Elec       q    Type
REMARK                         _______ _______ _______ _____ _____    ______ ____
ROOT
ATOM      1  C   UNL     1       4.760   1.830  -4.895  0.00  0.00    +0.181 A 
ATOM      2  O   UNL     1       4.635   3.180  -5.255  0.00  0.00    -0.451 OA
ATOM      3  C   UNL     1       4.760   3.565  -6.563  0.00  0.00    +0.147 A 
ATOM      4  C   UNL     1       5.063   2.668  -7.569  0.00  0.00    +0.109 A 
ATOM      5  C   UNL     1       5.186   3.108  -8.891  0.00  0.00    +0.135 A 
ATOM      6  C   UNL     1       4.995   4.448  -9.211  0.00  0.00    +0.092 A 
ATOM      7  C   UNL     1       4.694   5.363  -8.203  0.00  0.00    +0.127 A 
ATOM      8  C   UNL     1       5.253   1.272  -7.207  0.00  0.00    +0.238 A 
ATOM      9  O   UNL     1       5.565   0.465  -8.086  0.00  0.00    -0.283 OA
ATOM     10  C   UNL     1       4.577   4.918  -6.879  0.00  0.00    +0.092 A 
ATOM     11  C   UNL     1       5.048   0.848  -5.786  0.00  0.00    +0.214 A 
ENDROOT
BRANCH   1  15
ATOM     12  C   UNL     1       4.081   2.291  -0.688  0.00  0.00    +0.162 A 
ATOM     13  C   UNL     1       3.010   2.243  -1.586  0.00  0.00    +0.050 A 
ATOM     14  C   UNL     1       3.221   1.965  -2.943  0.00  0.00    +0.015 A 
ATOM     15  C   UNL     1       4.513   1.730  -3.433  0.00  0.00    +0.025 A 
ATOM     16  C   UNL     1       5.572   1.674  -2.512  0.00  0.00    +0.061 A 
ATOM     17  C   UNL     1       5.355   1.925  -1.141  0.00  0.00    +0.162 A 
BRANCH  12  19
ATOM     18  C   UNL     1       4.711   3.438   1.297  0.00  0.00    +0.277 C 
ATOM     19  O   UNL     1       3.740   2.669   0.586  0.00  0.00    -0.491 OA
ENDBRANCH  12  19
BRANCH  17  20
ATOM     20  O   UNL     1       6.395   1.908  -0.249  0.00  0.00    -0.491 OA
ATOM     21  C   UNL     1       7.173   0.714  -0.289  0.00  0.00    +0.277 C 
ENDBRANCH  17  20
ENDBRANCH   1  15
BRANCH   5  22
ATOM     22  O   UNL     1       5.485   2.272  -9.933  0.00  0.00    -0.506 OA
ATOM     23  H   UNL     1       5.606   1.365  -9.570  0.00  0.00    +0.292 HD
ENDBRANCH   5  22
BRANCH   7  24
ATOM     24  O   UNL     1       4.493   6.707  -8.395  0.00  0.00    -0.495 OA
ATOM     25  C   UNL     1       4.605   7.182  -9.729  0.00  0.00    +0.277 C 
ENDBRANCH   7  24
BRANCH  11  26
ATOM     26  O   UNL     1       5.188  -0.501  -5.670  0.00  0.00    -0.453 OA
BRANCH  26  27
ATOM     27  C   UNL     1       5.168  -1.269  -4.485  0.00  0.00    +0.339 C 
ATOM     28  O   UNL     1       6.386  -1.127  -3.745  0.00  0.00    -0.337 OA
ATOM     29  C   UNL     1       7.542  -1.596  -4.447  0.00  0.00    +0.198 C 
ATOM     30  C   UNL     1       7.430  -3.081  -4.784  0.00  0.00    +0.171 C 
ATOM     31  C   UNL     1       6.188  -3.283  -5.660  0.00  0.00    +0.180 C 
ATOM     32  C   UNL     1       4.952  -2.753  -4.908  0.00  0.00    +0.214 C 
BRANCH  30  33
ATOM     33  O   UNL     1       8.625  -3.534  -5.416  0.00  0.00    -0.387 OA
ATOM     34  H   UNL     1       8.418  -3.763  -6.341  0.00  0.00    +0.210 HD
ENDBRANCH  30  33
BRANCH  31  35
ATOM     35  O   UNL     1       6.042  -4.664  -6.016  0.00  0.00    -0.386 OA
ATOM     36  H   UNL     1       5.951  -5.189  -5.201  0.00  0.00    +0.210 HD
ENDBRANCH  31  35
BRANCH  32  37
ATOM     37  O   UNL     1       3.763  -2.916  -5.697  0.00  0.00    -0.383 OA
ATOM     38  H   UNL     1       4.028  -2.937  -6.635  0.00  0.00    +0.210 HD
ENDBRANCH  32  37
ENDBRANCH  26  27
ENDBRANCH  11  26
TORSDOF 10
