REMARK  Name = 
REMARK  11 active torsions:
REMARK  status: ('A' for Active; 'I' for Inactive)
REMARK    1  A    between atoms: C_1  and  O_2
REMARK    2  A    between atoms: O_2  and  C_3
REMARK    3  A    between atoms: C_5  and  O_31
REMARK    4  A    between atoms: C_10  and  C_19
REMARK    5  A    between atoms: C_11  and  O_14
REMARK    6  A    between atoms: O_14  and  S_15
REMARK    7  A    between atoms: S_15  and  O_18
REMARK    8  A    between atoms: C_21  and  O_26
REMARK    9  A    between atoms: C_22  and  O_25
REMARK   10  A    between atoms: O_26  and  S_27
REMARK   11  A    between atoms: S_27  and  O_30
REMARK                            x       y       z     vdW  Elec       q    Type
REMARK                         _______ _______ _______ _____ _____    ______ ____
ROOT
ATOM      1  C   UNL     1       2.921   1.236  -0.141  0.00  0.00    +0.127 A 
ATOM      2  C   UNL     1       2.360   2.506   0.005  0.00  0.00    +0.092 A 
ATOM      3  C   UNL     1       3.163   3.647  -0.144  0.00  0.00    +0.147 A 
ATOM      4  O   UNL     1       2.549   4.865   0.031  0.00  0.00    -0.451 OA
ATOM      5  C   UNL     1       3.281   6.023  -0.186  0.00  0.00    +0.184 A 
ATOM      6  C   UNL     1       4.589   6.054  -0.507  0.00  0.00    +0.248 A 
ATOM      7  C   UNL     1       5.319   4.756  -0.542  0.00  0.00    +0.241 A 
ATOM      8  O   UNL     1       6.546   4.745  -0.593  0.00  0.00    -0.283 OA
ATOM      9  C   UNL     1       4.519   3.523  -0.439  0.00  0.00    +0.109 A 
ATOM     10  C   UNL     1       5.075   2.249  -0.591  0.00  0.00    +0.135 A 
ATOM     11  C   UNL     1       4.279   1.114  -0.442  0.00  0.00    +0.092 A 
ENDROOT
BRANCH   5  12
ATOM     12  C   UNL     1       2.464   7.245  -0.035  0.00  0.00    +0.025 A 
ATOM     13  C   UNL     1       1.754   7.753  -1.133  0.00  0.00    +0.015 A 
ATOM     14  C   UNL     1       0.915   8.860  -0.984  0.00  0.00    +0.050 A 
ATOM     15  C   UNL     1       0.783   9.458   0.261  0.00  0.00    +0.161 A 
ATOM     16  C   UNL     1       1.491   8.981   1.367  0.00  0.00    +0.201 A 
ATOM     17  C   UNL     1       2.342   7.879   1.215  0.00  0.00    +0.064 A 
BRANCH  15  18
ATOM     18  O   UNL     1      -0.079  10.516   0.368  0.00  0.00    -0.503 OA
ATOM     19  H   UNL     1      -0.051  10.827   1.289  0.00  0.00    +0.292 HD
ENDBRANCH  15  18
BRANCH  16  20
ATOM     20  O   UNL     1       1.309   9.683   2.533  0.00  0.00    -0.321 OA
BRANCH  20  21
ATOM     21  S   UNL     1       1.402   8.966   3.991  0.00  0.00    +0.251 S 
ATOM     22  O   UNL     1       2.790   8.746   4.330  0.00  0.00    -0.108 OA
ATOM     23  O   UNL     1       0.420   7.903   4.052  0.00  0.00    -0.108 OA
BRANCH  21  24
ATOM     24  O   UNL     1       0.833  10.111   4.971  0.00  0.00    -0.222 OA
ATOM     25  H   UNL     1      -0.119   9.933   5.116  0.00  0.00    +0.248 HD
ENDBRANCH  21  24
ENDBRANCH  20  21
ENDBRANCH  16  20
ENDBRANCH   5  12
BRANCH   1  27
ATOM     26  C   UNL     1       0.888   0.061   0.276  0.00  0.00    +0.277 C 
ATOM     27  O   UNL     1       2.277   0.037  -0.021  0.00  0.00    -0.495 OA
ENDBRANCH   1  27
BRANCH  10  28
ATOM     28  O   UNL     1       6.397   2.088  -0.893  0.00  0.00    -0.506 OA
ATOM     29  H   UNL     1       6.621   1.144  -0.936  0.00  0.00    +0.292 HD
ENDBRANCH  10  28
BRANCH   6  30
ATOM     30  O   UNL     1       5.275   7.243  -0.713  0.00  0.00    -0.317 OA
BRANCH  30  31
ATOM     31  S   UNL     1       6.513   7.381  -1.777  0.00  0.00    +0.252 S 
ATOM     32  O   UNL     1       6.760   8.793  -1.976  0.00  0.00    -0.108 OA
ATOM     33  O   UNL     1       6.253   6.515  -2.910  0.00  0.00    -0.108 OA
BRANCH  31  34
ATOM     34  O   UNL     1       7.793   6.785  -0.993  0.00  0.00    -0.222 OA
ATOM     35  H   UNL     1       7.629   5.816  -0.853  0.00  0.00    +0.248 HD
ENDBRANCH  31  34
ENDBRANCH  30  31
ENDBRANCH   6  30
TORSDOF 10
