REMARK  Name = 
REMARK  18 active torsions:
REMARK  status: ('A' for Active; 'I' for Inactive)
REMARK    1  A    between atoms: C_3  and  O_49
REMARK    2  A    between atoms: C_4  and  O_48
REMARK    3  A    between atoms: C_6  and  C_7
REMARK    4  A    between atoms: C_8  and  O_20
REMARK    5  A    between atoms: C_12  and  O_19
REMARK    6  A    between atoms: C_14  and  O_18
REMARK    7  A    between atoms: O_20  and  C_21
REMARK    8  A    between atoms: C_23  and  O_33
REMARK    9  A    between atoms: C_24  and  O_32
REMARK   10  A    between atoms: C_25  and  O_31
REMARK   11  A    between atoms: C_27  and  C_29
REMARK   12  A    between atoms: C_29  and  O_30
REMARK   13  A    between atoms: O_33  and  C_34
REMARK   14  A    between atoms: C_36  and  O_47
REMARK   15  A    between atoms: C_38  and  O_46
REMARK   16  A    between atoms: C_39  and  O_45
REMARK   17  A    between atoms: C_41  and  C_43
REMARK   18  A    between atoms: C_43  and  O_44
REMARK                            x       y       z     vdW  Elec       q    Type
REMARK                         _______ _______ _______ _____ _____    ______ ____
ROOT
ATOM      1  C   UNL     1      -3.833  -1.309  -1.227  0.00  0.00    +0.340 C 
ATOM      2  O   UNL     1      -4.251  -0.798  -2.537  0.00  0.00    -0.331 OA
ATOM      3  C   UNL     1      -3.291  -0.594  -3.642  0.00  0.00    +0.179 C 
ATOM      4  C   UNL     1      -2.037  -1.529  -3.637  0.00  0.00    +0.177 C 
ATOM      5  C   UNL     1      -2.030  -2.313  -2.341  0.00  0.00    +0.180 C 
ATOM      6  C   UNL     1      -2.332  -1.284  -1.193  0.00  0.00    +0.221 C 
ENDROOT
BRANCH   5   7
ATOM      7  O   UNL     1      -0.967  -3.171  -2.219  0.00  0.00    -0.386 OA
ATOM      8  H   UNL     1      -0.129  -2.695  -2.237  0.00  0.00    +0.210 HD
ENDBRANCH   5   7
BRANCH   4   9
ATOM      9  O   UNL     1      -0.791  -0.830  -3.727  0.00  0.00    -0.386 OA
ATOM     10  H   UNL     1      -0.100  -1.493  -3.906  0.00  0.00    +0.210 HD
ENDBRANCH   4   9
BRANCH   6  11
ATOM     11  O   UNL     1      -1.740  -1.325   0.074  0.00  0.00    -0.337 OA
BRANCH  11  12
ATOM     12  C   UNL     1      -2.069  -2.116   1.207  0.00  0.00    +0.282 C 
ATOM     13  O   UNL     1      -1.493  -1.453   2.368  0.00  0.00    -0.341 OA
ATOM     14  C   UNL     1      -0.174  -0.963   2.053  0.00  0.00    +0.178 C 
ATOM     15  C   UNL     1       0.770  -2.108   1.613  0.00  0.00    +0.177 C 
ATOM     16  C   UNL     1       0.096  -3.159   0.713  0.00  0.00    +0.179 C 
ATOM     17  C   UNL     1      -1.356  -3.462   1.110  0.00  0.00    +0.201 C 
BRANCH  17  18
ATOM     18  O   UNL     1      -1.386  -4.244   2.311  0.00  0.00    -0.384 OA
ATOM     19  H   UNL     1      -0.876  -3.750   2.985  0.00  0.00    +0.210 HD
ENDBRANCH  17  18
BRANCH  16  20
ATOM     20  O   UNL     1       0.895  -4.348   0.678  0.00  0.00    -0.386 OA
ATOM     21  H   UNL     1       0.357  -5.048   1.103  0.00  0.00    +0.210 HD
ENDBRANCH  16  20
BRANCH  15  22
ATOM     22  O   UNL     1       1.333  -2.806   2.729  0.00  0.00    -0.386 OA
ATOM     23  H   UNL     1       1.850  -3.529   2.309  0.00  0.00    +0.210 HD
ENDBRANCH  15  22
BRANCH  14  24
ATOM     24  C   UNL     1       0.381  -0.100   3.187  0.00  0.00    +0.190 C 
BRANCH  24  25
ATOM     25  O   UNL     1       1.360   0.809   2.672  0.00  0.00    -0.392 OA
ATOM     26  H   UNL     1       2.123   0.282   2.380  0.00  0.00    +0.210 HD
ENDBRANCH  24  25
ENDBRANCH  14  24
ENDBRANCH  11  12
ENDBRANCH   6  11
BRANCH   3  27
ATOM     27  C   UNL     1      -2.850   0.866  -4.000  0.00  0.00    +0.190 C 
BRANCH  27  28
ATOM     28  O   UNL     1      -3.885   1.838  -3.973  0.00  0.00    -0.392 OA
ATOM     29  H   UNL     1      -4.619   1.526  -4.525  0.00  0.00    +0.210 HD
ENDBRANCH  27  28
ENDBRANCH   3  27
BRANCH   1  30
ATOM     30  O   UNL     1      -4.036  -2.758  -0.868  0.00  0.00    -0.453 OA
BRANCH  30  41
ATOM     31  C   UNL     1      -5.093  -4.800  -1.781  0.00  0.00    +0.181 A 
ATOM     32  O   UNL     1      -6.357  -5.328  -2.169  0.00  0.00    -0.451 OA
ATOM     33  C   UNL     1      -7.278  -4.502  -2.744  0.00  0.00    +0.147 A 
ATOM     34  C   UNL     1      -7.238  -3.140  -2.559  0.00  0.00    +0.109 A 
ATOM     35  C   UNL     1      -8.085  -2.277  -3.235  0.00  0.00    +0.135 A 
ATOM     36  C   UNL     1      -9.081  -2.809  -4.040  0.00  0.00    +0.091 A 
ATOM     37  C   UNL     1      -9.206  -4.195  -4.126  0.00  0.00    +0.124 A 
ATOM     38  C   UNL     1      -6.310  -2.674  -1.562  0.00  0.00    +0.238 A 
ATOM     39  O   UNL     1      -6.539  -1.626  -0.971  0.00  0.00    -0.283 OA
ATOM     40  C   UNL     1      -8.296  -5.053  -3.507  0.00  0.00    +0.092 A 
ATOM     41  C   UNL     1      -5.063  -3.479  -1.398  0.00  0.00    +0.214 A 
BRANCH  31  43
ATOM     42  C   UNL     1      -4.566  -7.202  -2.495  0.00  0.00    +0.015 A 
ATOM     43  C   UNL     1      -4.069  -5.989  -1.905  0.00  0.00    +0.025 A 
ATOM     44  C   UNL     1      -2.703  -6.073  -1.555  0.00  0.00    +0.060 A 
ATOM     45  C   UNL     1      -1.927  -7.256  -1.788  0.00  0.00    +0.159 A 
ATOM     46  C   UNL     1      -2.483  -8.400  -2.388  0.00  0.00    +0.158 A 
ATOM     47  C   UNL     1      -3.810  -8.365  -2.733  0.00  0.00    +0.050 A 
BRANCH  46  48
ATOM     48  O   UNL     1      -1.683  -9.479  -2.599  0.00  0.00    -0.503 OA
ATOM     49  H   UNL     1      -2.217 -10.176  -3.034  0.00  0.00    +0.292 HD
ENDBRANCH  46  48
BRANCH  45  50
ATOM     50  O   UNL     1      -0.605  -7.323  -1.446  0.00  0.00    -0.503 OA
ATOM     51  H   UNL     1      -0.302  -8.217  -1.735  0.00  0.00    +0.292 HD
ENDBRANCH  45  50
ENDBRANCH  31  43
BRANCH  37  52
ATOM     52  O   UNL     1     -10.235  -4.763  -4.816  0.00  0.00    -0.507 OA
ATOM     53  H   UNL     1     -10.860  -4.058  -5.057  0.00  0.00    +0.292 HD
ENDBRANCH  37  52
BRANCH  35  54
ATOM     54  O   UNL     1      -7.976  -0.916  -3.164  0.00  0.00    -0.506 OA
ATOM     55  H   UNL     1      -7.335  -0.695  -2.450  0.00  0.00    +0.292 HD
ENDBRANCH  35  54
ENDBRANCH  30  41
ENDBRANCH   1  30
TORSDOF 18
