REMARK  Name = 
REMARK  22 active torsions:
REMARK  status: ('A' for Active; 'I' for Inactive)
REMARK    1  A    between atoms: C_1  and  C_2
REMARK    2  A    between atoms: C_4  and  O_64
REMARK    3  A    between atoms: C_6  and  O_63
REMARK    4  A    between atoms: C_8  and  O_62
REMARK    5  A    between atoms: C_10  and  O_13
REMARK    6  A    between atoms: O_13  and  C_14
REMARK    7  A    between atoms: C_14  and  C_15
REMARK    8  A    between atoms: C_17  and  O_61
REMARK    9  A    between atoms: C_19  and  O_60
REMARK   10  A    between atoms: C_21  and  O_48
REMARK   11  A    between atoms: C_23  and  O_26
REMARK   12  A    between atoms: O_26  and  C_27
REMARK   13  A    between atoms: C_28  and  C_40
REMARK   14  A    between atoms: C_32  and  O_39
REMARK   15  A    between atoms: C_34  and  O_38
REMARK   16  A    between atoms: C_42  and  O_47
REMARK   17  A    between atoms: C_43  and  O_46
REMARK   18  A    between atoms: O_48  and  C_49
REMARK   19  A    between atoms: C_51  and  O_59
REMARK   20  A    between atoms: C_53  and  C_56
REMARK   21  A    between atoms: C_53  and  O_58
REMARK   22  A    between atoms: C_56  and  O_57
REMARK                            x       y       z     vdW  Elec       q    Type
REMARK                         _______ _______ _______ _____ _____    ______ ____
ROOT
ATOM      1  C   UNL     1       3.141   4.207  -4.548  0.00  0.00    +0.179 C 
ATOM      2  O   UNL     1       3.740   5.415  -4.092  0.00  0.00    -0.331 OA
ATOM      3  C   UNL     1       2.890   6.154  -3.229  0.00  0.00    +0.340 C 
ATOM      4  C   UNL     1       1.680   6.704  -4.039  0.00  0.00    +0.221 C 
ATOM      5  C   UNL     1       1.043   5.493  -4.801  0.00  0.00    +0.180 C 
ATOM      6  C   UNL     1       2.065   4.611  -5.542  0.00  0.00    +0.177 C 
ENDROOT
BRANCH   5   7
ATOM      7  O   UNL     1       0.059   5.924  -5.757  0.00  0.00    -0.386 OA
ATOM      8  H   UNL     1      -0.247   5.095  -6.180  0.00  0.00    +0.210 HD
ENDBRANCH   5   7
BRANCH   6   9
ATOM      9  O   UNL     1       1.392   3.468  -6.086  0.00  0.00    -0.386 OA
ATOM     10  H   UNL     1       2.019   3.057  -6.710  0.00  0.00    +0.210 HD
ENDBRANCH   6   9
BRANCH   4  11
ATOM     11  O   UNL     1       0.623   7.201  -3.181  0.00  0.00    -0.337 OA
BRANCH  11  12
ATOM     12  C   UNL     1       0.895   8.430  -2.530  0.00  0.00    +0.282 C 
ATOM     13  O   UNL     1       1.921   8.299  -1.549  0.00  0.00    -0.346 OA
ATOM     14  C   UNL     1       1.522   8.904  -0.319  0.00  0.00    +0.202 C 
ATOM     15  C   UNL     1       0.281   9.724  -0.636  0.00  0.00    +0.142 C 
ATOM     16  C   UNL     1      -0.346   8.906  -1.761  0.00  0.00    +0.206 C 
BRANCH  16  17
ATOM     17  O   UNL     1      -1.246   9.681  -2.552  0.00  0.00    -0.384 OA
ATOM     18  H   UNL     1      -0.816  10.543  -2.712  0.00  0.00    +0.210 HD
ENDBRANCH  16  17
BRANCH  15  19
ATOM     19  O   UNL     1       0.643  11.023  -1.157  0.00  0.00    -0.381 OA
ATOM     20  H   UNL     1       1.411  10.917  -1.748  0.00  0.00    +0.210 HD
ENDBRANCH  15  19
BRANCH  15  21
ATOM     21  C   UNL     1      -0.607   9.914   0.593  0.00  0.00    +0.195 C 
BRANCH  21  22
ATOM     22  O   UNL     1      -1.005   8.678   1.177  0.00  0.00    -0.392 OA
ATOM     23  H   UNL     1      -1.756   8.334   0.660  0.00  0.00    +0.210 HD
ENDBRANCH  21  22
ENDBRANCH  15  21
ENDBRANCH  11  12
ENDBRANCH   4  11
BRANCH   3  24
ATOM     24  O   UNL     1       3.766   7.098  -2.590  0.00  0.00    -0.453 OA
BRANCH  24  25
ATOM     25  C   UNL     1       4.565   6.560  -1.559  0.00  0.00    +0.214 A 
ATOM     26  C   UNL     1       4.452   5.103  -1.146  0.00  0.00    +0.238 A 
ATOM     27  O   UNL     1       3.844   4.250  -1.778  0.00  0.00    -0.283 OA
ATOM     28  C   UNL     1       5.140   4.645   0.052  0.00  0.00    +0.109 A 
ATOM     29  C   UNL     1       6.043   5.517   0.633  0.00  0.00    +0.147 A 
ATOM     30  C   UNL     1       6.799   5.103   1.742  0.00  0.00    +0.092 A 
ATOM     31  C   UNL     1       6.622   3.810   2.235  0.00  0.00    +0.124 A 
ATOM     32  C   UNL     1       5.711   2.935   1.663  0.00  0.00    +0.091 A 
ATOM     33  O   UNL     1       6.263   6.778   0.158  0.00  0.00    -0.451 OA
ATOM     34  C   UNL     1       4.962   3.354   0.574  0.00  0.00    +0.135 A 
ATOM     35  C   UNL     1       5.498   7.294  -0.897  0.00  0.00    +0.181 A 
BRANCH  35  36
ATOM     36  C   UNL     1       5.942   8.703  -1.207  0.00  0.00    +0.025 A 
ATOM     37  C   UNL     1       6.684   9.417  -0.229  0.00  0.00    +0.015 A 
ATOM     38  C   UNL     1       7.383  10.593  -0.531  0.00  0.00    +0.050 A 
ATOM     39  C   UNL     1       7.318  11.097  -1.814  0.00  0.00    +0.158 A 
ATOM     40  C   UNL     1       6.497  10.495  -2.759  0.00  0.00    +0.159 A 
ATOM     41  C   UNL     1       5.820   9.303  -2.474  0.00  0.00    +0.060 A 
BRANCH  39  42
ATOM     42  O   UNL     1       8.088  12.172  -2.151  0.00  0.00    -0.503 OA
ATOM     43  H   UNL     1       7.999  12.244  -3.123  0.00  0.00    +0.292 HD
ENDBRANCH  39  42
BRANCH  40  44
ATOM     44  O   UNL     1       6.406  11.102  -3.983  0.00  0.00    -0.503 OA
ATOM     45  H   UNL     1       5.545  10.858  -4.364  0.00  0.00    +0.292 HD
ENDBRANCH  40  44
ENDBRANCH  35  36
BRANCH  34  46
ATOM     46  O   UNL     1       4.052   2.483   0.042  0.00  0.00    -0.506 OA
ATOM     47  H   UNL     1       4.154   1.601   0.431  0.00  0.00    +0.292 HD
ENDBRANCH  34  46
BRANCH  31  48
ATOM     48  O   UNL     1       7.330   3.342   3.299  0.00  0.00    -0.507 OA
ATOM     49  H   UNL     1       7.930   4.039   3.608  0.00  0.00    +0.292 HD
ENDBRANCH  31  48
ENDBRANCH  24  25
ENDBRANCH   3  24
BRANCH   1  50
ATOM     50  C   UNL     1       4.269   3.360  -5.124  0.00  0.00    +0.197 C 
BRANCH  50  51
ATOM     51  O   UNL     1       4.832   4.076  -6.217  0.00  0.00    -0.346 OA
BRANCH  51  55
ATOM     52  C   UNL     1       8.070   1.235  -6.695  0.00  0.00    +0.041 C 
ATOM     53  C   UNL     1       8.209   2.695  -6.279  0.00  0.00    +0.149 C 
ATOM     54  O   UNL     1       6.975   3.237  -5.797  0.00  0.00    -0.343 OA
ATOM     55  C   UNL     1       5.970   3.442  -6.788  0.00  0.00    +0.282 C 
ATOM     56  C   UNL     1       6.445   4.375  -7.921  0.00  0.00    +0.201 C 
ATOM     57  C   UNL     1       7.809   3.947  -8.470  0.00  0.00    +0.179 C 
ATOM     58  C   UNL     1       8.798   3.638  -7.339  0.00  0.00    +0.174 C 
BRANCH  56  59
ATOM     59  O   UNL     1       5.470   4.404  -8.981  0.00  0.00    -0.384 OA
ATOM     60  H   UNL     1       5.890   4.041  -9.783  0.00  0.00    +0.210 HD
ENDBRANCH  56  59
BRANCH  57  61
ATOM     61  O   UNL     1       7.666   2.847  -9.382  0.00  0.00    -0.386 OA
ATOM     62  H   UNL     1       6.966   2.247  -9.073  0.00  0.00    +0.210 HD
ENDBRANCH  57  61
BRANCH  58  63
ATOM     63  O   UNL     1       9.141   4.874  -6.685  0.00  0.00    -0.387 OA
ATOM     64  H   UNL     1       8.484   5.033  -5.978  0.00  0.00    +0.210 HD
ENDBRANCH  58  63
ENDBRANCH  51  55
ENDBRANCH  50  51
ENDBRANCH   1  50
TORSDOF 21
