REMARK  Name = 
REMARK  13 active torsions:
REMARK  status: ('A' for Active; 'I' for Inactive)
REMARK    1  A    between atoms: C_1  and  O_2
REMARK    2  A    between atoms: O_2  and  C_3
REMARK    3  A    between atoms: C_4  and  O_36
REMARK    4  A    between atoms: C_6  and  C_9
REMARK    5  A    between atoms: C_10  and  O_23
REMARK    6  A    between atoms: C_14  and  O_22
REMARK    7  A    between atoms: C_16  and  O_20
REMARK    8  A    between atoms: O_20  and  C_21
REMARK    9  A    between atoms: O_23  and  C_24
REMARK   10  A    between atoms: C_26  and  O_35
REMARK   11  A    between atoms: C_28  and  O_34
REMARK   12  A    between atoms: C_29  and  C_32
REMARK   13  A    between atoms: C_32  and  O_33
REMARK                            x       y       z     vdW  Elec       q    Type
REMARK                         _______ _______ _______ _____ _____    ______ ____
ROOT
ATOM      1  C   UNL     1       4.338   3.176  -4.245  0.00  0.00    +0.181 A 
ATOM      2  O   UNL     1       4.222   4.558  -4.174  0.00  0.00    -0.451 OA
ATOM      3  C   UNL     1       4.380   5.301  -5.312  0.00  0.00    +0.147 A 
ATOM      4  C   UNL     1       4.732   4.740  -6.529  0.00  0.00    +0.109 A 
ATOM      5  C   UNL     1       4.864   5.551  -7.659  0.00  0.00    +0.135 A 
ATOM      6  C   UNL     1       4.631   6.920  -7.576  0.00  0.00    +0.092 A 
ATOM      7  C   UNL     1       4.274   7.490  -6.352  0.00  0.00    +0.127 A 
ATOM      8  C   UNL     1       4.921   3.292  -6.598  0.00  0.00    +0.238 A 
ATOM      9  O   UNL     1       5.245   2.771  -7.663  0.00  0.00    -0.283 OA
ATOM     10  C   UNL     1       4.160   6.676  -5.219  0.00  0.00    +0.092 A 
ATOM     11  C   UNL     1       4.650   2.484  -5.372  0.00  0.00    +0.214 A 
ENDROOT
BRANCH   1  15
ATOM     12  C   UNL     1       3.564   1.177  -0.531  0.00  0.00    +0.161 A 
ATOM     13  C   UNL     1       4.879   1.435  -0.919  0.00  0.00    +0.050 A 
ATOM     14  C   UNL     1       5.137   2.130  -2.112  0.00  0.00    +0.015 A 
ATOM     15  C   UNL     1       4.084   2.567  -2.925  0.00  0.00    +0.025 A 
ATOM     16  C   UNL     1       2.764   2.384  -2.490  0.00  0.00    +0.060 A 
ATOM     17  C   UNL     1       2.522   1.682  -1.314  0.00  0.00    +0.159 A 
BRANCH  12  19
ATOM     18  C   UNL     1       4.192   0.066   1.475  0.00  0.00    +0.277 C 
ATOM     19  O   UNL     1       3.172   0.447   0.560  0.00  0.00    -0.491 OA
ENDBRANCH  12  19
BRANCH  17  20
ATOM     20  O   UNL     1       1.219   1.462  -0.958  0.00  0.00    -0.503 OA
ATOM     21  H   UNL     1       1.265   1.000  -0.097  0.00  0.00    +0.292 HD
ENDBRANCH  17  20
ENDBRANCH   1  15
BRANCH   5  22
ATOM     22  O   UNL     1       5.209   5.062  -8.894  0.00  0.00    -0.506 OA
ATOM     23  H   UNL     1       5.359   4.096  -8.810  0.00  0.00    +0.292 HD
ENDBRANCH   5  22
BRANCH   7  24
ATOM     24  O   UNL     1       4.007   8.816  -6.138  0.00  0.00    -0.495 OA
ATOM     25  C   UNL     1       4.054   9.670  -7.277  0.00  0.00    +0.277 C 
ENDBRANCH   7  24
BRANCH  11  26
ATOM     26  O   UNL     1       4.785   1.133  -5.587  0.00  0.00    -0.453 OA
BRANCH  26  27
ATOM     27  C   UNL     1       3.970   0.193  -4.916  0.00  0.00    +0.340 C 
ATOM     28  O   UNL     1       4.762  -0.756  -4.198  0.00  0.00    -0.331 OA
ATOM     29  C   UNL     1       4.062  -2.020  -4.242  0.00  0.00    +0.179 C 
ATOM     30  C   UNL     1       2.739  -1.795  -5.002  0.00  0.00    +0.180 C 
ATOM     31  C   UNL     1       3.100  -0.614  -5.892  0.00  0.00    +0.214 C 
BRANCH  30  32
ATOM     32  O   UNL     1       1.669  -1.504  -4.089  0.00  0.00    -0.386 OA
ATOM     33  H   UNL     1       1.304  -0.619  -4.260  0.00  0.00    +0.210 HD
ENDBRANCH  30  32
BRANCH  31  34
ATOM     34  O   UNL     1       3.811  -1.075  -7.043  0.00  0.00    -0.383 OA
ATOM     35  H   UNL     1       4.284  -0.306  -7.418  0.00  0.00    +0.210 HD
ENDBRANCH  31  34
BRANCH  29  36
ATOM     36  C   UNL     1       3.910  -2.531  -2.811  0.00  0.00    +0.190 C 
BRANCH  36  37
ATOM     37  O   UNL     1       3.153  -3.730  -2.750  0.00  0.00    -0.392 OA
ATOM     38  H   UNL     1       2.234  -3.473  -2.964  0.00  0.00    +0.210 HD
ENDBRANCH  36  37
ENDBRANCH  29  36
ENDBRANCH  26  27
ENDBRANCH  11  26
TORSDOF 11
