REMARK  Name = 
REMARK  11 active torsions:
REMARK  status: ('A' for Active; 'I' for Inactive)
REMARK    1  A    between atoms: C_1  and  O_2
REMARK    2  A    between atoms: O_2  and  C_3
REMARK    3  A    between atoms: C_4  and  C_16
REMARK    4  A    between atoms: C_8  and  O_15
REMARK    5  A    between atoms: C_10  and  O_14
REMARK    6  A    between atoms: C_18  and  O_23
REMARK    7  A    between atoms: C_19  and  O_22
REMARK    8  A    between atoms: O_23  and  C_24
REMARK    9  A    between atoms: C_26  and  O_35
REMARK   10  A    between atoms: C_27  and  O_34
REMARK   11  A    between atoms: C_29  and  O_33
REMARK                            x       y       z     vdW  Elec       q    Type
REMARK                         _______ _______ _______ _____ _____    ______ ____
ROOT
ATOM      1  C   UNL     1       4.401  -1.027  -1.678  0.00  0.00    +0.025 A 
ATOM      2  C   UNL     1       3.616  -2.091  -1.212  0.00  0.00    +0.015 A 
ATOM      3  C   UNL     1       3.843  -3.393  -1.667  0.00  0.00    +0.050 A 
ATOM      4  C   UNL     1       4.816  -3.611  -2.646  0.00  0.00    +0.159 A 
ATOM      5  C   UNL     1       5.595  -2.560  -3.154  0.00  0.00    +0.166 A 
ATOM      6  C   UNL     1       5.442  -1.290  -2.587  0.00  0.00    +0.061 A 
ENDROOT
BRANCH   1  17
ATOM      7  C   UNL     1       3.188   1.017  -2.282  0.00  0.00    +0.211 A 
ATOM      8  C   UNL     1       2.761   2.396  -1.913  0.00  0.00    +0.238 A 
ATOM      9  O   UNL     1       1.764   2.908  -2.407  0.00  0.00    -0.283 OA
ATOM     10  C   UNL     1       3.560   3.082  -0.890  0.00  0.00    +0.109 A 
ATOM     11  C   UNL     1       4.388   2.300  -0.083  0.00  0.00    +0.147 A 
ATOM     12  C   UNL     1       5.091   2.895   0.971  0.00  0.00    +0.092 A 
ATOM     13  C   UNL     1       4.971   4.272   1.184  0.00  0.00    +0.124 A 
ATOM     14  C   UNL     1       4.182   5.062   0.359  0.00  0.00    +0.091 A 
ATOM     15  O   UNL     1       4.546   0.942  -0.267  0.00  0.00    -0.451 OA
ATOM     16  C   UNL     1       3.478   4.466  -0.683  0.00  0.00    +0.135 A 
ATOM     17  C   UNL     1       4.008   0.377  -1.413  0.00  0.00    +0.181 A 
BRANCH   7  19
ATOM     18  C   UNL     1       2.551   1.263  -4.546  0.00  0.00    +0.277 C 
ATOM     19  O   UNL     1       2.714   0.392  -3.428  0.00  0.00    -0.488 OA
ENDBRANCH   7  19
BRANCH  13  20
ATOM     20  O   UNL     1       5.625   4.898   2.201  0.00  0.00    -0.507 OA
ATOM     21  H   UNL     1       6.108   4.240   2.728  0.00  0.00    +0.292 HD
ENDBRANCH  13  20
BRANCH  16  22
ATOM     22  O   UNL     1       2.739   5.260  -1.514  0.00  0.00    -0.506 OA
ATOM     23  H   UNL     1       2.674   6.157  -1.150  0.00  0.00    +0.292 HD
ENDBRANCH  16  22
ENDBRANCH   1  17
BRANCH   4  24
ATOM     24  O   UNL     1       4.967  -4.893  -3.104  0.00  0.00    -0.503 OA
ATOM     25  H   UNL     1       5.761  -4.891  -3.667  0.00  0.00    +0.292 HD
ENDBRANCH   4  24
BRANCH   5  26
ATOM     26  O   UNL     1       6.344  -2.841  -4.275  0.00  0.00    -0.457 OA
BRANCH  26  27
ATOM     27  C   UNL     1       7.376  -1.907  -4.669  0.00  0.00    +0.339 C 
ATOM     28  O   UNL     1       6.933  -0.578  -4.964  0.00  0.00    -0.337 OA
ATOM     29  C   UNL     1       6.135  -0.425  -6.139  0.00  0.00    +0.198 C 
ATOM     30  C   UNL     1       6.799  -0.973  -7.406  0.00  0.00    +0.171 C 
ATOM     31  C   UNL     1       7.336  -2.387  -7.179  0.00  0.00    +0.180 C 
ATOM     32  C   UNL     1       8.157  -2.467  -5.882  0.00  0.00    +0.214 C 
BRANCH  30  33
ATOM     33  O   UNL     1       7.881  -0.108  -7.775  0.00  0.00    -0.387 OA
ATOM     34  H   UNL     1       8.135  -0.326  -8.690  0.00  0.00    +0.210 HD
ENDBRANCH  30  33
BRANCH  31  35
ATOM     35  O   UNL     1       6.286  -3.365  -7.178  0.00  0.00    -0.386 OA
ATOM     36  H   UNL     1       5.816  -3.327  -6.323  0.00  0.00    +0.210 HD
ENDBRANCH  31  35
BRANCH  32  37
ATOM     37  O   UNL     1       8.594  -3.816  -5.663  0.00  0.00    -0.383 OA
ATOM     38  H   UNL     1       7.961  -4.395  -6.130  0.00  0.00    +0.210 HD
ENDBRANCH  32  37
ENDBRANCH  26  27
ENDBRANCH   5  26
TORSDOF 10
