REMARK  Name = 
REMARK  22 active torsions:
REMARK  status: ('A' for Active; 'I' for Inactive)
REMARK    1  A    between atoms: C_3  and  O_58
REMARK    2  A    between atoms: C_4  and  O_57
REMARK    3  A    between atoms: C_6  and  C_7
REMARK    4  A    between atoms: C_8  and  O_20
REMARK    5  A    between atoms: C_12  and  O_19
REMARK    6  A    between atoms: C_14  and  O_18
REMARK    7  A    between atoms: O_20  and  C_21
REMARK    8  A    between atoms: C_23  and  O_45
REMARK    9  A    between atoms: C_24  and  O_44
REMARK   10  A    between atoms: C_26  and  O_43
REMARK   11  A    between atoms: C_28  and  C_30
REMARK   12  A    between atoms: C_30  and  O_31
REMARK   13  A    between atoms: O_31  and  C_32
REMARK   14  A    between atoms: C_32  and  C_34
REMARK   15  A    between atoms: C_36  and  O_42
REMARK   16  A    between atoms: C_37  and  O_41
REMARK   17  A    between atoms: C_38  and  O_40
REMARK   18  A    between atoms: O_45  and  C_46
REMARK   19  A    between atoms: C_46  and  C_48
REMARK   20  A    between atoms: C_50  and  O_56
REMARK   21  A    between atoms: C_51  and  O_55
REMARK   22  A    between atoms: C_52  and  O_54
REMARK                            x       y       z     vdW  Elec       q    Type
REMARK                         _______ _______ _______ _____ _____    ______ ____
ROOT
ATOM      1  C   UNL     1      -3.989  -0.463  -0.921  0.00  0.00    +0.352 C 
ATOM      2  O   UNL     1      -3.796   0.380  -2.094  0.00  0.00    -0.329 OA
ATOM      3  C   UNL     1      -3.202  -0.188  -3.278  0.00  0.00    +0.191 C 
ATOM      4  C   UNL     1      -2.006  -1.123  -3.028  0.00  0.00    +0.179 C 
ATOM      5  C   UNL     1      -2.186  -1.972  -1.775  0.00  0.00    +0.192 C 
ATOM      6  C   UNL     1      -2.625  -1.066  -0.574  0.00  0.00    +0.276 C 
ENDROOT
BRANCH   5   7
ATOM      7  O   UNL     1      -3.087  -3.015  -2.182  0.00  0.00    -0.385 OA
ATOM      8  H   UNL     1      -4.003  -2.752  -1.971  0.00  0.00    +0.210 HD
ENDBRANCH   5   7
BRANCH   4   9
ATOM      9  O   UNL     1      -1.829  -1.953  -4.191  0.00  0.00    -0.386 OA
ATOM     10  H   UNL     1      -2.466  -2.692  -4.083  0.00  0.00    +0.210 HD
ENDBRANCH   4   9
BRANCH   6  11
ATOM     11  O   UNL     1      -2.593  -1.808   0.670  0.00  0.00    -0.449 OA
BRANCH  11  12
ATOM     12  C   UNL     1      -2.895  -1.286   1.892  0.00  0.00    +0.340 C 
ATOM     13  O   UNL     1      -3.268  -0.148   2.128  0.00  0.00    -0.245 OA
BRANCH  12  14
ATOM     14  C   UNL     1      -2.760  -2.383   2.931  0.00  0.00    +0.066 A 
ATOM     15  C   UNL     1      -2.362  -3.649   2.458  0.00  0.00    +0.064 A 
ATOM     16  C   UNL     1      -2.280  -4.732   3.316  0.00  0.00    +0.163 A 
ATOM     17  C   UNL     1      -2.545  -4.596   4.659  0.00  0.00    +0.201 A 
ATOM     18  C   UNL     1      -2.911  -3.343   5.160  0.00  0.00    +0.163 A 
ATOM     19  C   UNL     1      -3.025  -2.235   4.300  0.00  0.00    +0.064 A 
BRANCH  18  20
ATOM     20  O   UNL     1      -3.140  -3.299   6.516  0.00  0.00    -0.503 OA
ATOM     21  H   UNL     1      -3.340  -2.387   6.787  0.00  0.00    +0.292 HD
ENDBRANCH  18  20
BRANCH  17  22
ATOM     22  O   UNL     1      -2.438  -5.691   5.461  0.00  0.00    -0.501 OA
ATOM     23  H   UNL     1      -2.644  -5.373   6.363  0.00  0.00    +0.292 HD
ENDBRANCH  17  22
BRANCH  16  24
ATOM     24  O   UNL     1      -1.937  -5.940   2.788  0.00  0.00    -0.503 OA
ATOM     25  H   UNL     1      -2.009  -6.570   3.531  0.00  0.00    +0.292 HD
ENDBRANCH  16  24
ENDBRANCH  12  14
ENDBRANCH  11  12
ENDBRANCH   6  11
BRANCH   3  26
ATOM     26  C   UNL     1      -2.639   0.910  -4.228  0.00  0.00    +0.266 C 
BRANCH  26  27
ATOM     27  O   UNL     1      -3.559   1.972  -4.462  0.00  0.00    -0.458 OA
BRANCH  27  28
ATOM     28  C   UNL     1      -3.475   2.967  -3.545  0.00  0.00    +0.340 C 
ATOM     29  O   UNL     1      -2.730   3.034  -2.582  0.00  0.00    -0.245 OA
BRANCH  28  30
ATOM     30  C   UNL     1      -4.473   3.988  -3.884  0.00  0.00    +0.066 A 
ATOM     31  C   UNL     1      -5.226   4.534  -2.841  0.00  0.00    +0.064 A 
ATOM     32  C   UNL     1      -6.188   5.480  -3.143  0.00  0.00    +0.163 A 
ATOM     33  C   UNL     1      -6.381   5.895  -4.457  0.00  0.00    +0.201 A 
ATOM     34  C   UNL     1      -5.614   5.363  -5.489  0.00  0.00    +0.163 A 
ATOM     35  C   UNL     1      -4.651   4.403  -5.215  0.00  0.00    +0.064 A 
BRANCH  34  36
ATOM     36  O   UNL     1      -5.848   5.813  -6.758  0.00  0.00    -0.503 OA
ATOM     37  H   UNL     1      -5.255   5.339  -7.367  0.00  0.00    +0.292 HD
ENDBRANCH  34  36
BRANCH  33  38
ATOM     38  O   UNL     1      -7.343   6.831  -4.722  0.00  0.00    -0.501 OA
ATOM     39  H   UNL     1      -7.295   6.952  -5.693  0.00  0.00    +0.292 HD
ENDBRANCH  33  38
BRANCH  32  40
ATOM     40  O   UNL     1      -6.958   5.993  -2.141  0.00  0.00    -0.503 OA
ATOM     41  H   UNL     1      -7.536   6.645  -2.583  0.00  0.00    +0.292 HD
ENDBRANCH  32  40
ENDBRANCH  28  30
ENDBRANCH  27  28
ENDBRANCH  26  27
ENDBRANCH   3  26
BRANCH   1  42
ATOM     42  O   UNL     1      -5.013  -1.470  -1.140  0.00  0.00    -0.452 OA
BRANCH  42  53
ATOM     43  C   UNL     1      -6.777  -1.506   0.567  0.00  0.00    +0.181 A 
ATOM     44  O   UNL     1      -7.514  -2.217   1.524  0.00  0.00    -0.451 OA
ATOM     45  C   UNL     1      -7.265  -3.531   1.787  0.00  0.00    +0.147 A 
ATOM     46  C   UNL     1      -6.150  -4.184   1.298  0.00  0.00    +0.109 A 
ATOM     47  C   UNL     1      -5.921  -5.522   1.670  0.00  0.00    +0.135 A 
ATOM     48  C   UNL     1      -6.824  -6.207   2.488  0.00  0.00    +0.091 A 
ATOM     49  C   UNL     1      -7.961  -5.550   2.932  0.00  0.00    +0.124 A 
ATOM     50  C   UNL     1      -5.289  -3.434   0.372  0.00  0.00    +0.238 A 
ATOM     51  O   UNL     1      -4.297  -3.999  -0.068  0.00  0.00    -0.283 OA
ATOM     52  C   UNL     1      -8.183  -4.215   2.596  0.00  0.00    +0.092 A 
ATOM     53  C   UNL     1      -5.668  -2.024  -0.029  0.00  0.00    +0.214 A 
BRANCH  43  55
ATOM     54  C   UNL     1      -8.431   0.284   1.186  0.00  0.00    +0.015 A 
ATOM     55  C   UNL     1      -7.436  -0.184   0.286  0.00  0.00    +0.025 A 
ATOM     56  C   UNL     1      -7.209   0.601  -0.852  0.00  0.00    +0.060 A 
ATOM     57  C   UNL     1      -7.961   1.752  -1.085  0.00  0.00    +0.159 A 
ATOM     58  C   UNL     1      -8.978   2.146  -0.222  0.00  0.00    +0.158 A 
ATOM     59  C   UNL     1      -9.203   1.425   0.931  0.00  0.00    +0.050 A 
BRANCH  58  60
ATOM     60  O   UNL     1      -9.737   3.224  -0.571  0.00  0.00    -0.503 OA
ATOM     61  H   UNL     1     -10.524   3.240   0.001  0.00  0.00    +0.292 HD
ENDBRANCH  58  60
BRANCH  57  62
ATOM     62  O   UNL     1      -7.712   2.488  -2.210  0.00  0.00    -0.503 OA
ATOM     63  H   UNL     1      -8.257   3.297  -2.108  0.00  0.00    +0.292 HD
ENDBRANCH  57  62
ENDBRANCH  43  55
BRANCH  49  64
ATOM     64  O   UNL     1      -8.890  -6.181   3.708  0.00  0.00    -0.507 OA
ATOM     65  H   UNL     1      -8.628  -7.112   3.823  0.00  0.00    +0.292 HD
ENDBRANCH  49  64
BRANCH  47  66
ATOM     66  O   UNL     1      -4.830  -6.246   1.272  0.00  0.00    -0.506 OA
ATOM     67  H   UNL     1      -4.226  -5.659   0.767  0.00  0.00    +0.292 HD
ENDBRANCH  47  66
ENDBRANCH  42  53
ENDBRANCH   1  42
TORSDOF 22
