REMARK  Name = 
REMARK  23 active torsions:
REMARK  status: ('A' for Active; 'I' for Inactive)
REMARK    1  A    between atoms: C_1  and  C_2
REMARK    2  A    between atoms: C_3  and  O_61
REMARK    3  A    between atoms: C_5  and  O_60
REMARK    4  A    between atoms: C_7  and  O_59
REMARK    5  A    between atoms: C_8  and  O_11
REMARK    6  A    between atoms: O_11  and  C_12
REMARK    7  A    between atoms: C_12  and  C_13
REMARK    8  A    between atoms: C_14  and  O_58
REMARK    9  A    between atoms: C_16  and  O_57
REMARK   10  A    between atoms: C_17  and  O_56
REMARK   11  A    between atoms: C_18  and  O_21
REMARK   12  A    between atoms: O_21  and  C_22
REMARK   13  A    between atoms: C_23  and  C_35
REMARK   14  A    between atoms: C_27  and  O_34
REMARK   15  A    between atoms: C_29  and  O_33
REMARK   16  A    between atoms: C_37  and  O_55
REMARK   17  A    between atoms: C_38  and  O_41
REMARK   18  A    between atoms: O_41  and  C_42
REMARK   19  A    between atoms: C_44  and  O_54
REMARK   20  A    between atoms: C_45  and  O_53
REMARK   21  A    between atoms: C_46  and  O_52
REMARK   22  A    between atoms: C_48  and  C_50
REMARK   23  A    between atoms: C_50  and  O_51
REMARK                            x       y       z     vdW  Elec       q    Type
REMARK                         _______ _______ _______ _____ _____    ______ ____
ROOT
ATOM      1  C   UNL     1       4.079   6.559  -0.703  0.00  0.00    +0.214 A 
ATOM      2  C   UNL     1       4.584   7.822  -0.075  0.00  0.00    +0.238 A 
ATOM      3  O   UNL     1       4.093   8.906  -0.400  0.00  0.00    -0.283 OA
ATOM      4  C   UNL     1       5.638   7.738   0.944  0.00  0.00    +0.109 A 
ATOM      5  C   UNL     1       5.980   6.467   1.388  0.00  0.00    +0.147 A 
ATOM      6  C   UNL     1       6.880   6.317   2.448  0.00  0.00    +0.092 A 
ATOM      7  C   UNL     1       7.483   7.443   3.000  0.00  0.00    +0.124 A 
ATOM      8  C   UNL     1       7.202   8.716   2.522  0.00  0.00    +0.091 A 
ATOM      9  O   UNL     1       5.503   5.318   0.815  0.00  0.00    -0.451 OA
ATOM     10  C   UNL     1       6.270   8.864   1.495  0.00  0.00    +0.135 A 
ATOM     11  C   UNL     1       4.602   5.383  -0.248  0.00  0.00    +0.181 A 
ENDROOT
BRANCH  11  12
ATOM     12  C   UNL     1       4.263   4.007  -0.692  0.00  0.00    +0.025 A 
ATOM     13  C   UNL     1       3.004   3.506  -0.375  0.00  0.00    +0.015 A 
ATOM     14  C   UNL     1       2.655   2.188  -0.697  0.00  0.00    +0.050 A 
ATOM     15  C   UNL     1       3.564   1.280  -1.253  0.00  0.00    +0.165 A 
ATOM     16  C   UNL     1       4.853   1.736  -1.510  0.00  0.00    +0.159 A 
ATOM     17  C   UNL     1       5.199   3.093  -1.236  0.00  0.00    +0.060 A 
BRANCH  16  18
ATOM     18  O   UNL     1       5.775   0.897  -2.064  0.00  0.00    -0.503 OA
ATOM     19  H   UNL     1       6.667   1.260  -1.912  0.00  0.00    +0.292 HD
ENDBRANCH  16  18
BRANCH  15  20
ATOM     20  O   UNL     1       2.971   0.092  -1.493  0.00  0.00    -0.457 OA
BRANCH  20  21
ATOM     21  C   UNL     1       3.520  -1.225  -1.591  0.00  0.00    +0.339 C 
ATOM     22  O   UNL     1       2.373  -2.092  -1.873  0.00  0.00    -0.331 OA
ATOM     23  C   UNL     1       1.332  -1.976  -0.856  0.00  0.00    +0.179 C 
ATOM     24  C   UNL     1       1.828  -2.205   0.595  0.00  0.00    +0.177 C 
ATOM     25  C   UNL     1       3.181  -1.523   0.856  0.00  0.00    +0.180 C 
ATOM     26  C   UNL     1       4.125  -1.850  -0.311  0.00  0.00    +0.214 C 
BRANCH  26  27
ATOM     27  O   UNL     1       5.475  -1.479  -0.048  0.00  0.00    -0.383 OA
ATOM     28  H   UNL     1       5.817  -2.168   0.554  0.00  0.00    +0.210 HD
ENDBRANCH  26  27
BRANCH  25  29
ATOM     29  O   UNL     1       3.725  -1.953   2.115  0.00  0.00    -0.386 OA
ATOM     30  H   UNL     1       3.614  -2.910   2.168  0.00  0.00    +0.210 HD
ENDBRANCH  25  29
BRANCH  24  31
ATOM     31  O   UNL     1       1.992  -3.611   0.875  0.00  0.00    -0.386 OA
ATOM     32  H   UNL     1       1.727  -3.751   1.804  0.00  0.00    +0.210 HD
ENDBRANCH  24  31
BRANCH  23  33
ATOM     33  C   UNL     1       0.209  -2.950  -1.234  0.00  0.00    +0.190 C 
BRANCH  33  34
ATOM     34  O   UNL     1      -0.309  -2.609  -2.521  0.00  0.00    -0.392 OA
ATOM     35  H   UNL     1       0.470  -2.378  -3.064  0.00  0.00    +0.210 HD
ENDBRANCH  33  34
ENDBRANCH  23  33
ENDBRANCH  20  21
ENDBRANCH  15  20
ENDBRANCH  11  12
BRANCH  10  36
ATOM     36  O   UNL     1       6.014  10.122   1.030  0.00  0.00    -0.506 OA
ATOM     37  H   UNL     1       6.549  10.778   1.504  0.00  0.00    +0.292 HD
ENDBRANCH  10  36
BRANCH   7  38
ATOM     38  O   UNL     1       8.380   7.344   4.018  0.00  0.00    -0.507 OA
ATOM     39  H   UNL     1       8.489   6.419   4.264  0.00  0.00    +0.292 HD
ENDBRANCH   7  38
BRANCH   1  40
ATOM     40  O   UNL     1       3.143   6.852  -1.623  0.00  0.00    -0.453 OA
BRANCH  40  43
ATOM     41  C   UNL     1       1.334   6.812  -4.710  0.00  0.00    +0.179 C 
ATOM     42  O   UNL     1       2.201   7.149  -3.625  0.00  0.00    -0.331 OA
ATOM     43  C   UNL     1       2.356   6.168  -2.574  0.00  0.00    +0.340 C 
ATOM     44  C   UNL     1       0.966   5.878  -1.963  0.00  0.00    +0.214 C 
ATOM     45  C   UNL     1       0.023   5.361  -3.053  0.00  0.00    +0.180 C 
ATOM     46  C   UNL     1      -0.068   6.413  -4.174  0.00  0.00    +0.177 C 
BRANCH  46  47
ATOM     47  O   UNL     1      -0.953   5.974  -5.200  0.00  0.00    -0.386 OA
ATOM     48  H   UNL     1      -1.612   6.681  -5.339  0.00  0.00    +0.210 HD
ENDBRANCH  46  47
BRANCH  45  49
ATOM     49  O   UNL     1      -1.260   5.076  -2.468  0.00  0.00    -0.386 OA
ATOM     50  H   UNL     1      -1.943   5.536  -2.984  0.00  0.00    +0.210 HD
ENDBRANCH  45  49
BRANCH  44  51
ATOM     51  O   UNL     1       0.388   7.077  -1.389  0.00  0.00    -0.383 OA
ATOM     52  H   UNL     1       0.964   7.827  -1.632  0.00  0.00    +0.210 HD
ENDBRANCH  44  51
BRANCH  41  53
ATOM     53  C   UNL     1       2.056   5.872  -5.710  0.00  0.00    +0.197 C 
BRANCH  53  54
ATOM     54  O   UNL     1       3.420   6.257  -6.052  0.00  0.00    -0.346 OA
BRANCH  54  58
ATOM     55  C   UNL     1       2.088   9.843  -7.954  0.00  0.00    +0.041 C 
ATOM     56  C   UNL     1       2.983   8.821  -8.653  0.00  0.00    +0.149 C 
ATOM     57  O   UNL     1       2.913   7.562  -7.954  0.00  0.00    -0.343 OA
ATOM     58  C   UNL     1       3.576   7.541  -6.686  0.00  0.00    +0.282 C 
ATOM     59  C   UNL     1       5.088   7.871  -6.907  0.00  0.00    +0.201 C 
ATOM     60  C   UNL     1       5.194   9.291  -7.503  0.00  0.00    +0.179 C 
ATOM     61  C   UNL     1       4.417   9.366  -8.827  0.00  0.00    +0.174 C 
BRANCH  59  62
ATOM     62  O   UNL     1       5.687   6.936  -7.836  0.00  0.00    -0.384 OA
ATOM     63  H   UNL     1       5.417   6.051  -7.530  0.00  0.00    +0.210 HD
ENDBRANCH  59  62
BRANCH  60  64
ATOM     64  O   UNL     1       6.557   9.689  -7.708  0.00  0.00    -0.386 OA
ATOM     65  H   UNL     1       6.709   9.712  -8.674  0.00  0.00    +0.210 HD
ENDBRANCH  60  64
BRANCH  61  66
ATOM     66  O   UNL     1       5.134   8.642  -9.842  0.00  0.00    -0.387 OA
ATOM     67  H   UNL     1       5.475   7.823  -9.417  0.00  0.00    +0.210 HD
ENDBRANCH  61  66
ENDBRANCH  54  58
ENDBRANCH  53  54
ENDBRANCH  41  53
ENDBRANCH  40  43
ENDBRANCH   1  40
TORSDOF 22
