REMARK  Name = 
REMARK  21 active torsions:
REMARK  status: ('A' for Active; 'I' for Inactive)
REMARK    1  A    between atoms: C_1  and  C_2
REMARK    2  A    between atoms: C_3  and  O_55
REMARK    3  A    between atoms: C_5  and  O_54
REMARK    4  A    between atoms: C_7  and  O_53
REMARK    5  A    between atoms: C_8  and  O_11
REMARK    6  A    between atoms: O_11  and  C_12
REMARK    7  A    between atoms: C_13  and  O_52
REMARK    8  A    between atoms: C_15  and  O_51
REMARK    9  A    between atoms: C_17  and  C_43
REMARK   10  A    between atoms: C_19  and  O_21
REMARK   11  A    between atoms: O_21  and  C_22
REMARK   12  A    between atoms: C_23  and  C_35
REMARK   13  A    between atoms: C_27  and  O_34
REMARK   14  A    between atoms: C_29  and  O_33
REMARK   15  A    between atoms: C_37  and  O_42
REMARK   16  A    between atoms: C_38  and  O_41
REMARK   17  A    between atoms: C_43  and  O_44
REMARK   18  A    between atoms: O_44  and  C_45
REMARK   19  A    between atoms: C_45  and  C_47
REMARK   20  A    between atoms: C_47  and  C_48
REMARK   21  A    between atoms: C_48  and  O_50
REMARK                            x       y       z     vdW  Elec       q    Type
REMARK                         _______ _______ _______ _____ _____    ______ ____
ROOT
ATOM      1  C   UNL     1       2.551   2.582  -3.152  0.00  0.00    +0.221 C 
ATOM      2  C   UNL     1       1.400   2.030  -4.049  0.00  0.00    +0.340 C 
ATOM      3  O   UNL     1       1.834   1.907  -5.418  0.00  0.00    -0.330 OA
ATOM      4  C   UNL     1       2.176   3.194  -6.012  0.00  0.00    +0.191 C 
ATOM      5  C   UNL     1       3.290   3.886  -5.197  0.00  0.00    +0.178 C 
ATOM      6  C   UNL     1       2.905   3.973  -3.716  0.00  0.00    +0.180 C 
ENDROOT
BRANCH   5   7
ATOM      7  O   UNL     1       3.542   5.213  -5.671  0.00  0.00    -0.386 OA
ATOM      8  H   UNL     1       4.105   5.633  -4.989  0.00  0.00    +0.210 HD
ENDBRANCH   5   7
BRANCH   6   9
ATOM      9  O   UNL     1       3.934   4.673  -3.000  0.00  0.00    -0.386 OA
ATOM     10  H   UNL     1       3.556   4.937  -2.141  0.00  0.00    +0.210 HD
ENDBRANCH   6   9
BRANCH   4  11
ATOM     11  C   UNL     1       0.954   4.132  -6.220  0.00  0.00    +0.266 C 
BRANCH  11  12
ATOM     12  O   UNL     1      -0.063   3.520  -7.033  0.00  0.00    -0.462 OA
BRANCH  12  13
ATOM     13  C   UNL     1       0.035   3.780  -8.364  0.00  0.00    +0.318 C 
ATOM     14  O   UNL     1       0.988   4.321  -8.910  0.00  0.00    -0.250 OA
BRANCH  13  15
ATOM     15  C   UNL     1      -1.161   3.280  -9.107  0.00  0.00    +0.240 C 
BRANCH  15  16
ATOM     16  C   UNL     1      -2.410   4.053  -8.824  0.00  0.00    +0.316 C 
ATOM     17  O   UNL     1      -2.499   5.000  -8.048  0.00  0.00    -0.250 OA
BRANCH  16  18
ATOM     18  O   UNL     1      -3.472   3.611  -9.534  0.00  0.00    -0.480 OA
ATOM     19  H   UNL     1      -3.279   2.864 -10.131  0.00  0.00    +0.295 HD
ENDBRANCH  16  18
ENDBRANCH  15  16
ENDBRANCH  13  15
ENDBRANCH  12  13
ENDBRANCH  11  12
ENDBRANCH   4  11
BRANCH   2  20
ATOM     20  O   UNL     1       0.852   0.810  -3.497  0.00  0.00    -0.453 OA
BRANCH  20  21
ATOM     21  C   UNL     1      -0.259   0.955  -2.651  0.00  0.00    +0.214 A 
ATOM     22  C   UNL     1      -0.657   2.315  -2.128  0.00  0.00    +0.238 A 
ATOM     23  O   UNL     1       0.130   3.248  -2.016  0.00  0.00    -0.283 OA
ATOM     24  C   UNL     1      -2.037   2.502  -1.709  0.00  0.00    +0.109 A 
ATOM     25  C   UNL     1      -2.704   1.367  -1.287  0.00  0.00    +0.147 A 
ATOM     26  C   UNL     1      -3.976   1.483  -0.726  0.00  0.00    +0.092 A 
ATOM     27  C   UNL     1      -4.561   2.746  -0.631  0.00  0.00    +0.124 A 
ATOM     28  C   UNL     1      -3.915   3.883  -1.098  0.00  0.00    +0.091 A 
ATOM     29  O   UNL     1      -2.140   0.123  -1.377  0.00  0.00    -0.451 OA
ATOM     30  C   UNL     1      -2.647   3.761  -1.646  0.00  0.00    +0.135 A 
ATOM     31  C   UNL     1      -1.026  -0.081  -2.214  0.00  0.00    +0.181 A 
BRANCH  31  32
ATOM     32  C   UNL     1      -0.850  -1.551  -2.518  0.00  0.00    +0.025 A 
ATOM     33  C   UNL     1       0.124  -2.070  -3.387  0.00  0.00    +0.015 A 
ATOM     34  C   UNL     1       0.174  -3.438  -3.721  0.00  0.00    +0.050 A 
ATOM     35  C   UNL     1      -0.746  -4.317  -3.172  0.00  0.00    +0.158 A 
ATOM     36  C   UNL     1      -1.673  -3.854  -2.256  0.00  0.00    +0.159 A 
ATOM     37  C   UNL     1      -1.731  -2.496  -1.930  0.00  0.00    +0.060 A 
BRANCH  35  38
ATOM     38  O   UNL     1      -0.745  -5.632  -3.532  0.00  0.00    -0.503 OA
ATOM     39  H   UNL     1       0.125  -5.994  -3.299  0.00  0.00    +0.292 HD
ENDBRANCH  35  38
BRANCH  36  40
ATOM     40  O   UNL     1      -2.530  -4.734  -1.659  0.00  0.00    -0.503 OA
ATOM     41  H   UNL     1      -2.401  -4.647  -0.701  0.00  0.00    +0.292 HD
ENDBRANCH  36  40
ENDBRANCH  31  32
BRANCH  30  42
ATOM     42  O   UNL     1      -2.018   4.872  -2.138  0.00  0.00    -0.506 OA
ATOM     43  H   UNL     1      -2.572   5.652  -2.002  0.00  0.00    +0.292 HD
ENDBRANCH  30  42
BRANCH  27  44
ATOM     44  O   UNL     1      -5.796   2.932  -0.085  0.00  0.00    -0.507 OA
ATOM     45  H   UNL     1      -6.154   2.078   0.210  0.00  0.00    +0.292 HD
ENDBRANCH  27  44
ENDBRANCH  20  21
ENDBRANCH   2  20
BRANCH   1  46
ATOM     46  O   UNL     1       3.665   1.661  -2.997  0.00  0.00    -0.337 OA
BRANCH  46  50
ATOM     47  C   UNL     1       7.549   2.798  -1.717  0.00  0.00    +0.041 C 
ATOM     48  C   UNL     1       6.800   1.634  -1.055  0.00  0.00    +0.149 C 
ATOM     49  O   UNL     1       5.721   1.159  -1.902  0.00  0.00    -0.343 OA
ATOM     50  C   UNL     1       4.630   2.089  -2.010  0.00  0.00    +0.282 C 
ATOM     51  C   UNL     1       4.018   2.277  -0.597  0.00  0.00    +0.201 C 
ATOM     52  C   UNL     1       5.084   2.906   0.304  0.00  0.00    +0.179 C 
ATOM     53  C   UNL     1       6.322   2.001   0.370  0.00  0.00    +0.174 C 
BRANCH  51  54
ATOM     54  O   UNL     1       3.589   0.997  -0.081  0.00  0.00    -0.384 OA
ATOM     55  H   UNL     1       3.269   0.486  -0.852  0.00  0.00    +0.210 HD
ENDBRANCH  51  54
BRANCH  52  56
ATOM     56  O   UNL     1       4.530   3.199   1.589  0.00  0.00    -0.386 OA
ATOM     57  H   UNL     1       5.262   3.380   2.202  0.00  0.00    +0.210 HD
ENDBRANCH  52  56
BRANCH  53  58
ATOM     58  O   UNL     1       6.035   0.804   1.103  0.00  0.00    -0.387 OA
ATOM     59  H   UNL     1       5.155   0.492   0.795  0.00  0.00    +0.210 HD
ENDBRANCH  53  58
ENDBRANCH  46  50
ENDBRANCH   1  46
TORSDOF 20
