REMARK  Name = 
REMARK  17 active torsions:
REMARK  status: ('A' for Active; 'I' for Inactive)
REMARK    1  A    between atoms: C_1  and  C_2
REMARK    2  A    between atoms: C_3  and  O_49
REMARK    3  A    between atoms: C_5  and  O_48
REMARK    4  A    between atoms: C_6  and  O_33
REMARK    5  A    between atoms: C_8  and  O_11
REMARK    6  A    between atoms: O_11  and  C_12
REMARK    7  A    between atoms: C_13  and  C_25
REMARK    8  A    between atoms: C_17  and  O_24
REMARK    9  A    between atoms: C_19  and  O_23
REMARK   10  A    between atoms: C_27  and  O_32
REMARK   11  A    between atoms: C_28  and  O_31
REMARK   12  A    between atoms: O_33  and  C_34
REMARK   13  A    between atoms: C_36  and  O_47
REMARK   14  A    between atoms: C_37  and  O_46
REMARK   15  A    between atoms: C_39  and  O_45
REMARK   16  A    between atoms: C_41  and  C_43
REMARK   17  A    between atoms: C_43  and  O_44
REMARK                            x       y       z     vdW  Elec       q    Type
REMARK                         _______ _______ _______ _____ _____    ______ ____
ROOT
ATOM      1  C   UNL     1       0.687  -0.066   0.539  0.00  0.00    +0.041 C 
ATOM      2  C   UNL     1       2.191   0.005   0.287  0.00  0.00    +0.150 C 
ATOM      3  O   UNL     1       2.525   1.059  -0.613  0.00  0.00    -0.334 OA
ATOM      4  C   UNL     1       2.246   0.932  -2.019  0.00  0.00    +0.340 C 
ATOM      5  C   UNL     1       2.885  -0.427  -2.521  0.00  0.00    +0.221 C 
ATOM      6  C   UNL     1       2.403  -1.613  -1.618  0.00  0.00    +0.180 C 
ATOM      7  C   UNL     1       2.749  -1.353  -0.137  0.00  0.00    +0.174 C 
ENDROOT
BRANCH   7   8
ATOM      8  O   UNL     1       4.171  -1.398   0.077  0.00  0.00    -0.387 OA
ATOM      9  H   UNL     1       4.591  -0.898  -0.656  0.00  0.00    +0.210 HD
ENDBRANCH   7   8
BRANCH   6  10
ATOM     10  O   UNL     1       3.048  -2.849  -2.010  0.00  0.00    -0.386 OA
ATOM     11  H   UNL     1       3.959  -2.787  -1.640  0.00  0.00    +0.210 HD
ENDBRANCH   6  10
BRANCH   5  12
ATOM     12  O   UNL     1       4.309  -0.542  -2.349  0.00  0.00    -0.337 OA
BRANCH  12  13
ATOM     13  C   UNL     1       5.173  -0.073  -3.365  0.00  0.00    +0.282 C 
ATOM     14  O   UNL     1       4.863  -0.515  -4.684  0.00  0.00    -0.341 OA
ATOM     15  C   UNL     1       4.773  -1.934  -4.832  0.00  0.00    +0.178 C 
ATOM     16  C   UNL     1       6.013  -2.704  -4.335  0.00  0.00    +0.177 C 
ATOM     17  C   UNL     1       6.729  -2.088  -3.122  0.00  0.00    +0.179 C 
ATOM     18  C   UNL     1       6.604  -0.560  -3.030  0.00  0.00    +0.201 C 
BRANCH  16  19
ATOM     19  O   UNL     1       5.686  -4.084  -4.069  0.00  0.00    -0.386 OA
ATOM     20  H   UNL     1       4.808  -4.105  -3.650  0.00  0.00    +0.210 HD
ENDBRANCH  16  19
BRANCH  17  21
ATOM     21  O   UNL     1       6.293  -2.689  -1.885  0.00  0.00    -0.386 OA
ATOM     22  H   UNL     1       6.728  -3.567  -1.860  0.00  0.00    +0.210 HD
ENDBRANCH  17  21
BRANCH  18  23
ATOM     23  O   UNL     1       7.043  -0.141  -1.725  0.00  0.00    -0.384 OA
ATOM     24  H   UNL     1       6.896  -0.912  -1.139  0.00  0.00    +0.210 HD
ENDBRANCH  18  23
BRANCH  15  25
ATOM     25  C   UNL     1       4.500  -2.218  -6.323  0.00  0.00    +0.190 C 
BRANCH  25  26
ATOM     26  O   UNL     1       5.648  -1.962  -7.133  0.00  0.00    -0.392 OA
ATOM     27  H   UNL     1       5.802  -1.000  -7.093  0.00  0.00    +0.210 HD
ENDBRANCH  25  26
ENDBRANCH  15  25
ENDBRANCH  12  13
ENDBRANCH   5  12
BRANCH   4  28
ATOM     28  O   UNL     1       2.789   2.151  -2.617  0.00  0.00    -0.453 OA
BRANCH  28  29
ATOM     29  C   UNL     1       2.009   3.104  -3.300  0.00  0.00    +0.214 A 
ATOM     30  C   UNL     1       1.900   2.909  -4.799  0.00  0.00    +0.238 A 
ATOM     31  O   UNL     1       2.434   1.939  -5.321  0.00  0.00    -0.283 OA
ATOM     32  C   UNL     1       1.186   3.935  -5.610  0.00  0.00    +0.109 A 
ATOM     33  C   UNL     1       0.901   5.140  -4.992  0.00  0.00    +0.147 A 
ATOM     34  C   UNL     1       0.335   6.219  -5.706  0.00  0.00    +0.092 A 
ATOM     35  C   UNL     1       0.000   6.053  -7.044  0.00  0.00    +0.124 A 
ATOM     36  C   UNL     1       0.225   4.838  -7.675  0.00  0.00    +0.091 A 
ATOM     37  O   UNL     1       1.155   5.358  -3.670  0.00  0.00    -0.451 OA
ATOM     38  C   UNL     1       0.823   3.790  -6.959  0.00  0.00    +0.135 A 
ATOM     39  C   UNL     1       1.643   4.342  -2.838  0.00  0.00    +0.181 A 
BRANCH  39  40
ATOM     40  C   UNL     1       1.662   4.894  -1.420  0.00  0.00    +0.025 A 
ATOM     41  C   UNL     1       1.560   4.077  -0.302  0.00  0.00    +0.015 A 
ATOM     42  C   UNL     1       1.386   4.580   0.993  0.00  0.00    +0.050 A 
ATOM     43  C   UNL     1       1.287   5.944   1.187  0.00  0.00    +0.158 A 
ATOM     44  C   UNL     1       1.405   6.809   0.115  0.00  0.00    +0.159 A 
ATOM     45  C   UNL     1       1.594   6.295  -1.189  0.00  0.00    +0.060 A 
BRANCH  43  46
ATOM     46  O   UNL     1       1.054   6.427   2.445  0.00  0.00    -0.503 OA
ATOM     47  H   UNL     1       0.974   7.395   2.332  0.00  0.00    +0.292 HD
ENDBRANCH  43  46
BRANCH  44  48
ATOM     48  O   UNL     1       1.312   8.144   0.374  0.00  0.00    -0.503 OA
ATOM     49  H   UNL     1       1.680   8.640  -0.379  0.00  0.00    +0.292 HD
ENDBRANCH  44  48
ENDBRANCH  39  40
BRANCH  35  50
ATOM     50  O   UNL     1      -0.549   7.059  -7.787  0.00  0.00    -0.507 OA
ATOM     51  H   UNL     1      -0.604   7.870  -7.259  0.00  0.00    +0.292 HD
ENDBRANCH  35  50
BRANCH  38  52
ATOM     52  O   UNL     1       1.027   2.605  -7.622  0.00  0.00    -0.506 OA
ATOM     53  H   UNL     1       0.842   2.715  -8.556  0.00  0.00    +0.292 HD
ENDBRANCH  38  52
ENDBRANCH  28  29
ENDBRANCH   4  28
TORSDOF 16
