REMARK  Name = 
REMARK  25 active torsions:
REMARK  status: ('A' for Active; 'I' for Inactive)
REMARK    1  A    between atoms: C_1  and  O_2
REMARK    2  A    between atoms: O_2  and  C_3
REMARK    3  A    between atoms: C_4  and  O_64
REMARK    4  A    between atoms: C_7  and  C_9
REMARK    5  A    between atoms: C_10  and  O_36
REMARK    6  A    between atoms: C_14  and  O_35
REMARK    7  A    between atoms: C_16  and  O_20
REMARK    8  A    between atoms: O_20  and  C_21
REMARK    9  A    between atoms: C_23  and  O_34
REMARK   10  A    between atoms: C_24  and  O_33
REMARK   11  A    between atoms: C_26  and  O_32
REMARK   12  A    between atoms: C_28  and  C_30
REMARK   13  A    between atoms: C_30  and  O_31
REMARK   14  A    between atoms: O_36  and  C_37
REMARK   15  A    between atoms: C_39  and  O_63
REMARK   16  A    between atoms: C_40  and  O_62
REMARK   17  A    between atoms: C_41  and  O_61
REMARK   18  A    between atoms: C_43  and  C_45
REMARK   19  A    between atoms: C_45  and  O_46
REMARK   20  A    between atoms: O_46  and  C_47
REMARK   21  A    between atoms: C_49  and  O_60
REMARK   22  A    between atoms: C_50  and  O_59
REMARK   23  A    between atoms: C_52  and  O_58
REMARK   24  A    between atoms: C_54  and  C_56
REMARK   25  A    between atoms: C_56  and  O_57
REMARK                            x       y       z     vdW  Elec       q    Type
REMARK                         _______ _______ _______ _____ _____    ______ ____
ROOT
ATOM      1  C   UNL     1       2.618  -4.156   1.301  0.00  0.00    +0.181 A 
ATOM      2  O   UNL     1       2.802  -5.033   0.246  0.00  0.00    -0.451 OA
ATOM      3  C   UNL     1       2.476  -4.603  -1.016  0.00  0.00    +0.147 A 
ATOM      4  C   UNL     1       1.897  -3.352  -1.241  0.00  0.00    +0.109 A 
ATOM      5  C   UNL     1       1.519  -3.035  -2.546  0.00  0.00    +0.135 A 
ATOM      6  C   UNL     1       1.752  -3.930  -3.609  0.00  0.00    +0.092 A 
ATOM      7  C   UNL     1       2.408  -5.145  -3.390  0.00  0.00    +0.131 A 
ATOM      8  C   UNL     1       1.730  -2.412  -0.100  0.00  0.00    +0.238 A 
ATOM      9  O   UNL     1       1.265  -1.282  -0.286  0.00  0.00    -0.283 OA
ATOM     10  C   UNL     1       2.752  -5.480  -2.076  0.00  0.00    +0.093 A 
ATOM     11  C   UNL     1       2.132  -2.893   1.252  0.00  0.00    +0.214 A 
ENDROOT
BRANCH   1  14
ATOM     12  C   UNL     1       4.208  -4.754   4.643  0.00  0.00    +0.162 A 
ATOM     13  C   UNL     1       4.056  -4.356   3.315  0.00  0.00    +0.061 A 
ATOM     14  C   UNL     1       2.930  -4.762   2.596  0.00  0.00    +0.025 A 
ATOM     15  C   UNL     1       2.015  -5.660   3.171  0.00  0.00    +0.015 A 
ATOM     16  C   UNL     1       2.144  -6.023   4.506  0.00  0.00    +0.050 A 
ATOM     17  C   UNL     1       3.243  -5.582   5.230  0.00  0.00    +0.158 A 
BRANCH  12  19
ATOM     18  C   UNL     1       5.103  -3.696   6.525  0.00  0.00    +0.277 C 
ATOM     19  O   UNL     1       5.342  -4.308   5.261  0.00  0.00    -0.491 OA
ENDBRANCH  12  19
BRANCH  17  20
ATOM     20  O   UNL     1       3.349  -6.042   6.508  0.00  0.00    -0.503 OA
ATOM     21  H   UNL     1       4.270  -6.337   6.598  0.00  0.00    +0.292 HD
ENDBRANCH  17  20
ENDBRANCH   1  14
BRANCH   5  22
ATOM     22  O   UNL     1       0.910  -1.854  -2.881  0.00  0.00    -0.506 OA
ATOM     23  H   UNL     1       0.831  -1.305  -2.067  0.00  0.00    +0.292 HD
ENDBRANCH   5  22
BRANCH   7  24
ATOM     24  O   UNL     1       2.759  -6.065  -4.355  0.00  0.00    -0.461 OA
BRANCH  24  25
ATOM     25  C   UNL     1       2.547  -5.683  -5.731  0.00  0.00    +0.339 C 
ATOM     26  O   UNL     1       1.196  -5.929  -6.133  0.00  0.00    -0.331 OA
ATOM     27  C   UNL     1       0.831  -7.320  -6.252  0.00  0.00    +0.179 C 
ATOM     28  C   UNL     1       1.773  -8.078  -7.213  0.00  0.00    +0.177 C 
ATOM     29  C   UNL     1       3.228  -7.896  -6.776  0.00  0.00    +0.180 C 
ATOM     30  C   UNL     1       3.541  -6.401  -6.678  0.00  0.00    +0.214 C 
BRANCH  30  31
ATOM     31  O   UNL     1       4.908  -6.197  -6.305  0.00  0.00    -0.383 OA
ATOM     32  H   UNL     1       5.206  -6.998  -5.834  0.00  0.00    +0.210 HD
ENDBRANCH  30  31
BRANCH  29  33
ATOM     33  O   UNL     1       3.508  -8.568  -5.543  0.00  0.00    -0.386 OA
ATOM     34  H   UNL     1       3.203  -8.009  -4.800  0.00  0.00    +0.210 HD
ENDBRANCH  29  33
BRANCH  28  35
ATOM     35  O   UNL     1       1.598  -7.574  -8.544  0.00  0.00    -0.386 OA
ATOM     36  H   UNL     1       2.322  -7.896  -9.109  0.00  0.00    +0.210 HD
ENDBRANCH  28  35
BRANCH  27  37
ATOM     37  C   UNL     1      -0.617  -7.386  -6.776  0.00  0.00    +0.190 C 
BRANCH  37  38
ATOM     38  O   UNL     1      -1.556  -6.871  -5.830  0.00  0.00    -0.392 OA
ATOM     39  H   UNL     1      -1.406  -7.313  -4.980  0.00  0.00    +0.210 HD
ENDBRANCH  37  38
ENDBRANCH  27  37
ENDBRANCH  24  25
ENDBRANCH   7  24
BRANCH  11  40
ATOM     40  O   UNL     1       2.090  -2.118   2.412  0.00  0.00    -0.453 OA
BRANCH  40  41
ATOM     41  C   UNL     1       1.169  -1.034   2.648  0.00  0.00    +0.340 C 
ATOM     42  O   UNL     1       0.580  -1.203   3.967  0.00  0.00    -0.331 OA
ATOM     43  C   UNL     1      -0.332  -0.157   4.355  0.00  0.00    +0.179 C 
ATOM     44  C   UNL     1       0.445   1.163   4.460  0.00  0.00    +0.177 C 
ATOM     45  C   UNL     1       1.124   1.463   3.119  0.00  0.00    +0.180 C 
ATOM     46  C   UNL     1       1.983   0.282   2.639  0.00  0.00    +0.214 C 
BRANCH  46  47
ATOM     47  O   UNL     1       2.536   0.588   1.353  0.00  0.00    -0.383 OA
ATOM     48  H   UNL     1       1.901   0.300   0.665  0.00  0.00    +0.210 HD
ENDBRANCH  46  47
BRANCH  45  49
ATOM     49  O   UNL     1       1.890   2.671   3.260  0.00  0.00    -0.386 OA
ATOM     50  H   UNL     1       2.773   2.437   3.599  0.00  0.00    +0.210 HD
ENDBRANCH  45  49
BRANCH  44  51
ATOM     51  O   UNL     1      -0.440   2.224   4.838  0.00  0.00    -0.386 OA
ATOM     52  H   UNL     1      -0.424   2.902   4.137  0.00  0.00    +0.210 HD
ENDBRANCH  44  51
BRANCH  43  53
ATOM     53  C   UNL     1      -1.032  -0.444   5.715  0.00  0.00    +0.197 C 
BRANCH  53  54
ATOM     54  O   UNL     1      -2.046  -1.465   5.656  0.00  0.00    -0.346 OA
BRANCH  54  55
ATOM     55  C   UNL     1      -1.543  -2.772   5.963  0.00  0.00    +0.282 C 
ATOM     56  O   UNL     1      -0.893  -3.342   4.841  0.00  0.00    -0.341 OA
ATOM     57  C   UNL     1      -1.760  -3.477   3.705  0.00  0.00    +0.178 C 
ATOM     58  C   UNL     1      -2.921  -4.437   4.004  0.00  0.00    +0.177 C 
ATOM     59  C   UNL     1      -3.676  -3.975   5.256  0.00  0.00    +0.179 C 
ATOM     60  C   UNL     1      -2.697  -3.695   6.412  0.00  0.00    +0.201 C 
BRANCH  60  61
ATOM     61  O   UNL     1      -3.391  -3.157   7.543  0.00  0.00    -0.384 OA
ATOM     62  H   UNL     1      -3.748  -2.296   7.253  0.00  0.00    +0.210 HD
ENDBRANCH  60  61
BRANCH  59  63
ATOM     63  O   UNL     1      -4.486  -2.830   4.950  0.00  0.00    -0.386 OA
ATOM     64  H   UNL     1      -3.893  -2.079   4.754  0.00  0.00    +0.210 HD
ENDBRANCH  59  63
BRANCH  58  65
ATOM     65  O   UNL     1      -2.412  -5.764   4.201  0.00  0.00    -0.386 OA
ATOM     66  H   UNL     1      -3.172  -6.361   4.294  0.00  0.00    +0.210 HD
ENDBRANCH  58  65
BRANCH  57  67
ATOM     67  C   UNL     1      -0.915  -3.989   2.555  0.00  0.00    +0.190 C 
BRANCH  67  68
ATOM     68  O   UNL     1      -1.589  -3.945   1.307  0.00  0.00    -0.392 OA
ATOM     69  H   UNL     1      -1.857  -4.860   1.112  0.00  0.00    +0.210 HD
ENDBRANCH  67  68
ENDBRANCH  57  67
ENDBRANCH  54  55
ENDBRANCH  53  54
ENDBRANCH  43  53
ENDBRANCH  40  41
ENDBRANCH  11  40
TORSDOF 24
