REMARK  Name = 
REMARK  23 active torsions:
REMARK  status: ('A' for Active; 'I' for Inactive)
REMARK    1  A    between atoms: C_1  and  C_2
REMARK    2  A    between atoms: C_3  and  O_62
REMARK    3  A    between atoms: C_5  and  O_61
REMARK    4  A    between atoms: C_7  and  O_60
REMARK    5  A    between atoms: C_8  and  O_11
REMARK    6  A    between atoms: O_11  and  C_12
REMARK    7  A    between atoms: C_12  and  C_13
REMARK    8  A    between atoms: C_14  and  O_59
REMARK    9  A    between atoms: C_16  and  O_58
REMARK   10  A    between atoms: C_17  and  O_43
REMARK   11  A    between atoms: C_18  and  O_21
REMARK   12  A    between atoms: O_21  and  C_22
REMARK   13  A    between atoms: C_23  and  C_35
REMARK   14  A    between atoms: C_27  and  O_34
REMARK   15  A    between atoms: C_29  and  O_33
REMARK   16  A    between atoms: C_37  and  O_42
REMARK   17  A    between atoms: C_38  and  O_41
REMARK   18  A    between atoms: O_43  and  C_44
REMARK   19  A    between atoms: C_46  and  O_57
REMARK   20  A    between atoms: C_48  and  O_56
REMARK   21  A    between atoms: C_49  and  O_55
REMARK   22  A    between atoms: C_51  and  C_53
REMARK   23  A    between atoms: C_53  and  O_54
REMARK                            x       y       z     vdW  Elec       q    Type
REMARK                         _______ _______ _______ _____ _____    ______ ____
ROOT
ATOM      1  C   UNL     1       3.043   3.785  -4.361  0.00  0.00    +0.179 C 
ATOM      2  O   UNL     1       3.587   4.706  -3.392  0.00  0.00    -0.331 OA
ATOM      3  C   UNL     1       2.721   5.677  -2.784  0.00  0.00    +0.340 C 
ATOM      4  C   UNL     1       1.716   6.376  -3.802  0.00  0.00    +0.221 C 
ATOM      5  C   UNL     1       1.026   5.248  -4.587  0.00  0.00    +0.180 C 
ATOM      6  C   UNL     1       2.092   4.467  -5.352  0.00  0.00    +0.177 C 
ENDROOT
BRANCH   5   7
ATOM      7  O   UNL     1       0.025   5.756  -5.474  0.00  0.00    -0.386 OA
ATOM      8  H   UNL     1       0.138   5.274  -6.320  0.00  0.00    +0.210 HD
ENDBRANCH   5   7
BRANCH   6   9
ATOM      9  O   UNL     1       1.479   3.574  -6.279  0.00  0.00    -0.386 OA
ATOM     10  H   UNL     1       2.188   3.162  -6.806  0.00  0.00    +0.210 HD
ENDBRANCH   6   9
BRANCH   4  11
ATOM     11  O   UNL     1       2.355   7.368  -4.677  0.00  0.00    -0.337 OA
BRANCH  11  12
ATOM     12  C   UNL     1       1.474   8.105  -5.563  0.00  0.00    +0.282 C 
ATOM     13  O   UNL     1       2.205   9.046  -6.380  0.00  0.00    -0.341 OA
ATOM     14  C   UNL     1       2.780  10.145  -5.665  0.00  0.00    +0.178 C 
ATOM     15  C   UNL     1       1.724  10.936  -4.871  0.00  0.00    +0.177 C 
ATOM     16  C   UNL     1       0.882   9.986  -4.014  0.00  0.00    +0.179 C 
ATOM     17  C   UNL     1       0.309   8.844  -4.863  0.00  0.00    +0.201 C 
BRANCH  17  18
ATOM     18  O   UNL     1      -0.646   9.387  -5.800  0.00  0.00    -0.384 OA
ATOM     19  H   UNL     1      -0.133   9.908  -6.455  0.00  0.00    +0.210 HD
ENDBRANCH  17  18
BRANCH  16  20
ATOM     20  O   UNL     1      -0.186  10.739  -3.409  0.00  0.00    -0.386 OA
ATOM     21  H   UNL     1      -1.009  10.459  -3.858  0.00  0.00    +0.210 HD
ENDBRANCH  16  20
BRANCH  15  22
ATOM     22  O   UNL     1       0.846  11.649  -5.765  0.00  0.00    -0.386 OA
ATOM     23  H   UNL     1       0.114  11.969  -5.198  0.00  0.00    +0.210 HD
ENDBRANCH  15  22
BRANCH  14  24
ATOM     24  C   UNL     1       3.503  11.040  -6.685  0.00  0.00    +0.190 C 
BRANCH  24  25
ATOM     25  O   UNL     1       4.369  11.966  -6.030  0.00  0.00    -0.392 OA
ATOM     26  H   UNL     1       3.796  12.638  -5.611  0.00  0.00    +0.210 HD
ENDBRANCH  24  25
ENDBRANCH  14  24
ENDBRANCH  11  12
ENDBRANCH   4  11
BRANCH   3  27
ATOM     27  O   UNL     1       3.463   6.728  -2.133  0.00  0.00    -0.453 OA
BRANCH  27  28
ATOM     28  C   UNL     1       4.176   6.569  -0.943  0.00  0.00    +0.214 A 
ATOM     29  C   UNL     1       4.243   5.289  -0.158  0.00  0.00    +0.238 A 
ATOM     30  O   UNL     1       3.465   4.375  -0.374  0.00  0.00    -0.283 OA
ATOM     31  C   UNL     1       5.297   5.196   0.891  0.00  0.00    +0.109 A 
ATOM     32  C   UNL     1       5.917   6.377   1.300  0.00  0.00    +0.147 A 
ATOM     33  C   UNL     1       6.903   6.377   2.302  0.00  0.00    +0.092 A 
ATOM     34  C   UNL     1       7.277   5.175   2.888  0.00  0.00    +0.124 A 
ATOM     35  C   UNL     1       6.684   3.983   2.490  0.00  0.00    +0.091 A 
ATOM     36  O   UNL     1       5.633   7.593   0.732  0.00  0.00    -0.451 OA
ATOM     37  C   UNL     1       5.692   3.993   1.498  0.00  0.00    +0.135 A 
ATOM     38  C   UNL     1       4.902   7.604  -0.447  0.00  0.00    +0.181 A 
BRANCH  38  39
ATOM     39  C   UNL     1       5.172   8.778  -1.272  0.00  0.00    +0.025 A 
ATOM     40  C   UNL     1       6.029   8.562  -2.365  0.00  0.00    +0.015 A 
ATOM     41  C   UNL     1       6.394   9.605  -3.204  0.00  0.00    +0.050 A 
ATOM     42  C   UNL     1       5.819  10.850  -3.009  0.00  0.00    +0.158 A 
ATOM     43  C   UNL     1       4.935  11.076  -1.952  0.00  0.00    +0.159 A 
ATOM     44  C   UNL     1       4.648  10.057  -1.038  0.00  0.00    +0.060 A 
BRANCH  42  45
ATOM     45  O   UNL     1       6.122  11.852  -3.883  0.00  0.00    -0.503 OA
ATOM     46  H   UNL     1       5.817  11.561  -4.768  0.00  0.00    +0.292 HD
ENDBRANCH  42  45
BRANCH  43  47
ATOM     47  O   UNL     1       4.308  12.290  -1.886  0.00  0.00    -0.503 OA
ATOM     48  H   UNL     1       3.941  12.418  -0.999  0.00  0.00    +0.292 HD
ENDBRANCH  43  47
ENDBRANCH  38  39
BRANCH  37  49
ATOM     49  O   UNL     1       5.154   2.795   1.115  0.00  0.00    -0.506 OA
ATOM     50  H   UNL     1       5.482   2.090   1.681  0.00  0.00    +0.292 HD
ENDBRANCH  37  49
BRANCH  34  51
ATOM     51  O   UNL     1       8.237   5.110   3.855  0.00  0.00    -0.507 OA
ATOM     52  H   UNL     1       8.570   6.003   4.047  0.00  0.00    +0.292 HD
ENDBRANCH  34  51
ENDBRANCH  27  28
ENDBRANCH   3  27
BRANCH   1  53
ATOM     53  C   UNL     1       2.679   2.328  -3.860  0.00  0.00    +0.197 C 
BRANCH  53  54
ATOM     54  O   UNL     1       1.358   2.028  -3.353  0.00  0.00    -0.346 OA
BRANCH  54  58
ATOM     55  C   UNL     1       1.957  -2.376  -4.037  0.00  0.00    +0.041 C 
ATOM     56  C   UNL     1       0.749  -1.509  -4.392  0.00  0.00    +0.149 C 
ATOM     57  O   UNL     1       1.088  -0.104  -4.405  0.00  0.00    -0.343 OA
ATOM     58  C   UNL     1       1.182   0.575  -3.141  0.00  0.00    +0.282 C 
ATOM     59  C   UNL     1      -0.111   0.320  -2.311  0.00  0.00    +0.201 C 
ATOM     60  C   UNL     1      -0.327  -1.200  -2.135  0.00  0.00    +0.179 C 
ATOM     61  C   UNL     1      -0.454  -1.876  -3.505  0.00  0.00    +0.174 C 
BRANCH  59  62
ATOM     62  O   UNL     1      -1.246   0.881  -3.012  0.00  0.00    -0.384 OA
ATOM     63  H   UNL     1      -0.943   1.762  -3.313  0.00  0.00    +0.210 HD
ENDBRANCH  59  62
BRANCH  60  64
ATOM     64  O   UNL     1      -1.474  -1.489  -1.323  0.00  0.00    -0.386 OA
ATOM     65  H   UNL     1      -2.097  -2.010  -1.866  0.00  0.00    +0.210 HD
ENDBRANCH  60  64
BRANCH  61  66
ATOM     66  O   UNL     1      -1.687  -1.499  -4.133  0.00  0.00    -0.387 OA
ATOM     67  H   UNL     1      -1.793  -0.531  -3.989  0.00  0.00    +0.210 HD
ENDBRANCH  61  66
ENDBRANCH  54  58
ENDBRANCH  53  54
ENDBRANCH   1  53
TORSDOF 22
