REMARK  Name = 
REMARK  30 active torsions:
REMARK  status: ('A' for Active; 'I' for Inactive)
REMARK    1  A    between atoms: C_1  and  O_2
REMARK    2  A    between atoms: O_2  and  C_3
REMARK    3  A    between atoms: C_4  and  O_76
REMARK    4  A    between atoms: C_7  and  C_9
REMARK    5  A    between atoms: C_10  and  C_11
REMARK    6  A    between atoms: C_11  and  O_13
REMARK    7  A    between atoms: O_13  and  C_14
REMARK    8  A    between atoms: C_14  and  C_15
REMARK    9  A    between atoms: C_16  and  O_75
REMARK   10  A    between atoms: C_18  and  O_74
REMARK   11  A    between atoms: C_19  and  O_73
REMARK   12  A    between atoms: C_21  and  O_24
REMARK   13  A    between atoms: O_24  and  C_25
REMARK   14  A    between atoms: C_26  and  O_37
REMARK   15  A    between atoms: C_29  and  C_35
REMARK   16  A    between atoms: C_30  and  O_34
REMARK   17  A    between atoms: C_32  and  O_33
REMARK   18  A    between atoms: C_35  and  O_36
REMARK   19  A    between atoms: O_37  and  C_38
REMARK   20  A    between atoms: C_39  and  O_72
REMARK   21  A    between atoms: C_41  and  O_71
REMARK   22  A    between atoms: C_43  and  C_69
REMARK   23  A    between atoms: C_45  and  O_47
REMARK   24  A    between atoms: O_47  and  C_48
REMARK   25  A    between atoms: C_49  and  C_61
REMARK   26  A    between atoms: C_53  and  O_60
REMARK   27  A    between atoms: C_55  and  O_59
REMARK   28  A    between atoms: C_63  and  O_68
REMARK   29  A    between atoms: C_64  and  O_67
REMARK   30  A    between atoms: C_69  and  O_70
REMARK                            x       y       z     vdW  Elec       q    Type
REMARK                         _______ _______ _______ _____ _____    ______ ____
ROOT
ATOM      1  C   UNL     1       8.786  -3.934 -10.146  0.00  0.00    +0.208 C 
ATOM      2  C   UNL     1       9.258  -3.168 -11.379  0.00  0.00    +0.179 C 
ATOM      3  C   UNL     1       9.388  -4.129 -12.560  0.00  0.00    +0.177 C 
ATOM      4  C   UNL     1      10.324  -5.306 -12.244  0.00  0.00    +0.178 C 
ATOM      5  O   UNL     1       9.988  -5.933 -10.998  0.00  0.00    -0.341 OA
ATOM      6  C   UNL     1       9.805  -5.066  -9.860  0.00  0.00    +0.283 C 
ENDROOT
BRANCH   3   7
ATOM      7  O   UNL     1       9.784  -3.418 -13.728  0.00  0.00    -0.386 OA
ATOM      8  H   UNL     1       9.788  -4.024 -14.484  0.00  0.00    +0.210 HD
ENDBRANCH   3   7
BRANCH   2   9
ATOM      9  O   UNL     1      10.487  -2.499 -11.118  0.00  0.00    -0.386 OA
ATOM     10  H   UNL     1      11.045  -3.076 -10.555  0.00  0.00    +0.210 HD
ENDBRANCH   2   9
BRANCH   6  11
ATOM     11  O   UNL     1      11.072  -4.554  -9.434  0.00  0.00    -0.337 OA
BRANCH  11  12
ATOM     12  C   UNL     1      11.126  -3.809  -8.184  0.00  0.00    +0.221 C 
ATOM     13  C   UNL     1      12.614  -3.430  -7.895  0.00  0.00    +0.340 C 
ATOM     14  O   UNL     1      13.370  -4.651  -7.827  0.00  0.00    -0.331 OA
ATOM     15  C   UNL     1      12.949  -5.611  -6.826  0.00  0.00    +0.179 C 
ATOM     16  C   UNL     1      11.433  -5.899  -6.846  0.00  0.00    +0.177 C 
ATOM     17  C   UNL     1      10.621  -4.607  -6.969  0.00  0.00    +0.180 C 
BRANCH  17  18
ATOM     18  O   UNL     1       9.222  -4.938  -7.056  0.00  0.00    -0.386 OA
ATOM     19  H   UNL     1       8.701  -4.119  -6.949  0.00  0.00    +0.210 HD
ENDBRANCH  17  18
BRANCH  16  20
ATOM     20  O   UNL     1      10.991  -6.649  -5.707  0.00  0.00    -0.386 OA
ATOM     21  H   UNL     1      10.014  -6.609  -5.734  0.00  0.00    +0.210 HD
ENDBRANCH  16  20
BRANCH  13  22
ATOM     22  O   UNL     1      13.079  -2.540  -8.968  0.00  0.00    -0.453 OA
BRANCH  22  23
ATOM     23  C   UNL     1      14.082  -1.582  -8.729  0.00  0.00    +0.214 A 
ATOM     24  C   UNL     1      14.974  -1.728  -7.524  0.00  0.00    +0.238 A 
ATOM     25  O   UNL     1      14.801  -2.608  -6.690  0.00  0.00    -0.283 OA
ATOM     26  C   UNL     1      16.077  -0.778  -7.341  0.00  0.00    +0.109 A 
ATOM     27  C   UNL     1      16.147   0.302  -8.205  0.00  0.00    +0.147 A 
ATOM     28  C   UNL     1      17.126   1.285  -8.038  0.00  0.00    +0.092 A 
ATOM     29  C   UNL     1      18.045   1.160  -7.002  0.00  0.00    +0.124 A 
ATOM     30  C   UNL     1      18.011   0.068  -6.146  0.00  0.00    +0.091 A 
ATOM     31  O   UNL     1      15.288   0.467  -9.250  0.00  0.00    -0.451 OA
ATOM     32  C   UNL     1      17.027  -0.903  -6.317  0.00  0.00    +0.135 A 
ATOM     33  C   UNL     1      14.345  -0.514  -9.555  0.00  0.00    +0.181 A 
BRANCH  33  34
ATOM     34  C   UNL     1      13.736  -0.195 -10.905  0.00  0.00    +0.025 A 
ATOM     35  C   UNL     1      14.004   1.002 -11.632  0.00  0.00    +0.015 A 
ATOM     36  C   UNL     1      13.511   1.230 -12.940  0.00  0.00    +0.050 A 
ATOM     37  C   UNL     1      12.760   0.249 -13.549  0.00  0.00    +0.158 A 
ATOM     38  C   UNL     1      12.504  -0.921 -12.865  0.00  0.00    +0.159 A 
ATOM     39  C   UNL     1      12.967  -1.137 -11.572  0.00  0.00    +0.060 A 
BRANCH  38  40
ATOM     40  O   UNL     1      11.792  -1.870 -13.526  0.00  0.00    -0.503 OA
ATOM     41  H   UNL     1      11.175  -2.265 -12.871  0.00  0.00    +0.292 HD
ENDBRANCH  38  40
BRANCH  37  42
ATOM     42  O   UNL     1      12.269   0.394 -14.815  0.00  0.00    -0.503 OA
ATOM     43  H   UNL     1      11.805  -0.461 -14.985  0.00  0.00    +0.292 HD
ENDBRANCH  37  42
ENDBRANCH  33  34
BRANCH  32  44
ATOM     44  O   UNL     1      17.018  -1.976  -5.473  0.00  0.00    -0.506 OA
ATOM     45  H   UNL     1      17.757  -1.917  -4.848  0.00  0.00    +0.292 HD
ENDBRANCH  32  44
BRANCH  29  46
ATOM     46  O   UNL     1      19.011   2.096  -6.783  0.00  0.00    -0.507 OA
ATOM     47  H   UNL     1      18.912   2.813  -7.431  0.00  0.00    +0.292 HD
ENDBRANCH  29  46
ENDBRANCH  22  23
ENDBRANCH  13  22
BRANCH  15  48
ATOM     48  C   UNL     1      13.504  -5.321  -5.420  0.00  0.00    +0.190 C 
BRANCH  48  49
ATOM     49  O   UNL     1      12.813  -4.263  -4.759  0.00  0.00    -0.392 OA
ATOM     50  H   UNL     1      13.269  -4.154  -3.904  0.00  0.00    +0.210 HD
ENDBRANCH  48  49
ENDBRANCH  15  48
ENDBRANCH  11  12
ENDBRANCH   6  11
BRANCH   4  51
ATOM     51  C   UNL     1      11.839  -5.049 -12.330  0.00  0.00    +0.190 C 
BRANCH  51  52
ATOM     52  O   UNL     1      12.526  -6.300 -12.224  0.00  0.00    -0.392 OA
ATOM     53  H   UNL     1      12.221  -6.696 -11.385  0.00  0.00    +0.210 HD
ENDBRANCH  51  52
ENDBRANCH   4  51
BRANCH   1  54
ATOM     54  O   UNL     1       7.506  -4.530 -10.319  0.00  0.00    -0.338 OA
BRANCH  54  57
ATOM     55  C   UNL     1       5.152  -2.304 -11.948  0.00  0.00    +0.190 C 
ATOM     56  O   UNL     1       6.414  -2.910 -11.631  0.00  0.00    -0.339 OA
ATOM     57  C   UNL     1       6.397  -3.652 -10.420  0.00  0.00    +0.282 C 
ATOM     58  C   UNL     1       6.215  -2.680  -9.242  0.00  0.00    +0.201 C 
ATOM     59  C   UNL     1       4.795  -2.104  -9.390  0.00  0.00    +0.179 C 
ATOM     60  C   UNL     1       4.607  -1.450 -10.778  0.00  0.00    +0.178 C 
BRANCH  58  61
ATOM     61  O   UNL     1       6.414  -3.312  -7.974  0.00  0.00    -0.384 OA
ATOM     62  H   UNL     1       5.990  -4.189  -8.006  0.00  0.00    +0.210 HD
ENDBRANCH  58  61
BRANCH  59  63
ATOM     63  O   UNL     1       4.508  -1.151  -8.356  0.00  0.00    -0.386 OA
ATOM     64  H   UNL     1       5.332  -0.708  -8.092  0.00  0.00    +0.210 HD
ENDBRANCH  59  63
BRANCH  60  65
ATOM     65  O   UNL     1       3.225  -1.155 -10.982  0.00  0.00    -0.386 OA
ATOM     66  H   UNL     1       3.163  -0.295 -11.436  0.00  0.00    +0.210 HD
ENDBRANCH  60  65
BRANCH  55  67
ATOM     67  C   UNL     1       4.196  -3.383 -12.494  0.00  0.00    +0.266 C 
BRANCH  67  68
ATOM     68  O   UNL     1       4.788  -4.018 -13.652  0.00  0.00    -0.459 OA
BRANCH  68  69
ATOM     69  C   UNL     1       4.605  -3.340 -14.811  0.00  0.00    +0.332 C 
ATOM     70  O   UNL     1       3.965  -2.305 -14.935  0.00  0.00    -0.246 OA
BRANCH  69  72
ATOM     71  C   UNL     1       5.174  -3.562 -17.159  0.00  0.00    +0.015 C 
ATOM     72  C   UNL     1       5.300  -4.034 -15.907  0.00  0.00    +0.092 C 
BRANCH  71  75
ATOM     73  C   UNL     1       6.837  -5.979 -19.559  0.00  0.00    +0.162 A 
ATOM     74  C   UNL     1       6.187  -5.477 -18.429  0.00  0.00    +0.057 A 
ATOM     75  C   UNL     1       5.847  -4.120 -18.342  0.00  0.00    -0.021 A 
ATOM     76  C   UNL     1       6.121  -3.278 -19.431  0.00  0.00    +0.012 A 
ATOM     77  C   UNL     1       6.782  -3.769 -20.559  0.00  0.00    +0.050 A 
ATOM     78  C   UNL     1       7.148  -5.107 -20.605  0.00  0.00    +0.158 A 
BRANCH  78  79
ATOM     79  O   UNL     1       7.809  -5.559 -21.713  0.00  0.00    -0.503 OA
ATOM     80  H   UNL     1       7.984  -6.504 -21.540  0.00  0.00    +0.292 HD
ENDBRANCH  78  79
BRANCH  73  82
ATOM     81  C   UNL     1       6.517  -8.235 -18.940  0.00  0.00    +0.277 C 
ATOM     82  O   UNL     1       7.231  -7.283 -19.725  0.00  0.00    -0.491 OA
ENDBRANCH  73  82
ENDBRANCH  71  75
ENDBRANCH  69  72
ENDBRANCH  68  69
ENDBRANCH  67  68
ENDBRANCH  55  67
ENDBRANCH  54  57
ENDBRANCH   1  54
TORSDOF 29
