REMARK  Name = 
REMARK  17 active torsions:
REMARK  status: ('A' for Active; 'I' for Inactive)
REMARK    1  A    between atoms: C_3  and  O_47
REMARK    2  A    between atoms: C_4  and  O_46
REMARK    3  A    between atoms: C_6  and  C_7
REMARK    4  A    between atoms: C_8  and  O_20
REMARK    5  A    between atoms: C_12  and  O_19
REMARK    6  A    between atoms: C_14  and  O_18
REMARK    7  A    between atoms: O_20  and  C_21
REMARK    8  A    between atoms: C_23  and  O_45
REMARK    9  A    between atoms: C_24  and  O_44
REMARK   10  A    between atoms: C_25  and  O_43
REMARK   11  A    between atoms: C_27  and  C_30
REMARK   12  A    between atoms: C_30  and  O_31
REMARK   13  A    between atoms: O_31  and  C_32
REMARK   14  A    between atoms: C_32  and  C_34
REMARK   15  A    between atoms: C_36  and  O_42
REMARK   16  A    between atoms: C_37  and  O_41
REMARK   17  A    between atoms: C_38  and  O_40
REMARK                            x       y       z     vdW  Elec       q    Type
REMARK                         _______ _______ _______ _____ _____    ______ ____
ROOT
ATOM      1  C   UNL     1      -3.538  -0.742  -0.660  0.00  0.00    +0.340 C 
ATOM      2  O   UNL     1      -4.110  -0.262  -1.868  0.00  0.00    -0.330 OA
ATOM      3  C   UNL     1      -3.521  -0.439  -3.170  0.00  0.00    +0.191 C 
ATOM      4  C   UNL     1      -2.243  -1.305  -3.278  0.00  0.00    +0.178 C 
ATOM      5  C   UNL     1      -1.854  -1.941  -1.948  0.00  0.00    +0.180 C 
ATOM      6  C   UNL     1      -2.031  -0.913  -0.820  0.00  0.00    +0.214 C 
ENDROOT
BRANCH   4   7
ATOM      7  O   UNL     1      -1.126  -0.477  -3.678  0.00  0.00    -0.386 OA
ATOM      8  H   UNL     1      -0.333  -1.026  -3.481  0.00  0.00    +0.210 HD
ENDBRANCH   4   7
BRANCH   5   9
ATOM      9  O   UNL     1      -0.492  -2.388  -1.991  0.00  0.00    -0.386 OA
ATOM     10  H   UNL     1      -0.260  -2.525  -1.046  0.00  0.00    +0.210 HD
ENDBRANCH   5   9
BRANCH   6  11
ATOM     11  O   UNL     1      -1.421  -1.415   0.381  0.00  0.00    -0.383 OA
ATOM     12  H   UNL     1      -2.097  -1.375   1.085  0.00  0.00    +0.210 HD
ENDBRANCH   6  11
BRANCH   1  13
ATOM     13  O   UNL     1      -3.954  -2.044  -0.124  0.00  0.00    -0.453 OA
BRANCH  13  24
ATOM     14  C   UNL     1      -5.524  -3.316   1.226  0.00  0.00    +0.181 A 
ATOM     15  O   UNL     1      -6.850  -3.752   1.411  0.00  0.00    -0.451 OA
ATOM     16  C   UNL     1      -7.823  -3.388   0.529  0.00  0.00    +0.147 A 
ATOM     17  C   UNL     1      -7.646  -2.339  -0.348  0.00  0.00    +0.109 A 
ATOM     18  C   UNL     1      -8.678  -1.925  -1.198  0.00  0.00    +0.135 A 
ATOM     19  C   UNL     1      -9.897  -2.583  -1.180  0.00  0.00    +0.091 A 
ATOM     20  C   UNL     1     -10.077  -3.640  -0.285  0.00  0.00    +0.124 A 
ATOM     21  C   UNL     1      -6.379  -1.644  -0.305  0.00  0.00    +0.238 A 
ATOM     22  O   UNL     1      -6.350  -0.494  -0.722  0.00  0.00    -0.283 OA
ATOM     23  C   UNL     1      -9.051  -4.044   0.570  0.00  0.00    +0.092 A 
ATOM     24  C   UNL     1      -5.216  -2.356   0.300  0.00  0.00    +0.214 A 
BRANCH  14  26
ATOM     25  C   UNL     1      -5.285  -4.564   3.403  0.00  0.00    +0.015 A 
ATOM     26  C   UNL     1      -4.637  -3.998   2.261  0.00  0.00    +0.025 A 
ATOM     27  C   UNL     1      -3.241  -4.072   2.264  0.00  0.00    +0.060 A 
ATOM     28  C   UNL     1      -2.553  -4.588   3.386  0.00  0.00    +0.159 A 
ATOM     29  C   UNL     1      -3.223  -5.030   4.520  0.00  0.00    +0.158 A 
ATOM     30  C   UNL     1      -4.599  -5.060   4.524  0.00  0.00    +0.050 A 
BRANCH  28  31
ATOM     31  O   UNL     1      -1.176  -4.631   3.388  0.00  0.00    -0.503 OA
ATOM     32  H   UNL     1      -0.929  -5.018   4.250  0.00  0.00    +0.292 HD
ENDBRANCH  28  31
BRANCH  29  33
ATOM     33  O   UNL     1      -2.490  -5.411   5.611  0.00  0.00    -0.503 OA
ATOM     34  H   UNL     1      -3.077  -5.404   6.390  0.00  0.00    +0.292 HD
ENDBRANCH  29  33
ENDBRANCH  14  26
BRANCH  20  35
ATOM     35  O   UNL     1     -11.267  -4.293  -0.214  0.00  0.00    -0.507 OA
ATOM     36  H   UNL     1     -11.896  -3.867  -0.821  0.00  0.00    +0.292 HD
ENDBRANCH  20  35
BRANCH  18  37
ATOM     37  O   UNL     1      -8.544  -0.877  -2.067  0.00  0.00    -0.506 OA
ATOM     38  H   UNL     1      -7.706  -0.405  -1.852  0.00  0.00    +0.292 HD
ENDBRANCH  18  37
ENDBRANCH  13  24
ENDBRANCH   1  13
BRANCH   3  39
ATOM     39  C   UNL     1      -4.700  -0.941  -4.013  0.00  0.00    +0.266 C 
BRANCH  39  40
ATOM     40  O   UNL     1      -4.383  -1.268  -5.362  0.00  0.00    -0.458 OA
BRANCH  40  41
ATOM     41  C   UNL     1      -4.620  -0.316  -6.299  0.00  0.00    +0.340 C 
ATOM     42  O   UNL     1      -4.841   0.865  -6.090  0.00  0.00    -0.245 OA
BRANCH  41  43
ATOM     43  C   UNL     1      -4.627  -0.945  -7.645  0.00  0.00    +0.066 A 
ATOM     44  C   UNL     1      -4.632  -2.347  -7.790  0.00  0.00    +0.064 A 
ATOM     45  C   UNL     1      -4.659  -2.909  -9.058  0.00  0.00    +0.163 A 
ATOM     46  C   UNL     1      -4.682  -2.101 -10.184  0.00  0.00    +0.201 A 
ATOM     47  C   UNL     1      -4.685  -0.716 -10.052  0.00  0.00    +0.163 A 
ATOM     48  C   UNL     1      -4.671  -0.127  -8.788  0.00  0.00    +0.064 A 
BRANCH  45  49
ATOM     49  O   UNL     1      -4.655  -4.268  -9.182  0.00  0.00    -0.503 OA
ATOM     50  H   UNL     1      -4.659  -4.431 -10.147  0.00  0.00    +0.292 HD
ENDBRANCH  45  49
BRANCH  46  51
ATOM     51  O   UNL     1      -4.693  -2.687 -11.420  0.00  0.00    -0.501 OA
ATOM     52  H   UNL     1      -4.697  -1.933 -12.045  0.00  0.00    +0.292 HD
ENDBRANCH  46  51
BRANCH  47  53
ATOM     53  O   UNL     1      -4.691   0.025 -11.201  0.00  0.00    -0.503 OA
ATOM     54  H   UNL     1      -4.583   0.963 -10.961  0.00  0.00    +0.292 HD
ENDBRANCH  47  53
ENDBRANCH  41  43
ENDBRANCH  40  41
ENDBRANCH  39  40
ENDBRANCH   3  39
TORSDOF 17
