REMARK  Name = 
REMARK  23 active torsions:
REMARK  status: ('A' for Active; 'I' for Inactive)
REMARK    1  A    between atoms: C_1  and  C_2
REMARK    2  A    between atoms: C_3  and  O_62
REMARK    3  A    between atoms: C_5  and  O_61
REMARK    4  A    between atoms: C_6  and  O_60
REMARK    5  A    between atoms: C_8  and  O_11
REMARK    6  A    between atoms: O_11  and  C_12
REMARK    7  A    between atoms: C_13  and  O_24
REMARK    8  A    between atoms: C_16  and  C_22
REMARK    9  A    between atoms: C_17  and  O_21
REMARK   10  A    between atoms: C_19  and  O_20
REMARK   11  A    between atoms: C_22  and  O_23
REMARK   12  A    between atoms: O_24  and  C_25
REMARK   13  A    between atoms: C_26  and  C_52
REMARK   14  A    between atoms: C_30  and  O_37
REMARK   15  A    between atoms: C_32  and  O_36
REMARK   16  A    between atoms: O_37  and  C_38
REMARK   17  A    between atoms: C_40  and  O_51
REMARK   18  A    between atoms: C_41  and  O_50
REMARK   19  A    between atoms: C_43  and  O_49
REMARK   20  A    between atoms: C_45  and  C_47
REMARK   21  A    between atoms: C_47  and  O_48
REMARK   22  A    between atoms: C_54  and  O_59
REMARK   23  A    between atoms: C_55  and  O_58
REMARK                            x       y       z     vdW  Elec       q    Type
REMARK                         _______ _______ _______ _____ _____    ______ ____
ROOT
ATOM      1  C   UNL     1       1.520   5.399  -2.080  0.00  0.00    +0.214 A 
ATOM      2  C   UNL     1       0.173   6.088  -2.009  0.00  0.00    +0.238 A 
ATOM      3  O   UNL     1      -0.294   6.713  -2.951  0.00  0.00    -0.283 OA
ATOM      4  C   UNL     1      -0.564   6.045  -0.721  0.00  0.00    +0.109 A 
ATOM      5  C   UNL     1       0.040   5.389   0.329  0.00  0.00    +0.147 A 
ATOM      6  C   UNL     1      -0.594   5.252   1.565  0.00  0.00    +0.093 A 
ATOM      7  C   UNL     1      -1.828   5.845   1.801  0.00  0.00    +0.131 A 
ATOM      8  C   UNL     1      -2.442   6.553   0.765  0.00  0.00    +0.092 A 
ATOM      9  O   UNL     1       1.288   4.855   0.269  0.00  0.00    -0.451 OA
ATOM     10  C   UNL     1      -1.819   6.640  -0.497  0.00  0.00    +0.135 A 
ATOM     11  C   UNL     1       1.984   4.899  -0.914  0.00  0.00    +0.181 A 
ENDROOT
BRANCH  11  12
ATOM     12  C   UNL     1       3.329   4.342  -0.697  0.00  0.00    +0.025 A 
ATOM     13  C   UNL     1       3.489   2.950  -0.614  0.00  0.00    +0.015 A 
ATOM     14  C   UNL     1       4.670   2.402  -0.110  0.00  0.00    +0.050 A 
ATOM     15  C   UNL     1       5.681   3.244   0.324  0.00  0.00    +0.158 A 
ATOM     16  C   UNL     1       5.535   4.624   0.234  0.00  0.00    +0.159 A 
ATOM     17  C   UNL     1       4.379   5.188  -0.296  0.00  0.00    +0.060 A 
BRANCH  16  18
ATOM     18  O   UNL     1       6.549   5.391   0.749  0.00  0.00    -0.503 OA
ATOM     19  H   UNL     1       6.217   6.295   0.889  0.00  0.00    +0.292 HD
ENDBRANCH  16  18
BRANCH  15  20
ATOM     20  O   UNL     1       6.796   2.709   0.901  0.00  0.00    -0.503 OA
ATOM     21  H   UNL     1       7.339   3.482   1.156  0.00  0.00    +0.292 HD
ENDBRANCH  15  20
ENDBRANCH  11  12
BRANCH  10  22
ATOM     22  O   UNL     1      -2.459   7.325  -1.496  0.00  0.00    -0.506 OA
ATOM     23  H   UNL     1      -3.398   7.443  -1.274  0.00  0.00    +0.292 HD
ENDBRANCH  10  22
BRANCH   7  24
ATOM     24  O   UNL     1      -2.508   5.786   2.991  0.00  0.00    -0.461 OA
BRANCH  24  25
ATOM     25  C   UNL     1      -1.869   5.074   4.077  0.00  0.00    +0.339 C 
ATOM     26  O   UNL     1      -1.674   3.681   3.821  0.00  0.00    -0.331 OA
ATOM     27  C   UNL     1      -2.899   2.969   3.569  0.00  0.00    +0.179 C 
ATOM     28  C   UNL     1      -3.911   3.088   4.732  0.00  0.00    +0.177 C 
ATOM     29  C   UNL     1      -4.069   4.540   5.211  0.00  0.00    +0.180 C 
ATOM     30  C   UNL     1      -2.698   5.224   5.364  0.00  0.00    +0.214 C 
BRANCH  30  31
ATOM     31  O   UNL     1      -2.848   6.589   5.776  0.00  0.00    -0.383 OA
ATOM     32  H   UNL     1      -3.164   7.119   5.027  0.00  0.00    +0.210 HD
ENDBRANCH  30  31
BRANCH  29  33
ATOM     33  O   UNL     1      -4.951   5.219   4.309  0.00  0.00    -0.386 OA
ATOM     34  H   UNL     1      -4.541   6.053   4.028  0.00  0.00    +0.210 HD
ENDBRANCH  29  33
BRANCH  28  35
ATOM     35  O   UNL     1      -3.509   2.280   5.842  0.00  0.00    -0.386 OA
ATOM     36  H   UNL     1      -4.273   2.211   6.444  0.00  0.00    +0.210 HD
ENDBRANCH  28  35
BRANCH  27  37
ATOM     37  C   UNL     1      -2.543   1.493   3.278  0.00  0.00    +0.190 C 
BRANCH  37  38
ATOM     38  O   UNL     1      -1.530   1.350   2.278  0.00  0.00    -0.392 OA
ATOM     39  H   UNL     1      -1.616   2.083   1.649  0.00  0.00    +0.210 HD
ENDBRANCH  37  38
ENDBRANCH  27  37
ENDBRANCH  24  25
ENDBRANCH   7  24
BRANCH   1  40
ATOM     40  O   UNL     1       2.295   5.246  -3.226  0.00  0.00    -0.453 OA
BRANCH  40  46
ATOM     41  C   UNL     1       2.999   7.120  -4.601  0.00  0.00    +0.221 C 
ATOM     42  C   UNL     1       4.307   6.674  -5.280  0.00  0.00    +0.180 C 
ATOM     43  C   UNL     1       4.016   5.784  -6.497  0.00  0.00    +0.177 C 
ATOM     44  C   UNL     1       3.130   4.592  -6.133  0.00  0.00    +0.179 C 
ATOM     45  O   UNL     1       1.907   5.034  -5.548  0.00  0.00    -0.331 OA
ATOM     46  C   UNL     1       1.999   5.938  -4.440  0.00  0.00    +0.340 C 
BRANCH  43  47
ATOM     47  O   UNL     1       5.217   5.363  -7.139  0.00  0.00    -0.386 OA
ATOM     48  H   UNL     1       4.981   5.046  -8.029  0.00  0.00    +0.210 HD
ENDBRANCH  43  47
BRANCH  42  49
ATOM     49  O   UNL     1       5.193   6.037  -4.345  0.00  0.00    -0.386 OA
ATOM     50  H   UNL     1       4.689   5.585  -3.648  0.00  0.00    +0.210 HD
ENDBRANCH  42  49
BRANCH  44  51
ATOM     51  C   UNL     1       3.770   3.479  -5.290  0.00  0.00    +0.190 C 
BRANCH  51  52
ATOM     52  O   UNL     1       2.843   2.393  -5.166  0.00  0.00    -0.392 OA
ATOM     53  H   UNL     1       1.990   2.794  -4.913  0.00  0.00    +0.210 HD
ENDBRANCH  51  52
ENDBRANCH  44  51
BRANCH  41  54
ATOM     54  O   UNL     1       2.452   8.228  -5.338  0.00  0.00    -0.337 OA
BRANCH  54  58
ATOM     55  C   UNL     1      -1.476   9.814  -5.281  0.00  0.00    +0.041 C 
ATOM     56  C   UNL     1      -0.232  10.684  -5.092  0.00  0.00    +0.149 C 
ATOM     57  O   UNL     1       0.958  10.008  -5.532  0.00  0.00    -0.343 OA
ATOM     58  C   UNL     1       1.345   8.898  -4.708  0.00  0.00    +0.282 C 
ATOM     59  C   UNL     1       1.633   9.380  -3.263  0.00  0.00    +0.201 C 
ATOM     60  C   UNL     1       0.405  10.100  -2.701  0.00  0.00    +0.179 C 
ATOM     61  C   UNL     1      -0.073  11.203  -3.653  0.00  0.00    +0.174 C 
BRANCH  59  62
ATOM     62  O   UNL     1       2.770  10.268  -3.239  0.00  0.00    -0.384 OA
ATOM     63  H   UNL     1       2.936  10.465  -2.298  0.00  0.00    +0.210 HD
ENDBRANCH  59  62
BRANCH  60  64
ATOM     64  O   UNL     1       0.754  10.668  -1.426  0.00  0.00    -0.386 OA
ATOM     65  H   UNL     1       0.999  11.598  -1.621  0.00  0.00    +0.210 HD
ENDBRANCH  60  64
BRANCH  61  66
ATOM     66  O   UNL     1       0.906  12.260  -3.617  0.00  0.00    -0.387 OA
ATOM     67  H   UNL     1       1.725  11.885  -4.013  0.00  0.00    +0.210 HD
ENDBRANCH  61  66
ENDBRANCH  54  58
ENDBRANCH  41  54
ENDBRANCH  40  46
ENDBRANCH   1  40
TORSDOF 22
