REMARK  Name = 
REMARK  20 active torsions:
REMARK  status: ('A' for Active; 'I' for Inactive)
REMARK    1  A    between atoms: C_2  and  O_58
REMARK    2  A    between atoms: C_3  and  O_57
REMARK    3  A    between atoms: C_5  and  O_56
REMARK    4  A    between atoms: C_6  and  O_9
REMARK    5  A    between atoms: O_9  and  C_10
REMARK    6  A    between atoms: C_10  and  C_11
REMARK    7  A    between atoms: C_12  and  O_55
REMARK    8  A    between atoms: C_14  and  O_54
REMARK    9  A    between atoms: C_16  and  O_42
REMARK   10  A    between atoms: C_17  and  O_20
REMARK   11  A    between atoms: O_20  and  C_21
REMARK   12  A    between atoms: C_22  and  C_34
REMARK   13  A    between atoms: C_26  and  O_33
REMARK   14  A    between atoms: C_28  and  O_32
REMARK   15  A    between atoms: C_36  and  O_41
REMARK   16  A    between atoms: C_37  and  O_40
REMARK   17  A    between atoms: O_42  and  C_43
REMARK   18  A    between atoms: C_43  and  C_45
REMARK   19  A    between atoms: C_46  and  C_47
REMARK   20  A    between atoms: C_50  and  O_53
REMARK                            x       y       z     vdW  Elec       q    Type
REMARK                         _______ _______ _______ _____ _____    ______ ____
ROOT
ATOM      1  C   UNL     1       3.556  -3.599   0.126  0.00  0.00    +0.179 C 
ATOM      2  O   UNL     1       4.838  -3.362  -0.524  0.00  0.00    -0.330 OA
ATOM      3  C   UNL     1       4.715  -3.416  -1.968  0.00  0.00    +0.352 C 
ATOM      4  C   UNL     1       4.344  -4.833  -2.444  0.00  0.00    +0.276 C 
ATOM      5  C   UNL     1       3.054  -5.265  -1.732  0.00  0.00    +0.192 C 
ATOM      6  C   UNL     1       3.107  -5.033  -0.214  0.00  0.00    +0.178 C 
ENDROOT
BRANCH   6   7
ATOM      7  O   UNL     1       1.836  -5.377   0.338  0.00  0.00    -0.386 OA
ATOM      8  H   UNL     1       1.894  -5.275   1.306  0.00  0.00    +0.210 HD
ENDBRANCH   6   7
BRANCH   5   9
ATOM      9  O   UNL     1       2.758  -6.645  -1.990  0.00  0.00    -0.385 OA
ATOM     10  H   UNL     1       2.000  -6.858  -1.411  0.00  0.00    +0.210 HD
ENDBRANCH   5   9
BRANCH   4  11
ATOM     11  O   UNL     1       5.430  -5.746  -2.139  0.00  0.00    -0.449 OA
BRANCH  11  12
ATOM     12  C   UNL     1       6.052  -6.282  -3.226  0.00  0.00    +0.332 C 
ATOM     13  O   UNL     1       5.774  -6.093  -4.396  0.00  0.00    -0.246 OA
BRANCH  12  14
ATOM     14  C   UNL     1       7.172  -7.133  -2.764  0.00  0.00    +0.092 C 
ATOM     15  C   UNL     1       7.906  -7.803  -3.670  0.00  0.00    +0.015 C 
BRANCH  15  16
ATOM     16  C   UNL     1       9.071  -8.645  -3.356  0.00  0.00    -0.025 A 
ATOM     17  C   UNL     1      10.085  -8.783  -4.315  0.00  0.00    +0.011 A 
ATOM     18  C   UNL     1      11.204  -9.583  -4.061  0.00  0.00    +0.046 A 
ATOM     19  C   UNL     1      11.308 -10.254  -2.849  0.00  0.00    +0.117 A 
ATOM     20  C   UNL     1      10.306 -10.150  -1.893  0.00  0.00    +0.046 A 
ATOM     21  C   UNL     1       9.187  -9.351  -2.151  0.00  0.00    +0.011 A 
BRANCH  19  22
ATOM     22  O   UNL     1      12.420 -11.013  -2.633  0.00  0.00    -0.507 OA
ATOM     23  H   UNL     1      12.378 -11.369  -1.731  0.00  0.00    +0.292 HD
ENDBRANCH  19  22
ENDBRANCH  15  16
ENDBRANCH  12  14
ENDBRANCH  11  12
ENDBRANCH   4  11
BRANCH   3  24
ATOM     24  O   UNL     1       5.903  -2.939  -2.611  0.00  0.00    -0.452 OA
BRANCH  24  25
ATOM     25  C   UNL     1       5.721  -1.831  -3.446  0.00  0.00    +0.214 A 
ATOM     26  C   UNL     1       4.482  -1.689  -4.293  0.00  0.00    +0.238 A 
ATOM     27  O   UNL     1       3.604  -2.545  -4.285  0.00  0.00    -0.283 OA
ATOM     28  C   UNL     1       4.360  -0.490  -5.136  0.00  0.00    +0.109 A 
ATOM     29  C   UNL     1       5.456   0.362  -5.207  0.00  0.00    +0.147 A 
ATOM     30  C   UNL     1       5.449   1.449  -6.087  0.00  0.00    +0.092 A 
ATOM     31  C   UNL     1       4.327   1.683  -6.877  0.00  0.00    +0.124 A 
ATOM     32  C   UNL     1       3.203   0.873  -6.779  0.00  0.00    +0.091 A 
ATOM     33  O   UNL     1       6.581   0.200  -4.440  0.00  0.00    -0.451 OA
ATOM     34  C   UNL     1       3.215  -0.208  -5.899  0.00  0.00    +0.135 A 
ATOM     35  C   UNL     1       6.670  -0.878  -3.566  0.00  0.00    +0.181 A 
BRANCH  35  36
ATOM     36  C   UNL     1       7.949  -0.882  -2.797  0.00  0.00    +0.025 A 
ATOM     37  C   UNL     1       9.127  -0.407  -3.410  0.00  0.00    +0.015 A 
ATOM     38  C   UNL     1      10.343  -0.364  -2.718  0.00  0.00    +0.050 A 
ATOM     39  C   UNL     1      10.390  -0.797  -1.405  0.00  0.00    +0.158 A 
ATOM     40  C   UNL     1       9.244  -1.271  -0.777  0.00  0.00    +0.159 A 
ATOM     41  C   UNL     1       8.026  -1.302  -1.455  0.00  0.00    +0.060 A 
BRANCH  40  42
ATOM     42  O   UNL     1       9.360  -1.698   0.519  0.00  0.00    -0.503 OA
ATOM     43  H   UNL     1       8.513  -2.101   0.779  0.00  0.00    +0.292 HD
ENDBRANCH  40  42
BRANCH  39  44
ATOM     44  O   UNL     1      11.573  -0.749  -0.727  0.00  0.00    -0.503 OA
ATOM     45  H   UNL     1      11.358  -1.081   0.168  0.00  0.00    +0.292 HD
ENDBRANCH  39  44
ENDBRANCH  35  36
BRANCH  34  46
ATOM     46  O   UNL     1       2.081  -0.962  -5.781  0.00  0.00    -0.506 OA
ATOM     47  H   UNL     1       1.476  -0.771  -6.517  0.00  0.00    +0.292 HD
ENDBRANCH  34  46
BRANCH  31  48
ATOM     48  O   UNL     1       4.279   2.713  -7.768  0.00  0.00    -0.507 OA
ATOM     49  H   UNL     1       5.138   3.166  -7.782  0.00  0.00    +0.292 HD
ENDBRANCH  31  48
ENDBRANCH  24  25
ENDBRANCH   3  24
BRANCH   1  50
ATOM     50  C   UNL     1       2.582  -2.441  -0.220  0.00  0.00    +0.197 C 
BRANCH  50  51
ATOM     51  O   UNL     1       1.351  -2.350   0.499  0.00  0.00    -0.346 OA
BRANCH  51  54
ATOM     52  C   UNL     1       0.792   1.175  -0.167  0.00  0.00    +0.197 C 
ATOM     53  O   UNL     1       1.357  -0.020   0.363  0.00  0.00    -0.346 OA
ATOM     54  C   UNL     1       0.627  -1.202  -0.002  0.00  0.00    +0.281 C 
ATOM     55  C   UNL     1      -0.801  -1.121   0.585  0.00  0.00    +0.201 C 
ATOM     56  C   UNL     1      -1.474   0.145   0.014  0.00  0.00    +0.178 C 
ATOM     57  C   UNL     1      -0.632   1.388   0.343  0.00  0.00    +0.171 C 
BRANCH  57  58
ATOM     58  O   UNL     1      -1.228   2.556  -0.228  0.00  0.00    -0.387 OA
ATOM     59  H   UNL     1      -1.230   2.469  -1.197  0.00  0.00    +0.210 HD
ENDBRANCH  57  58
BRANCH  56  60
ATOM     60  O   UNL     1      -2.810   0.310   0.494  0.00  0.00    -0.386 OA
ATOM     61  H   UNL     1      -2.973   1.272   0.550  0.00  0.00    +0.210 HD
ENDBRANCH  56  60
BRANCH  55  62
ATOM     62  O   UNL     1      -0.744  -1.032   2.022  0.00  0.00    -0.384 OA
ATOM     63  H   UNL     1       0.195  -0.916   2.259  0.00  0.00    +0.210 HD
ENDBRANCH  55  62
ENDBRANCH  51  54
ENDBRANCH  50  51
ENDBRANCH   1  50
TORSDOF 20
