REMARK  Name = 
REMARK  21 active torsions:
REMARK  status: ('A' for Active; 'I' for Inactive)
REMARK    1  A    between atoms: C_1  and  C_2
REMARK    2  A    between atoms: C_3  and  O_60
REMARK    3  A    between atoms: C_5  and  O_59
REMARK    4  A    between atoms: C_6  and  O_33
REMARK    5  A    between atoms: C_8  and  O_11
REMARK    6  A    between atoms: O_11  and  C_12
REMARK    7  A    between atoms: C_13  and  C_25
REMARK    8  A    between atoms: C_17  and  O_24
REMARK    9  A    between atoms: C_19  and  O_23
REMARK   10  A    between atoms: C_27  and  O_32
REMARK   11  A    between atoms: C_28  and  O_31
REMARK   12  A    between atoms: O_33  and  C_34
REMARK   13  A    between atoms: C_36  and  O_58
REMARK   14  A    between atoms: C_38  and  O_57
REMARK   15  A    between atoms: C_39  and  O_56
REMARK   16  A    between atoms: C_41  and  C_43
REMARK   17  A    between atoms: C_43  and  O_44
REMARK   18  A    between atoms: O_44  and  C_45
REMARK   19  A    between atoms: C_45  and  C_47
REMARK   20  A    between atoms: C_48  and  C_49
REMARK   21  A    between atoms: C_52  and  O_55
REMARK                            x       y       z     vdW  Elec       q    Type
REMARK                         _______ _______ _______ _____ _____    ______ ____
ROOT
ATOM      1  C   UNL     1       0.464  -0.020   0.642  0.00  0.00    +0.041 C 
ATOM      2  C   UNL     1       1.981  -0.014   0.485  0.00  0.00    +0.150 C 
ATOM      3  O   UNL     1       2.542   1.034  -0.320  0.00  0.00    -0.334 OA
ATOM      4  C   UNL     1       2.804   0.869  -1.745  0.00  0.00    +0.340 C 
ATOM      5  C   UNL     1       2.996  -0.636  -2.337  0.00  0.00    +0.221 C 
ATOM      6  C   UNL     1       2.104  -1.507  -1.460  0.00  0.00    +0.180 C 
ATOM      7  C   UNL     1       2.512  -1.347   0.034  0.00  0.00    +0.174 C 
ENDROOT
BRANCH   6   8
ATOM      8  O   UNL     1       1.901  -2.854  -1.863  0.00  0.00    -0.386 OA
ATOM      9  H   UNL     1       2.663  -3.181  -2.380  0.00  0.00    +0.210 HD
ENDBRANCH   6   8
BRANCH   7  10
ATOM     10  O   UNL     1       3.917  -1.187   0.338  0.00  0.00    -0.387 OA
ATOM     11  H   UNL     1       4.321  -0.611  -0.344  0.00  0.00    +0.210 HD
ENDBRANCH   7  10
BRANCH   5  12
ATOM     12  O   UNL     1       4.381  -1.095  -2.330  0.00  0.00    -0.337 OA
BRANCH  12  13
ATOM     13  C   UNL     1       4.694  -2.318  -3.063  0.00  0.00    +0.282 C 
ATOM     14  O   UNL     1       4.231  -3.527  -2.395  0.00  0.00    -0.339 OA
ATOM     15  C   UNL     1       4.735  -3.635  -1.044  0.00  0.00    +0.190 C 
ATOM     16  C   UNL     1       6.261  -3.669  -0.971  0.00  0.00    +0.178 C 
ATOM     17  C   UNL     1       6.856  -2.528  -1.827  0.00  0.00    +0.179 C 
ATOM     18  C   UNL     1       6.228  -2.470  -3.230  0.00  0.00    +0.201 C 
BRANCH  17  19
ATOM     19  O   UNL     1       8.276  -2.696  -1.905  0.00  0.00    -0.386 OA
ATOM     20  H   UNL     1       8.410  -3.602  -2.243  0.00  0.00    +0.210 HD
ENDBRANCH  17  19
BRANCH  16  21
ATOM     21  O   UNL     1       6.780  -4.916  -1.441  0.00  0.00    -0.386 OA
ATOM     22  H   UNL     1       7.263  -5.291  -0.674  0.00  0.00    +0.210 HD
ENDBRANCH  16  21
BRANCH  18  23
ATOM     23  O   UNL     1       6.566  -3.655  -3.980  0.00  0.00    -0.384 OA
ATOM     24  H   UNL     1       6.502  -4.417  -3.365  0.00  0.00    +0.210 HD
ENDBRANCH  18  23
BRANCH  15  25
ATOM     25  C   UNL     1       3.883  -4.570  -0.148  0.00  0.00    +0.266 C 
BRANCH  25  26
ATOM     26  O   UNL     1       3.794  -4.124   1.241  0.00  0.00    -0.459 OA
BRANCH  26  27
ATOM     27  C   UNL     1       4.828  -4.486   2.027  0.00  0.00    +0.332 C 
ATOM     28  O   UNL     1       5.791  -5.141   1.646  0.00  0.00    -0.246 OA
BRANCH  27  29
ATOM     29  C   UNL     1       4.772  -4.028   3.437  0.00  0.00    +0.092 C 
ATOM     30  C   UNL     1       3.748  -3.589   4.198  0.00  0.00    +0.015 C 
BRANCH  30  31
ATOM     31  C   UNL     1       3.940  -3.331   5.645  0.00  0.00    -0.025 A 
ATOM     32  C   UNL     1       4.813  -4.136   6.406  0.00  0.00    +0.011 A 
ATOM     33  C   UNL     1       5.031  -3.886   7.764  0.00  0.00    +0.046 A 
ATOM     34  C   UNL     1       4.349  -2.850   8.384  0.00  0.00    +0.117 A 
ATOM     35  C   UNL     1       3.440  -2.076   7.673  0.00  0.00    +0.046 A 
ATOM     36  C   UNL     1       3.232  -2.315   6.302  0.00  0.00    +0.011 A 
BRANCH  34  37
ATOM     37  O   UNL     1       4.611  -2.634   9.707  0.00  0.00    -0.507 OA
ATOM     38  H   UNL     1       4.150  -1.828   9.991  0.00  0.00    +0.292 HD
ENDBRANCH  34  37
ENDBRANCH  30  31
ENDBRANCH  27  29
ENDBRANCH  26  27
ENDBRANCH  25  26
ENDBRANCH  15  25
ENDBRANCH  12  13
ENDBRANCH   5  12
BRANCH   4  39
ATOM     39  O   UNL     1       3.979   1.700  -2.028  0.00  0.00    -0.453 OA
BRANCH  39  40
ATOM     40  C   UNL     1       3.851   2.767  -2.919  0.00  0.00    +0.214 A 
ATOM     41  C   UNL     1       2.909   2.595  -4.096  0.00  0.00    +0.238 A 
ATOM     42  O   UNL     1       2.404   1.503  -4.340  0.00  0.00    -0.283 OA
ATOM     43  C   UNL     1       2.659   3.743  -4.981  0.00  0.00    +0.109 A 
ATOM     44  C   UNL     1       3.471   4.848  -4.812  0.00  0.00    +0.147 A 
ATOM     45  C   UNL     1       3.350   5.964  -5.652  0.00  0.00    +0.092 A 
ATOM     46  C   UNL     1       2.384   5.968  -6.652  0.00  0.00    +0.124 A 
ATOM     47  C   UNL     1       1.551   4.872  -6.832  0.00  0.00    +0.091 A 
ATOM     48  O   UNL     1       4.429   4.916  -3.847  0.00  0.00    -0.451 OA
ATOM     49  C   UNL     1       1.691   3.758  -6.000  0.00  0.00    +0.135 A 
ATOM     50  C   UNL     1       4.611   3.901  -2.894  0.00  0.00    +0.181 A 
BRANCH  50  51
ATOM     51  C   UNL     1       5.771   4.319  -1.980  0.00  0.00    +0.025 A 
ATOM     52  C   UNL     1       6.538   5.463  -2.377  0.00  0.00    +0.015 A 
ATOM     53  C   UNL     1       7.653   5.942  -1.678  0.00  0.00    +0.050 A 
ATOM     54  C   UNL     1       8.043   5.294  -0.531  0.00  0.00    +0.158 A 
ATOM     55  C   UNL     1       7.311   4.205  -0.083  0.00  0.00    +0.159 A 
ATOM     56  C   UNL     1       6.186   3.707  -0.783  0.00  0.00    +0.060 A 
BRANCH  55  57
ATOM     57  O   UNL     1       7.745   3.646   1.103  0.00  0.00    -0.503 OA
ATOM     58  H   UNL     1       7.115   2.964   1.376  0.00  0.00    +0.292 HD
ENDBRANCH  55  57
BRANCH  54  59
ATOM     59  O   UNL     1       9.128   5.764   0.141  0.00  0.00    -0.503 OA
ATOM     60  H   UNL     1       9.224   5.177   0.930  0.00  0.00    +0.292 HD
ENDBRANCH  54  59
ENDBRANCH  50  51
BRANCH  49  61
ATOM     61  O   UNL     1       0.851   2.698  -6.193  0.00  0.00    -0.506 OA
ATOM     62  H   UNL     1       0.342   2.824  -7.012  0.00  0.00    +0.292 HD
ENDBRANCH  49  61
BRANCH  46  63
ATOM     63  O   UNL     1       2.209   7.032  -7.484  0.00  0.00    -0.507 OA
ATOM     64  H   UNL     1       2.810   7.751  -7.225  0.00  0.00    +0.292 HD
ENDBRANCH  46  63
ENDBRANCH  39  40
ENDBRANCH   4  39
TORSDOF 20
