REMARK  Name = 
REMARK  13 active torsions:
REMARK  status: ('A' for Active; 'I' for Inactive)
REMARK    1  A    between atoms: C_1  and  C_2
REMARK    2  A    between atoms: C_3  and  O_38
REMARK    3  A    between atoms: C_5  and  O_34
REMARK    4  A    between atoms: C_6  and  O_33
REMARK    5  A    between atoms: C_8  and  O_11
REMARK    6  A    between atoms: O_11  and  C_12
REMARK    7  A    between atoms: C_13  and  C_25
REMARK    8  A    between atoms: C_17  and  O_24
REMARK    9  A    between atoms: C_19  and  O_23
REMARK   10  A    between atoms: C_27  and  O_32
REMARK   11  A    between atoms: C_28  and  O_31
REMARK   12  A    between atoms: O_34  and  C_35
REMARK   13  A    between atoms: C_35  and  C_37
REMARK                            x       y       z     vdW  Elec       q    Type
REMARK                         _______ _______ _______ _____ _____    ______ ____
ROOT
ATOM      1  C   UNL     1       2.658   2.888  -3.314  0.00  0.00    +0.214 A 
ATOM      2  C   UNL     1       1.247   3.361  -3.122  0.00  0.00    +0.238 A 
ATOM      3  O   UNL     1       0.278   2.643  -3.339  0.00  0.00    -0.283 OA
ATOM      4  C   UNL     1       1.038   4.779  -2.820  0.00  0.00    +0.109 A 
ATOM      5  C   UNL     1       2.094   5.644  -3.076  0.00  0.00    +0.147 A 
ATOM      6  C   UNL     1       1.898   7.025  -2.988  0.00  0.00    +0.092 A 
ATOM      7  C   UNL     1       0.643   7.517  -2.633  0.00  0.00    +0.124 A 
ATOM      8  C   UNL     1      -0.408   6.659  -2.332  0.00  0.00    +0.091 A 
ATOM      9  O   UNL     1       3.340   5.208  -3.451  0.00  0.00    -0.451 OA
ATOM     10  C   UNL     1      -0.207   5.285  -2.416  0.00  0.00    +0.135 A 
ATOM     11  C   UNL     1       3.605   3.838  -3.498  0.00  0.00    +0.181 A 
ENDROOT
BRANCH  11  12
ATOM     12  C   UNL     1       5.033   3.549  -3.855  0.00  0.00    +0.025 A 
ATOM     13  C   UNL     1       5.750   4.465  -4.657  0.00  0.00    +0.015 A 
ATOM     14  C   UNL     1       7.088   4.244  -5.021  0.00  0.00    +0.050 A 
ATOM     15  C   UNL     1       7.727   3.092  -4.592  0.00  0.00    +0.158 A 
ATOM     16  C   UNL     1       7.047   2.169  -3.810  0.00  0.00    +0.159 A 
ATOM     17  C   UNL     1       5.721   2.393  -3.431  0.00  0.00    +0.060 A 
BRANCH  15  18
ATOM     18  O   UNL     1       9.029   2.875  -4.942  0.00  0.00    -0.503 OA
ATOM     19  H   UNL     1       9.255   2.027  -4.512  0.00  0.00    +0.292 HD
ENDBRANCH  15  18
BRANCH  16  20
ATOM     20  O   UNL     1       7.722   1.038  -3.435  0.00  0.00    -0.503 OA
ATOM     21  H   UNL     1       7.100   0.464  -2.954  0.00  0.00    +0.292 HD
ENDBRANCH  16  20
ENDBRANCH  11  12
BRANCH   7  22
ATOM     22  O   UNL     1       0.389   8.854  -2.565  0.00  0.00    -0.507 OA
ATOM     23  H   UNL     1       1.185   9.346  -2.823  0.00  0.00    +0.292 HD
ENDBRANCH   7  22
BRANCH  10  24
ATOM     24  O   UNL     1      -1.235   4.447  -2.088  0.00  0.00    -0.506 OA
ATOM     25  H   UNL     1      -2.057   4.951  -1.976  0.00  0.00    +0.292 HD
ENDBRANCH  10  24
BRANCH   1  26
ATOM     26  O   UNL     1       2.967   1.539  -3.419  0.00  0.00    -0.453 OA
BRANCH  26  30
ATOM     27  C   UNL     1      -0.894   0.094  -2.084  0.00  0.00    +0.041 C 
ATOM     28  C   UNL     1       0.442  -0.281  -1.441  0.00  0.00    +0.152 C 
ATOM     29  O   UNL     1       1.503   0.636  -1.773  0.00  0.00    -0.334 OA
ATOM     30  C   UNL     1       1.946   0.576  -3.137  0.00  0.00    +0.341 C 
ATOM     31  C   UNL     1       2.511  -0.823  -3.449  0.00  0.00    +0.226 C 
ATOM     32  C   UNL     1       1.380  -1.833  -3.204  0.00  0.00    +0.242 C 
ATOM     33  C   UNL     1       0.867  -1.727  -1.754  0.00  0.00    +0.186 C 
BRANCH  31  34
ATOM     34  O   UNL     1       3.658  -1.130  -2.629  0.00  0.00    -0.382 OA
ATOM     35  H   UNL     1       3.787  -2.095  -2.705  0.00  0.00    +0.210 HD
ENDBRANCH  31  34
BRANCH  33  36
ATOM     36  O   UNL     1       1.909  -2.111  -0.838  0.00  0.00    -0.385 OA
ATOM     37  H   UNL     1       2.591  -1.408  -0.890  0.00  0.00    +0.210 HD
ENDBRANCH  33  36
BRANCH  32  38
ATOM     38  O   UNL     1       1.886  -3.153  -3.493  0.00  0.00    -0.456 OA
BRANCH  38  39
ATOM     39  C   UNL     1       0.918  -4.077  -3.750  0.00  0.00    +0.304 C 
ATOM     40  C   UNL     1       1.530  -5.402  -4.083  0.00  0.00    +0.136 C 
ATOM     41  O   UNL     1      -0.285  -3.853  -3.760  0.00  0.00    -0.251 OA
ENDBRANCH  38  39
ENDBRANCH  32  38
ENDBRANCH  26  30
ENDBRANCH   1  26
TORSDOF 11
