REMARK  Name = 
REMARK  16 active torsions:
REMARK  status: ('A' for Active; 'I' for Inactive)
REMARK    1  A    between atoms: C_1  and  C_2
REMARK    2  A    between atoms: C_3  and  O_48
REMARK    3  A    between atoms: C_5  and  O_47
REMARK    4  A    between atoms: C_7  and  O_46
REMARK    5  A    between atoms: C_8  and  O_11
REMARK    6  A    between atoms: O_11  and  C_12
REMARK    7  A    between atoms: C_14  and  O_45
REMARK    8  A    between atoms: C_19  and  C_37
REMARK    9  A    between atoms: C_20  and  O_23
REMARK   10  A    between atoms: O_23  and  C_24
REMARK   11  A    between atoms: C_26  and  O_36
REMARK   12  A    between atoms: C_28  and  O_35
REMARK   13  A    between atoms: C_29  and  O_34
REMARK   14  A    between atoms: C_31  and  C_33
REMARK   15  A    between atoms: C_39  and  O_44
REMARK   16  A    between atoms: C_40  and  O_43
REMARK                            x       y       z     vdW  Elec       q    Type
REMARK                         _______ _______ _______ _____ _____    ______ ____
ROOT
ATOM      1  C   UNL     1       2.722   2.881  -3.271  0.00  0.00    +0.131 A 
ATOM      2  C   UNL     1       1.480   3.401  -2.874  0.00  0.00    +0.093 A 
ATOM      3  C   UNL     1       1.294   4.789  -2.772  0.00  0.00    +0.147 A 
ATOM      4  O   UNL     1       0.069   5.268  -2.364  0.00  0.00    -0.451 OA
ATOM      5  C   UNL     1      -0.188   6.648  -2.447  0.00  0.00    +0.181 A 
ATOM      6  C   UNL     1       0.766   7.576  -2.695  0.00  0.00    +0.214 A 
ATOM      7  C   UNL     1       2.165   7.050  -2.757  0.00  0.00    +0.238 A 
ATOM      8  O   UNL     1       3.154   7.754  -2.539  0.00  0.00    -0.283 OA
ATOM      9  C   UNL     1       2.354   5.636  -3.054  0.00  0.00    +0.109 A 
ATOM     10  C   UNL     1       3.573   5.129  -3.506  0.00  0.00    +0.135 A 
ATOM     11  C   UNL     1       3.761   3.758  -3.611  0.00  0.00    +0.092 A 
ENDROOT
BRANCH   5  12
ATOM     12  C   UNL     1      -1.625   6.982  -2.178  0.00  0.00    +0.025 A 
ATOM     13  C   UNL     1      -2.644   6.067  -2.512  0.00  0.00    +0.015 A 
ATOM     14  C   UNL     1      -3.986   6.320  -2.200  0.00  0.00    +0.050 A 
ATOM     15  C   UNL     1      -4.323   7.498  -1.552  0.00  0.00    +0.158 A 
ATOM     16  C   UNL     1      -3.341   8.417  -1.213  0.00  0.00    +0.159 A 
ATOM     17  C   UNL     1      -2.002   8.162  -1.507  0.00  0.00    +0.060 A 
BRANCH  15  18
ATOM     18  O   UNL     1      -5.630   7.744  -1.240  0.00  0.00    -0.503 OA
ATOM     19  H   UNL     1      -5.613   8.608  -0.781  0.00  0.00    +0.292 HD
ENDBRANCH  15  18
BRANCH  16  20
ATOM     20  O   UNL     1      -3.738   9.563  -0.578  0.00  0.00    -0.503 OA
ATOM     21  H   UNL     1      -2.958  10.132  -0.462  0.00  0.00    +0.292 HD
ENDBRANCH  16  20
ENDBRANCH   5  12
BRANCH  10  22
ATOM     22  O   UNL     1       4.592   5.968  -3.865  0.00  0.00    -0.506 OA
ATOM     23  H   UNL     1       5.409   5.463  -4.009  0.00  0.00    +0.292 HD
ENDBRANCH  10  22
BRANCH   1  24
ATOM     24  O   UNL     1       3.095   1.574  -3.356  0.00  0.00    -0.461 OA
BRANCH  24  28
ATOM     25  C   UNL     1      -0.562  -0.134  -1.881  0.00  0.00    +0.041 C 
ATOM     26  C   UNL     1       0.805  -0.361  -1.240  0.00  0.00    +0.150 C 
ATOM     27  O   UNL     1       1.729   0.652  -1.666  0.00  0.00    -0.334 OA
ATOM     28  C   UNL     1       2.142   0.557  -3.033  0.00  0.00    +0.339 C 
ATOM     29  C   UNL     1       2.859  -0.797  -3.247  0.00  0.00    +0.214 C 
ATOM     30  C   UNL     1       1.866  -1.924  -2.931  0.00  0.00    +0.180 C 
ATOM     31  C   UNL     1       1.342  -1.784  -1.488  0.00  0.00    +0.174 C 
BRANCH  29  32
ATOM     32  O   UNL     1       3.995  -0.887  -2.351  0.00  0.00    -0.383 OA
ATOM     33  H   UNL     1       4.312   0.028  -2.218  0.00  0.00    +0.210 HD
ENDBRANCH  29  32
BRANCH  30  34
ATOM     34  O   UNL     1       2.452  -3.206  -3.175  0.00  0.00    -0.386 OA
ATOM     35  H   UNL     1       2.200  -3.797  -2.442  0.00  0.00    +0.210 HD
ENDBRANCH  30  34
BRANCH  31  36
ATOM     36  O   UNL     1       2.380  -2.075  -0.542  0.00  0.00    -0.387 OA
ATOM     37  H   UNL     1       3.174  -1.568  -0.825  0.00  0.00    +0.210 HD
ENDBRANCH  31  36
ENDBRANCH  24  28
ENDBRANCH   1  24
BRANCH   6  38
ATOM     38  O   UNL     1       0.489   8.938  -2.880  0.00  0.00    -0.453 OA
BRANCH  38  39
ATOM     39  C   UNL     1       1.513   9.878  -2.502  0.00  0.00    +0.339 C 
ATOM     40  O   UNL     1       0.943  11.008  -1.813  0.00  0.00    -0.334 OA
ATOM     41  C   UNL     1       0.358  12.018  -2.634  0.00  0.00    +0.150 C 
ATOM     42  C   UNL     1      -0.108  13.136  -1.703  0.00  0.00    +0.041 C 
ATOM     43  C   UNL     1       1.361  12.564  -3.650  0.00  0.00    +0.174 C 
ATOM     44  C   UNL     1       1.837  11.419  -4.539  0.00  0.00    +0.180 C 
ATOM     45  C   UNL     1       2.444  10.304  -3.686  0.00  0.00    +0.214 C 
BRANCH  43  46
ATOM     46  O   UNL     1       0.769  13.613  -4.422  0.00  0.00    -0.387 OA
ATOM     47  H   UNL     1       0.654  13.287  -5.333  0.00  0.00    +0.210 HD
ENDBRANCH  43  46
BRANCH  44  48
ATOM     48  O   UNL     1       2.787  11.941  -5.488  0.00  0.00    -0.386 OA
ATOM     49  H   UNL     1       3.631  12.089  -5.026  0.00  0.00    +0.210 HD
ENDBRANCH  44  48
BRANCH  45  50
ATOM     50  O   UNL     1       2.815   9.239  -4.571  0.00  0.00    -0.383 OA
ATOM     51  H   UNL     1       3.362   8.621  -4.040  0.00  0.00    +0.210 HD
ENDBRANCH  45  50
ENDBRANCH  38  39
ENDBRANCH   6  38
TORSDOF 14
