REMARK  Name = 
REMARK  14 active torsions:
REMARK  status: ('A' for Active; 'I' for Inactive)
REMARK    1  A    between atoms: C_1  and  O_2
REMARK    2  A    between atoms: O_2  and  C_3
REMARK    3  A    between atoms: C_5  and  O_24
REMARK    4  A    between atoms: C_11  and  O_22
REMARK    5  A    between atoms: C_12  and  C_14
REMARK    6  A    between atoms: C_16  and  O_21
REMARK    7  A    between atoms: C_17  and  O_20
REMARK    8  A    between atoms: O_22  and  C_23
REMARK    9  A    between atoms: O_24  and  C_25
REMARK   10  A    between atoms: C_27  and  O_38
REMARK   11  A    between atoms: C_28  and  O_37
REMARK   12  A    between atoms: C_30  and  O_36
REMARK   13  A    between atoms: C_32  and  C_34
REMARK   14  A    between atoms: C_34  and  O_35
REMARK                            x       y       z     vdW  Elec       q    Type
REMARK                         _______ _______ _______ _____ _____    ______ ____
ROOT
ATOM      1  C   UNL     1       2.921  -0.480   1.180  0.00  0.00    +0.138 A 
ATOM      2  C   UNL     1       3.675   0.318   2.053  0.00  0.00    +0.109 A 
ATOM      3  C   UNL     1       3.896   1.746   1.789  0.00  0.00    +0.238 A 
ATOM      4  C   UNL     1       4.578   2.544   2.846  0.00  0.00    +0.211 A 
ATOM      5  C   UNL     1       5.035   1.894   3.943  0.00  0.00    +0.181 A 
ATOM      6  O   UNL     1       4.933   0.511   4.127  0.00  0.00    -0.451 OA
ATOM      7  O   UNL     1       3.558   2.259   0.728  0.00  0.00    -0.283 OA
ATOM      8  C   UNL     1       4.258  -0.245   3.190  0.00  0.00    +0.147 A 
ATOM      9  C   UNL     1       4.159  -1.632   3.415  0.00  0.00    +0.093 A 
ATOM     10  C   UNL     1       3.456  -2.447   2.516  0.00  0.00    +0.131 A 
ATOM     11  C   UNL     1       2.835  -1.850   1.419  0.00  0.00    +0.092 A 
ENDROOT
BRANCH   5  12
ATOM     12  C   UNL     1       5.795   2.610   5.021  0.00  0.00    +0.025 A 
ATOM     13  C   UNL     1       6.836   1.978   5.727  0.00  0.00    +0.015 A 
ATOM     14  C   UNL     1       7.655   2.696   6.613  0.00  0.00    +0.050 A 
ATOM     15  C   UNL     1       7.452   4.058   6.781  0.00  0.00    +0.158 A 
ATOM     16  C   UNL     1       6.397   4.690   6.138  0.00  0.00    +0.159 A 
ATOM     17  C   UNL     1       5.542   3.966   5.323  0.00  0.00    +0.060 A 
BRANCH  15  18
ATOM     18  O   UNL     1       8.315   4.784   7.551  0.00  0.00    -0.503 OA
ATOM     19  H   UNL     1       8.014   5.709   7.451  0.00  0.00    +0.292 HD
ENDBRANCH  15  18
BRANCH  16  20
ATOM     20  O   UNL     1       6.269   6.044   6.296  0.00  0.00    -0.503 OA
ATOM     21  H   UNL     1       5.686   6.366   5.585  0.00  0.00    +0.292 HD
ENDBRANCH  16  20
ENDBRANCH   5  12
BRANCH   1  23
ATOM     22  C   UNL     1       1.190  -0.564  -0.466  0.00  0.00    +0.277 C 
ATOM     23  O   UNL     1       2.319   0.099   0.095  0.00  0.00    -0.494 OA
ENDBRANCH   1  23
BRANCH   4  24
ATOM     24  O   UNL     1       4.813   3.902   2.660  0.00  0.00    -0.488 OA
ATOM     25  C   UNL     1       3.879   4.631   1.869  0.00  0.00    +0.277 C 
ENDBRANCH   4  24
BRANCH  10  26
ATOM     26  O   UNL     1       3.398  -3.800   2.777  0.00  0.00    -0.461 OA
BRANCH  26  27
ATOM     27  C   UNL     1       2.788  -4.622   1.743  0.00  0.00    +0.339 C 
ATOM     28  O   UNL     1       1.381  -4.376   1.613  0.00  0.00    -0.331 OA
ATOM     29  C   UNL     1       0.622  -4.691   2.795  0.00  0.00    +0.179 C 
ATOM     30  C   UNL     1       0.771  -6.182   3.161  0.00  0.00    +0.177 C 
ATOM     31  C   UNL     1       2.257  -6.560   3.269  0.00  0.00    +0.180 C 
ATOM     32  C   UNL     1       3.013  -6.123   2.010  0.00  0.00    +0.214 C 
BRANCH  30  33
ATOM     33  O   UNL     1       0.144  -6.987   2.156  0.00  0.00    -0.386 OA
ATOM     34  H   UNL     1       0.240  -7.924   2.405  0.00  0.00    +0.210 HD
ENDBRANCH  30  33
BRANCH  31  35
ATOM     35  O   UNL     1       2.856  -5.994   4.443  0.00  0.00    -0.386 OA
ATOM     36  H   UNL     1       3.056  -5.051   4.274  0.00  0.00    +0.210 HD
ENDBRANCH  31  35
BRANCH  32  37
ATOM     37  O   UNL     1       4.402  -6.447   2.114  0.00  0.00    -0.383 OA
ATOM     38  H   UNL     1       4.656  -6.320   3.045  0.00  0.00    +0.210 HD
ENDBRANCH  32  37
BRANCH  29  39
ATOM     39  C   UNL     1      -0.845  -4.310   2.534  0.00  0.00    +0.190 C 
BRANCH  39  40
ATOM     40  O   UNL     1      -0.990  -2.909   2.274  0.00  0.00    -0.392 OA
ATOM     41  H   UNL     1      -0.444  -2.422   2.911  0.00  0.00    +0.210 HD
ENDBRANCH  39  40
ENDBRANCH  29  39
ENDBRANCH  26  27
ENDBRANCH  10  26
TORSDOF 12
