REMARK  Name = 
REMARK  22 active torsions:
REMARK  status: ('A' for Active; 'I' for Inactive)
REMARK    1  A    between atoms: C_3  and  O_61
REMARK    2  A    between atoms: C_6  and  C_7
REMARK    3  A    between atoms: C_8  and  C_9
REMARK    4  A    between atoms: C_9  and  O_11
REMARK    5  A    between atoms: O_11  and  C_12
REMARK    6  A    between atoms: C_12  and  C_13
REMARK    7  A    between atoms: C_14  and  O_60
REMARK    8  A    between atoms: C_16  and  O_59
REMARK    9  A    between atoms: C_18  and  O_58
REMARK   10  A    between atoms: C_19  and  O_22
REMARK   11  A    between atoms: O_22  and  C_23
REMARK   12  A    between atoms: C_24  and  C_50
REMARK   13  A    between atoms: C_28  and  O_35
REMARK   14  A    between atoms: C_30  and  O_34
REMARK   15  A    between atoms: O_35  and  C_36
REMARK   16  A    between atoms: C_38  and  O_49
REMARK   17  A    between atoms: C_39  and  O_48
REMARK   18  A    between atoms: C_41  and  O_47
REMARK   19  A    between atoms: C_43  and  C_45
REMARK   20  A    between atoms: C_45  and  O_46
REMARK   21  A    between atoms: C_52  and  O_57
REMARK   22  A    between atoms: C_53  and  O_56
REMARK                            x       y       z     vdW  Elec       q    Type
REMARK                         _______ _______ _______ _____ _____    ______ ____
ROOT
ATOM      1  C   UNL     1      -8.324   0.640  -3.975  0.00  0.00    +0.214 A 
ATOM      2  C   UNL     1      -6.969   0.059  -3.680  0.00  0.00    +0.238 A 
ATOM      3  O   UNL     1      -5.958   0.749  -3.621  0.00  0.00    -0.283 OA
ATOM      4  C   UNL     1      -6.849  -1.382  -3.491  0.00  0.00    +0.109 A 
ATOM      5  C   UNL     1      -7.976  -2.160  -3.707  0.00  0.00    +0.147 A 
ATOM      6  C   UNL     1      -7.881  -3.552  -3.566  0.00  0.00    +0.093 A 
ATOM      7  C   UNL     1      -6.659  -4.151  -3.219  0.00  0.00    +0.131 A 
ATOM      8  C   UNL     1      -5.531  -3.359  -3.023  0.00  0.00    +0.092 A 
ATOM      9  O   UNL     1      -9.196  -1.624  -4.058  0.00  0.00    -0.451 OA
ATOM     10  C   UNL     1      -5.629  -1.980  -3.131  0.00  0.00    +0.135 A 
ATOM     11  C   UNL     1      -9.336  -0.236  -4.170  0.00  0.00    +0.181 A 
ENDROOT
BRANCH  11  12
ATOM     12  C   UNL     1     -10.731   0.204  -4.507  0.00  0.00    +0.025 A 
ATOM     13  C   UNL     1     -11.844  -0.509  -4.018  0.00  0.00    +0.015 A 
ATOM     14  C   UNL     1     -13.157  -0.093  -4.293  0.00  0.00    +0.050 A 
ATOM     15  C   UNL     1     -13.369   1.045  -5.053  0.00  0.00    +0.158 A 
ATOM     16  C   UNL     1     -12.292   1.754  -5.567  0.00  0.00    +0.159 A 
ATOM     17  C   UNL     1     -10.987   1.329  -5.321  0.00  0.00    +0.060 A 
BRANCH  16  18
ATOM     18  O   UNL     1     -12.562   2.873  -6.308  0.00  0.00    -0.503 OA
ATOM     19  H   UNL     1     -11.714   3.277  -6.563  0.00  0.00    +0.292 HD
ENDBRANCH  16  18
BRANCH  15  20
ATOM     20  O   UNL     1     -14.643   1.473  -5.292  0.00  0.00    -0.503 OA
ATOM     21  H   UNL     1     -14.533   2.290  -5.819  0.00  0.00    +0.292 HD
ENDBRANCH  15  20
ENDBRANCH  11  12
BRANCH  10  22
ATOM     22  O   UNL     1      -4.520  -1.230  -2.856  0.00  0.00    -0.506 OA
ATOM     23  H   UNL     1      -3.763  -1.792  -2.629  0.00  0.00    +0.292 HD
ENDBRANCH  10  22
BRANCH   7  24
ATOM     24  O   UNL     1      -6.410  -5.484  -3.021  0.00  0.00    -0.461 OA
BRANCH  24  25
ATOM     25  C   UNL     1      -7.549  -6.337  -2.855  0.00  0.00    +0.339 C 
ATOM     26  O   UNL     1      -8.277  -6.005  -1.670  0.00  0.00    -0.331 OA
ATOM     27  C   UNL     1      -7.568  -6.278  -0.445  0.00  0.00    +0.179 C 
ATOM     28  C   UNL     1      -7.238  -7.779  -0.342  0.00  0.00    +0.177 C 
ATOM     29  C   UNL     1      -6.382  -8.193  -1.544  0.00  0.00    +0.180 C 
ATOM     30  C   UNL     1      -7.084  -7.813  -2.854  0.00  0.00    +0.214 C 
BRANCH  30  31
ATOM     31  O   UNL     1      -6.227  -8.108  -3.967  0.00  0.00    -0.383 OA
ATOM     32  H   UNL     1      -5.316  -7.887  -3.691  0.00  0.00    +0.210 HD
ENDBRANCH  30  31
BRANCH  29  33
ATOM     33  O   UNL     1      -5.067  -7.621  -1.473  0.00  0.00    -0.386 OA
ATOM     34  H   UNL     1      -5.114  -6.680  -1.725  0.00  0.00    +0.210 HD
ENDBRANCH  29  33
BRANCH  28  35
ATOM     35  O   UNL     1      -8.454  -8.534  -0.326  0.00  0.00    -0.386 OA
ATOM     36  H   UNL     1      -8.236  -9.481  -0.275  0.00  0.00    +0.210 HD
ENDBRANCH  28  35
BRANCH  27  37
ATOM     37  C   UNL     1      -8.438  -5.815   0.735  0.00  0.00    +0.190 C 
BRANCH  37  38
ATOM     38  O   UNL     1      -8.608  -4.395   0.741  0.00  0.00    -0.392 OA
ATOM     39  H   UNL     1      -7.745  -3.980   0.582  0.00  0.00    +0.210 HD
ENDBRANCH  37  38
ENDBRANCH  27  37
ENDBRANCH  24  25
ENDBRANCH   7  24
BRANCH   1  40
ATOM     40  O   UNL     1      -8.541   2.024  -4.059  0.00  0.00    -0.453 OA
BRANCH  40  43
ATOM     41  C   UNL     1      -6.676   4.898  -2.834  0.00  0.00    +0.191 C 
ATOM     42  O   UNL     1      -7.800   4.197  -3.430  0.00  0.00    -0.330 OA
ATOM     43  C   UNL     1      -7.411   2.857  -3.808  0.00  0.00    +0.340 C 
ATOM     44  C   UNL     1      -6.533   3.013  -5.067  0.00  0.00    +0.214 C 
ATOM     45  C   UNL     1      -5.214   3.623  -4.589  0.00  0.00    +0.180 C 
ATOM     46  C   UNL     1      -5.447   4.923  -3.795  0.00  0.00    +0.178 C 
BRANCH  46  47
ATOM     47  O   UNL     1      -4.229   5.256  -3.122  0.00  0.00    -0.386 OA
ATOM     48  H   UNL     1      -4.099   6.218  -3.208  0.00  0.00    +0.210 HD
ENDBRANCH  46  47
BRANCH  45  49
ATOM     49  O   UNL     1      -4.348   3.887  -5.706  0.00  0.00    -0.386 OA
ATOM     50  H   UNL     1      -3.541   4.289  -5.338  0.00  0.00    +0.210 HD
ENDBRANCH  45  49
BRANCH  44  51
ATOM     51  O   UNL     1      -7.197   3.867  -6.027  0.00  0.00    -0.383 OA
ATOM     52  H   UNL     1      -7.717   4.509  -5.509  0.00  0.00    +0.210 HD
ENDBRANCH  44  51
BRANCH  41  53
ATOM     53  C   UNL     1      -6.421   4.409  -1.382  0.00  0.00    +0.266 C 
BRANCH  53  54
ATOM     54  O   UNL     1      -7.626   4.528  -0.573  0.00  0.00    -0.459 OA
BRANCH  54  55
ATOM     55  C   UNL     1      -7.861   5.773  -0.065  0.00  0.00    +0.332 C 
ATOM     56  O   UNL     1      -7.166   6.757  -0.268  0.00  0.00    -0.246 OA
BRANCH  55  58
ATOM     57  C   UNL     1      -9.438   6.872   1.425  0.00  0.00    +0.015 C 
ATOM     58  C   UNL     1      -9.087   5.752   0.769  0.00  0.00    +0.092 C 
BRANCH  57  60
ATOM     59  C   UNL     1     -11.824   6.378   2.086  0.00  0.00    +0.011 A 
ATOM     60  C   UNL     1     -10.613   7.051   2.296  0.00  0.00    -0.025 A 
ATOM     61  C   UNL     1     -10.550   8.004   3.330  0.00  0.00    +0.011 A 
ATOM     62  C   UNL     1     -11.658   8.264   4.139  0.00  0.00    +0.046 A 
ATOM     63  C   UNL     1     -12.846   7.585   3.913  0.00  0.00    +0.117 A 
ATOM     64  C   UNL     1     -12.938   6.639   2.897  0.00  0.00    +0.046 A 
BRANCH  63  65
ATOM     65  O   UNL     1     -13.913   7.885   4.707  0.00  0.00    -0.507 OA
ATOM     66  H   UNL     1     -14.687   7.393   4.387  0.00  0.00    +0.292 HD
ENDBRANCH  63  65
ENDBRANCH  57  60
ENDBRANCH  55  58
ENDBRANCH  54  55
ENDBRANCH  53  54
ENDBRANCH  41  53
ENDBRANCH  40  43
ENDBRANCH   1  40
TORSDOF 22
