REMARK  Name = 
REMARK  16 active torsions:
REMARK  status: ('A' for Active; 'I' for Inactive)
REMARK    1  A    between atoms: C_2  and  O_47
REMARK    2  A    between atoms: C_4  and  O_46
REMARK    3  A    between atoms: C_5  and  O_45
REMARK    4  A    between atoms: C_7  and  O_10
REMARK    5  A    between atoms: O_10  and  C_11
REMARK    6  A    between atoms: C_12  and  O_23
REMARK    7  A    between atoms: C_15  and  C_21
REMARK    8  A    between atoms: C_16  and  O_20
REMARK    9  A    between atoms: C_18  and  O_19
REMARK   10  A    between atoms: C_21  and  O_22
REMARK   11  A    between atoms: O_23  and  C_24
REMARK   12  A    between atoms: C_25  and  C_37
REMARK   13  A    between atoms: C_29  and  O_36
REMARK   14  A    between atoms: C_31  and  O_35
REMARK   15  A    between atoms: C_39  and  O_44
REMARK   16  A    between atoms: C_40  and  O_43
REMARK                            x       y       z     vdW  Elec       q    Type
REMARK                         _______ _______ _______ _____ _____    ______ ____
ROOT
ATOM      1  C   UNL     1       2.759  -2.167  -0.455  0.00  0.00    +0.221 C 
ATOM      2  C   UNL     1       2.873  -1.319  -1.738  0.00  0.00    +0.180 C 
ATOM      3  C   UNL     1       2.119  -1.968  -2.911  0.00  0.00    +0.177 C 
ATOM      4  C   UNL     1       2.515  -3.430  -3.111  0.00  0.00    +0.179 C 
ATOM      5  O   UNL     1       2.413  -4.135  -1.878  0.00  0.00    -0.331 OA
ATOM      6  C   UNL     1       3.163  -3.631  -0.770  0.00  0.00    +0.340 C 
ENDROOT
BRANCH   3   7
ATOM      7  O   UNL     1       2.264  -1.215  -4.112  0.00  0.00    -0.386 OA
ATOM      8  H   UNL     1       1.656  -1.592  -4.772  0.00  0.00    +0.210 HD
ENDBRANCH   3   7
BRANCH   2   9
ATOM      9  O   UNL     1       4.258  -1.087  -2.056  0.00  0.00    -0.386 OA
ATOM     10  H   UNL     1       4.789  -1.873  -1.834  0.00  0.00    +0.210 HD
ENDBRANCH   2   9
BRANCH   6  11
ATOM     11  O   UNL     1       4.588  -3.764  -0.905  0.00  0.00    -0.453 OA
BRANCH  11  12
ATOM     12  C   UNL     1       5.123  -5.009  -0.543  0.00  0.00    +0.214 A 
ATOM     13  C   UNL     1       4.316  -6.278  -0.658  0.00  0.00    +0.238 A 
ATOM     14  O   UNL     1       3.117  -6.277  -0.886  0.00  0.00    -0.283 OA
ATOM     15  C   UNL     1       4.994  -7.560  -0.448  0.00  0.00    +0.109 A 
ATOM     16  C   UNL     1       6.334  -7.524  -0.075  0.00  0.00    +0.147 A 
ATOM     17  C   UNL     1       7.034  -8.715   0.100  0.00  0.00    +0.092 A 
ATOM     18  C   UNL     1       6.384  -9.931  -0.087  0.00  0.00    +0.124 A 
ATOM     19  C   UNL     1       5.037  -9.982  -0.425  0.00  0.00    +0.091 A 
ATOM     20  O   UNL     1       6.994  -6.359   0.184  0.00  0.00    -0.451 OA
ATOM     21  C   UNL     1       4.339  -8.793  -0.608  0.00  0.00    +0.135 A 
ATOM     22  C   UNL     1       6.385  -5.130  -0.071  0.00  0.00    +0.181 A 
BRANCH  22  23
ATOM     23  C   UNL     1       7.296  -3.992   0.284  0.00  0.00    +0.025 A 
ATOM     24  C   UNL     1       8.695  -4.196   0.260  0.00  0.00    +0.015 A 
ATOM     25  C   UNL     1       9.591  -3.225   0.722  0.00  0.00    +0.050 A 
ATOM     26  C   UNL     1       9.100  -2.024   1.202  0.00  0.00    +0.158 A 
ATOM     27  C   UNL     1       7.729  -1.784   1.219  0.00  0.00    +0.159 A 
ATOM     28  C   UNL     1       6.833  -2.759   0.777  0.00  0.00    +0.060 A 
BRANCH  27  29
ATOM     29  O   UNL     1       7.311  -0.577   1.705  0.00  0.00    -0.503 OA
ATOM     30  H   UNL     1       6.343  -0.517   1.602  0.00  0.00    +0.292 HD
ENDBRANCH  27  29
BRANCH  26  31
ATOM     31  O   UNL     1       9.970  -1.087   1.675  0.00  0.00    -0.503 OA
ATOM     32  H   UNL     1       9.401  -0.345   1.965  0.00  0.00    +0.292 HD
ENDBRANCH  26  31
ENDBRANCH  22  23
BRANCH  21  33
ATOM     33  O   UNL     1       3.015  -8.858  -0.933  0.00  0.00    -0.506 OA
ATOM     34  H   UNL     1       2.715  -9.779  -0.978  0.00  0.00    +0.292 HD
ENDBRANCH  21  33
BRANCH  18  35
ATOM     35  O   UNL     1       7.026 -11.125   0.064  0.00  0.00    -0.507 OA
ATOM     36  H   UNL     1       7.962 -10.958   0.254  0.00  0.00    +0.292 HD
ENDBRANCH  18  35
ENDBRANCH  11  12
ENDBRANCH   6  11
BRANCH   4  37
ATOM     37  C   UNL     1       3.853  -3.707  -3.813  0.00  0.00    +0.190 C 
BRANCH  37  38
ATOM     38  O   UNL     1       4.002  -5.119  -4.019  0.00  0.00    -0.392 OA
ATOM     39  H   UNL     1       3.595  -5.559  -3.243  0.00  0.00    +0.210 HD
ENDBRANCH  37  38
ENDBRANCH   4  37
BRANCH   1  40
ATOM     40  O   UNL     1       1.438  -2.055   0.138  0.00  0.00    -0.337 OA
BRANCH  40  43
ATOM     41  C   UNL     1      -0.402  -3.828   2.711  0.00  0.00    +0.197 C 
ATOM     42  O   UNL     1      -0.144  -2.816   1.729  0.00  0.00    -0.346 OA
ATOM     43  C   UNL     1       1.236  -2.847   1.328  0.00  0.00    +0.282 C 
ATOM     44  C   UNL     1       2.101  -2.402   2.535  0.00  0.00    +0.201 C 
ATOM     45  C   UNL     1       1.862  -3.372   3.703  0.00  0.00    +0.178 C 
ATOM     46  C   UNL     1       0.373  -3.564   4.006  0.00  0.00    +0.171 C 
BRANCH  46  47
ATOM     47  O   UNL     1       0.225  -4.673   4.895  0.00  0.00    -0.387 OA
ATOM     48  H   UNL     1      -0.672  -4.643   5.271  0.00  0.00    +0.210 HD
ENDBRANCH  46  47
BRANCH  45  49
ATOM     49  O   UNL     1       2.588  -2.927   4.859  0.00  0.00    -0.386 OA
ATOM     50  H   UNL     1       2.372  -1.992   5.022  0.00  0.00    +0.210 HD
ENDBRANCH  45  49
BRANCH  44  51
ATOM     51  O   UNL     1       3.511  -2.372   2.256  0.00  0.00    -0.384 OA
ATOM     52  H   UNL     1       3.891  -3.232   2.509  0.00  0.00    +0.210 HD
ENDBRANCH  44  51
ENDBRANCH  40  43
ENDBRANCH   1  40
TORSDOF 16
