REMARK  Name = 
REMARK  24 active torsions:
REMARK  status: ('A' for Active; 'I' for Inactive)
REMARK    1  A    between atoms: C_1  and  O_2
REMARK    2  A    between atoms: O_2  and  C_3
REMARK    3  A    between atoms: C_4  and  O_63
REMARK    4  A    between atoms: C_7  and  C_9
REMARK    5  A    between atoms: C_10  and  C_11
REMARK    6  A    between atoms: C_11  and  O_13
REMARK    7  A    between atoms: O_13  and  C_14
REMARK    8  A    between atoms: C_15  and  O_62
REMARK    9  A    between atoms: C_17  and  O_61
REMARK   10  A    between atoms: C_19  and  C_59
REMARK   11  A    between atoms: C_21  and  O_23
REMARK   12  A    between atoms: O_23  and  C_24
REMARK   13  A    between atoms: C_25  and  O_58
REMARK   14  A    between atoms: C_27  and  O_57
REMARK   15  A    between atoms: C_29  and  C_55
REMARK   16  A    between atoms: C_31  and  O_33
REMARK   17  A    between atoms: O_33  and  C_34
REMARK   18  A    between atoms: C_35  and  C_47
REMARK   19  A    between atoms: C_39  and  O_46
REMARK   20  A    between atoms: C_41  and  O_45
REMARK   21  A    between atoms: C_49  and  O_54
REMARK   22  A    between atoms: C_50  and  O_53
REMARK   23  A    between atoms: C_55  and  O_56
REMARK   24  A    between atoms: C_59  and  O_60
REMARK                            x       y       z     vdW  Elec       q    Type
REMARK                         _______ _______ _______ _____ _____    ______ ____
ROOT
ATOM      1  C   UNL     1       2.962  -6.311  -6.990  0.00  0.00    +0.221 C 
ATOM      2  C   UNL     1       1.556  -5.830  -7.393  0.00  0.00    +0.340 C 
ATOM      3  O   UNL     1       0.549  -6.771  -7.042  0.00  0.00    -0.331 OA
ATOM      4  C   UNL     1       0.670  -8.112  -7.538  0.00  0.00    +0.179 C 
ATOM      5  C   UNL     1       2.108  -8.657  -7.458  0.00  0.00    +0.177 C 
ATOM      6  C   UNL     1       3.146  -7.599  -7.857  0.00  0.00    +0.180 C 
ENDROOT
BRANCH   6   7
ATOM      7  O   UNL     1       4.468  -8.165  -7.787  0.00  0.00    -0.386 OA
ATOM      8  H   UNL     1       4.996  -7.754  -8.498  0.00  0.00    +0.210 HD
ENDBRANCH   6   7
BRANCH   5   9
ATOM      9  O   UNL     1       2.292  -9.814  -8.282  0.00  0.00    -0.386 OA
ATOM     10  H   UNL     1       3.227 -10.071  -8.168  0.00  0.00    +0.210 HD
ENDBRANCH   5   9
BRANCH   4  11
ATOM     11  C   UNL     1       0.006  -8.354  -8.911  0.00  0.00    +0.190 C 
BRANCH  11  12
ATOM     12  O   UNL     1      -1.363  -7.945  -8.908  0.00  0.00    -0.392 OA
ATOM     13  H   UNL     1      -1.609  -7.816  -9.840  0.00  0.00    +0.210 HD
ENDBRANCH  11  12
ENDBRANCH   4  11
BRANCH   2  14
ATOM     14  O   UNL     1       1.148  -4.520  -6.953  0.00  0.00    -0.453 OA
BRANCH  14  15
ATOM     15  C   UNL     1       0.275  -3.879  -7.854  0.00  0.00    +0.214 A 
ATOM     16  C   UNL     1       0.085  -4.410  -9.254  0.00  0.00    +0.238 A 
ATOM     17  O   UNL     1       0.182  -5.588  -9.572  0.00  0.00    -0.283 OA
ATOM     18  C   UNL     1      -0.312  -3.514 -10.303  0.00  0.00    +0.109 A 
ATOM     19  C   UNL     1      -0.963  -2.368  -9.900  0.00  0.00    +0.147 A 
ATOM     20  C   UNL     1      -1.454  -1.509 -10.879  0.00  0.00    +0.092 A 
ATOM     21  C   UNL     1      -1.299  -1.851 -12.234  0.00  0.00    +0.124 A 
ATOM     22  C   UNL     1      -0.664  -3.021 -12.630  0.00  0.00    +0.091 A 
ATOM     23  O   UNL     1      -1.197  -2.091  -8.574  0.00  0.00    -0.451 OA
ATOM     24  C   UNL     1      -0.148  -3.851 -11.657  0.00  0.00    +0.135 A 
ATOM     25  C   UNL     1      -0.541  -2.829  -7.557  0.00  0.00    +0.181 A 
BRANCH  25  26
ATOM     26  C   UNL     1      -0.993  -2.387  -6.172  0.00  0.00    +0.025 A 
ATOM     27  C   UNL     1      -2.050  -1.442  -6.070  0.00  0.00    +0.015 A 
ATOM     28  C   UNL     1      -2.719  -1.176  -4.863  0.00  0.00    +0.050 A 
ATOM     29  C   UNL     1      -2.333  -1.842  -3.719  0.00  0.00    +0.158 A 
ATOM     30  C   UNL     1      -1.237  -2.695  -3.752  0.00  0.00    +0.159 A 
ATOM     31  C   UNL     1      -0.567  -2.969  -4.960  0.00  0.00    +0.060 A 
BRANCH  30  32
ATOM     32  O   UNL     1      -0.870  -3.276  -2.566  0.00  0.00    -0.503 OA
ATOM     33  H   UNL     1      -0.009  -3.710  -2.694  0.00  0.00    +0.292 HD
ENDBRANCH  30  32
BRANCH  29  34
ATOM     34  O   UNL     1      -3.057  -1.678  -2.572  0.00  0.00    -0.503 OA
ATOM     35  H   UNL     1      -2.721  -2.365  -1.962  0.00  0.00    +0.292 HD
ENDBRANCH  29  34
ENDBRANCH  25  26
BRANCH  24  36
ATOM     36  O   UNL     1       0.521  -4.980 -12.044  0.00  0.00    -0.506 OA
ATOM     37  H   UNL     1       0.284  -5.210 -12.957  0.00  0.00    +0.292 HD
ENDBRANCH  24  36
BRANCH  21  38
ATOM     38  O   UNL     1      -1.766  -1.054 -13.233  0.00  0.00    -0.507 OA
ATOM     39  H   UNL     1      -2.180  -0.268 -12.845  0.00  0.00    +0.292 HD
ENDBRANCH  21  38
ENDBRANCH  14  15
ENDBRANCH   2  14
BRANCH   1  40
ATOM     40  O   UNL     1       3.078  -6.498  -5.575  0.00  0.00    -0.336 OA
BRANCH  40  42
ATOM     41  C   UNL     1       5.567  -6.400  -5.629  0.00  0.00    +0.263 C 
ATOM     42  C   UNL     1       4.285  -7.145  -5.166  0.00  0.00    +0.295 C 
ATOM     43  O   UNL     1       4.268  -7.332  -3.746  0.00  0.00    -0.340 OA
ATOM     44  C   UNL     1       5.379  -8.123  -3.278  0.00  0.00    +0.178 C 
ATOM     45  C   UNL     1       6.683  -7.381  -3.604  0.00  0.00    +0.178 C 
ATOM     46  C   UNL     1       6.802  -7.137  -5.112  0.00  0.00    +0.191 C 
BRANCH  46  47
ATOM     47  O   UNL     1       8.029  -6.436  -5.367  0.00  0.00    -0.385 OA
ATOM     48  H   UNL     1       7.972  -6.047  -6.266  0.00  0.00    +0.210 HD
ENDBRANCH  46  47
BRANCH  45  49
ATOM     49  O   UNL     1       7.830  -8.095  -3.150  0.00  0.00    -0.386 OA
ATOM     50  H   UNL     1       8.590  -7.605  -3.527  0.00  0.00    +0.210 HD
ENDBRANCH  45  49
BRANCH  41  51
ATOM     51  O   UNL     1       5.544  -5.040  -5.158  0.00  0.00    -0.450 OA
BRANCH  51  52
ATOM     52  C   UNL     1       6.239  -4.153  -5.935  0.00  0.00    +0.332 C 
ATOM     53  O   UNL     1       6.870  -4.438  -6.943  0.00  0.00    -0.246 OA
BRANCH  52  55
ATOM     54  C   UNL     1       6.868  -1.790  -5.819  0.00  0.00    +0.015 C 
ATOM     55  C   UNL     1       6.121  -2.812  -5.346  0.00  0.00    +0.092 C 
BRANCH  54  58
ATOM     56  C   UNL     1       6.559   1.091  -3.373  0.00  0.00    +0.162 A 
ATOM     57  C   UNL     1       6.560  -0.203  -3.897  0.00  0.00    +0.057 A 
ATOM     58  C   UNL     1       6.837  -0.432  -5.255  0.00  0.00    -0.021 A 
ATOM     59  C   UNL     1       7.147   0.663  -6.075  0.00  0.00    +0.012 A 
ATOM     60  C   UNL     1       7.127   1.963  -5.564  0.00  0.00    +0.050 A 
ATOM     61  C   UNL     1       6.822   2.166  -4.225  0.00  0.00    +0.158 A 
BRANCH  61  62
ATOM     62  O   UNL     1       6.806   3.448  -3.749  0.00  0.00    -0.503 OA
ATOM     63  H   UNL     1       6.563   3.368  -2.806  0.00  0.00    +0.292 HD
ENDBRANCH  61  62
BRANCH  56  65
ATOM     64  C   UNL     1       6.561   0.363  -1.129  0.00  0.00    +0.277 C 
ATOM     65  O   UNL     1       6.299   1.408  -2.064  0.00  0.00    -0.491 OA
ENDBRANCH  56  65
ENDBRANCH  54  58
ENDBRANCH  52  55
ENDBRANCH  51  52
ENDBRANCH  41  51
BRANCH  44  66
ATOM     66  C   UNL     1       5.365  -9.584  -3.799  0.00  0.00    +0.190 C 
BRANCH  66  67
ATOM     67  O   UNL     1       4.121 -10.229  -3.539  0.00  0.00    -0.392 OA
ATOM     68  H   UNL     1       3.957 -10.181  -2.581  0.00  0.00    +0.210 HD
ENDBRANCH  66  67
ENDBRANCH  44  66
ENDBRANCH  40  42
ENDBRANCH   1  40
TORSDOF 23
