REMARK  Name = 
REMARK  13 active torsions:
REMARK  status: ('A' for Active; 'I' for Inactive)
REMARK    1  A    between atoms: C_1  and  O_2
REMARK    2  A    between atoms: O_2  and  C_3
REMARK    3  A    between atoms: C_4  and  C_30
REMARK    4  A    between atoms: C_8  and  O_15
REMARK    5  A    between atoms: C_10  and  O_14
REMARK    6  A    between atoms: O_15  and  C_16
REMARK    7  A    between atoms: C_18  and  O_29
REMARK    8  A    between atoms: C_19  and  O_28
REMARK    9  A    between atoms: C_21  and  O_27
REMARK   10  A    between atoms: C_23  and  C_25
REMARK   11  A    between atoms: C_25  and  O_26
REMARK   12  A    between atoms: C_32  and  O_37
REMARK   13  A    between atoms: C_33  and  O_36
REMARK                            x       y       z     vdW  Elec       q    Type
REMARK                         _______ _______ _______ _____ _____    ______ ____
ROOT
ATOM      1  C   UNL     1       2.946   0.893  -0.452  0.00  0.00    +0.211 A 
ATOM      2  C   UNL     1       2.609   2.301  -0.049  0.00  0.00    +0.238 A 
ATOM      3  O   UNL     1       1.892   2.547   0.915  0.00  0.00    -0.283 OA
ATOM      4  C   UNL     1       3.223   3.391  -0.852  0.00  0.00    +0.109 A 
ATOM      5  C   UNL     1       4.298   3.050  -1.665  0.00  0.00    +0.147 A 
ATOM      6  C   UNL     1       4.987   4.027  -2.390  0.00  0.00    +0.093 A 
ATOM      7  C   UNL     1       4.572   5.354  -2.340  0.00  0.00    +0.131 A 
ATOM      8  C   UNL     1       3.481   5.709  -1.532  0.00  0.00    +0.092 A 
ATOM      9  O   UNL     1       4.758   1.768  -1.800  0.00  0.00    -0.451 OA
ATOM     10  C   UNL     1       2.802   4.724  -0.803  0.00  0.00    +0.135 A 
ATOM     11  C   UNL     1       3.995   0.738  -1.284  0.00  0.00    +0.181 A 
ENDROOT
BRANCH  11  12
ATOM     12  C   UNL     1       4.453  -0.582  -1.769  0.00  0.00    +0.025 A 
ATOM     13  C   UNL     1       3.963  -1.076  -2.988  0.00  0.00    +0.015 A 
ATOM     14  C   UNL     1       4.452  -2.272  -3.522  0.00  0.00    +0.050 A 
ATOM     15  C   UNL     1       5.432  -2.968  -2.834  0.00  0.00    +0.158 A 
ATOM     16  C   UNL     1       5.917  -2.497  -1.615  0.00  0.00    +0.159 A 
ATOM     17  C   UNL     1       5.434  -1.307  -1.073  0.00  0.00    +0.060 A 
BRANCH  15  18
ATOM     18  O   UNL     1       5.930  -4.122  -3.370  0.00  0.00    -0.503 OA
ATOM     19  H   UNL     1       6.616  -4.412  -2.737  0.00  0.00    +0.292 HD
ENDBRANCH  15  18
BRANCH  16  20
ATOM     20  O   UNL     1       6.886  -3.240  -0.997  0.00  0.00    -0.503 OA
ATOM     21  H   UNL     1       7.096  -2.819  -0.146  0.00  0.00    +0.292 HD
ENDBRANCH  16  20
ENDBRANCH  11  12
BRANCH   1  23
ATOM     22  C   UNL     1       0.872  -0.010   0.294  0.00  0.00    +0.277 C 
ATOM     23  O   UNL     1       2.265  -0.204   0.062  0.00  0.00    -0.488 OA
ENDBRANCH   1  23
BRANCH  10  24
ATOM     24  O   UNL     1       1.714   5.085  -0.060  0.00  0.00    -0.506 OA
ATOM     25  H   UNL     1       1.658   6.049   0.019  0.00  0.00    +0.292 HD
ENDBRANCH  10  24
BRANCH   7  26
ATOM     26  O   UNL     1       5.233   6.363  -2.989  0.00  0.00    -0.461 OA
BRANCH  26  27
ATOM     27  C   UNL     1       5.461   6.132  -4.398  0.00  0.00    +0.339 C 
ATOM     28  O   UNL     1       6.581   5.290  -4.670  0.00  0.00    -0.331 OA
ATOM     29  C   UNL     1       7.853   5.824  -4.256  0.00  0.00    +0.179 C 
ATOM     30  C   UNL     1       8.141   7.224  -4.849  0.00  0.00    +0.177 C 
ATOM     31  C   UNL     1       6.956   8.163  -4.607  0.00  0.00    +0.180 C 
ATOM     32  C   UNL     1       5.660   7.492  -5.103  0.00  0.00    +0.214 C 
BRANCH  30  33
ATOM     33  O   UNL     1       8.390   7.134  -6.256  0.00  0.00    -0.386 OA
ATOM     34  H   UNL     1       8.622   8.026  -6.574  0.00  0.00    +0.210 HD
ENDBRANCH  30  33
BRANCH  31  35
ATOM     35  O   UNL     1       6.927   8.530  -3.221  0.00  0.00    -0.386 OA
ATOM     36  H   UNL     1       6.436   7.846  -2.728  0.00  0.00    +0.210 HD
ENDBRANCH  31  35
BRANCH  32  37
ATOM     37  O   UNL     1       4.548   8.376  -4.928  0.00  0.00    -0.383 OA
ATOM     38  H   UNL     1       3.739   7.891  -5.163  0.00  0.00    +0.210 HD
ENDBRANCH  32  37
BRANCH  29  39
ATOM     39  C   UNL     1       8.942   4.822  -4.682  0.00  0.00    +0.190 C 
BRANCH  39  40
ATOM     40  O   UNL     1       8.742   3.531  -4.102  0.00  0.00    -0.392 OA
ATOM     41  H   UNL     1       8.481   3.648  -3.175  0.00  0.00    +0.210 HD
ENDBRANCH  39  40
ENDBRANCH  29  39
ENDBRANCH  26  27
ENDBRANCH   7  26
TORSDOF 12
