REMARK  Name = 
REMARK  26 active torsions:
REMARK  status: ('A' for Active; 'I' for Inactive)
REMARK    1  A    between atoms: C_1  and  C_2
REMARK    2  A    between atoms: C_3  and  O_72
REMARK    3  A    between atoms: C_5  and  O_59
REMARK    4  A    between atoms: C_6  and  O_58
REMARK    5  A    between atoms: C_8  and  O_11
REMARK    6  A    between atoms: O_11  and  C_12
REMARK    7  A    between atoms: C_12  and  C_13
REMARK    8  A    between atoms: C_14  and  O_57
REMARK    9  A    between atoms: C_16  and  O_56
REMARK   10  A    between atoms: C_18  and  O_44
REMARK   11  A    between atoms: C_19  and  O_22
REMARK   12  A    between atoms: O_22  and  C_23
REMARK   13  A    between atoms: C_24  and  C_36
REMARK   14  A    between atoms: C_28  and  O_35
REMARK   15  A    between atoms: C_30  and  O_34
REMARK   16  A    between atoms: C_38  and  O_43
REMARK   17  A    between atoms: C_39  and  O_42
REMARK   18  A    between atoms: O_44  and  C_45
REMARK   19  A    between atoms: C_47  and  O_55
REMARK   20  A    between atoms: C_49  and  C_52
REMARK   21  A    between atoms: C_49  and  O_54
REMARK   22  A    between atoms: C_52  and  O_53
REMARK   23  A    between atoms: O_59  and  C_60
REMARK   24  A    between atoms: C_62  and  O_71
REMARK   25  A    between atoms: C_63  and  O_70
REMARK   26  A    between atoms: C_65  and  O_69
REMARK                            x       y       z     vdW  Elec       q    Type
REMARK                         _______ _______ _______ _____ _____    ______ ____
ROOT
ATOM      1  C   UNL     1       3.292   3.765  -4.433  0.00  0.00    +0.179 C 
ATOM      2  O   UNL     1       3.782   4.796  -3.542  0.00  0.00    -0.331 OA
ATOM      3  C   UNL     1       2.855   5.785  -3.081  0.00  0.00    +0.340 C 
ATOM      4  C   UNL     1       1.775   6.309  -4.067  0.00  0.00    +0.221 C 
ATOM      5  C   UNL     1       1.187   5.087  -4.775  0.00  0.00    +0.180 C 
ATOM      6  C   UNL     1       2.311   4.340  -5.492  0.00  0.00    +0.177 C 
ENDROOT
BRANCH   6   7
ATOM      7  O   UNL     1       1.696   3.338  -6.313  0.00  0.00    -0.386 OA
ATOM      8  H   UNL     1       2.393   2.960  -6.881  0.00  0.00    +0.210 HD
ENDBRANCH   6   7
BRANCH   5   9
ATOM      9  O   UNL     1       0.124   5.414  -5.675  0.00  0.00    -0.386 OA
ATOM     10  H   UNL     1       0.036   4.625  -6.254  0.00  0.00    +0.210 HD
ENDBRANCH   5   9
BRANCH   4  11
ATOM     11  O   UNL     1       2.287   7.322  -4.964  0.00  0.00    -0.337 OA
BRANCH  11  12
ATOM     12  C   UNL     1       1.291   7.941  -5.793  0.00  0.00    +0.282 C 
ATOM     13  O   UNL     1       1.838   9.024  -6.569  0.00  0.00    -0.346 OA
ATOM     14  C   UNL     1       0.775   9.988  -6.791  0.00  0.00    +0.202 C 
ATOM     15  C   UNL     1      -0.454   9.535  -5.991  0.00  0.00    +0.142 C 
ATOM     16  C   UNL     1       0.173   8.595  -4.971  0.00  0.00    +0.206 C 
BRANCH  15  17
ATOM     17  O   UNL     1      -1.374   8.805  -6.825  0.00  0.00    -0.381 OA
ATOM     18  H   UNL     1      -0.879   8.242  -7.446  0.00  0.00    +0.210 HD
ENDBRANCH  15  17
BRANCH  16  19
ATOM     19  O   UNL     1       0.740   9.324  -3.859  0.00  0.00    -0.384 OA
ATOM     20  H   UNL     1       1.655   8.988  -3.753  0.00  0.00    +0.210 HD
ENDBRANCH  16  19
BRANCH  15  21
ATOM     21  C   UNL     1      -1.232  10.692  -5.346  0.00  0.00    +0.195 C 
BRANCH  21  22
ATOM     22  O   UNL     1      -0.416  11.552  -4.556  0.00  0.00    -0.392 OA
ATOM     23  H   UNL     1       0.110  10.956  -3.976  0.00  0.00    +0.210 HD
ENDBRANCH  21  22
ENDBRANCH  15  21
ENDBRANCH  11  12
ENDBRANCH   4  11
BRANCH   3  24
ATOM     24  O   UNL     1       3.361   6.849  -2.251  0.00  0.00    -0.453 OA
BRANCH  24  25
ATOM     25  C   UNL     1       4.346   7.782  -2.458  0.00  0.00    +0.214 A 
ATOM     26  C   UNL     1       5.318   7.812  -3.620  0.00  0.00    +0.238 A 
ATOM     27  O   UNL     1       5.467   6.839  -4.351  0.00  0.00    -0.283 OA
ATOM     28  C   UNL     1       6.050   9.098  -3.837  0.00  0.00    +0.109 A 
ATOM     29  C   UNL     1       6.178   9.953  -2.739  0.00  0.00    +0.147 A 
ATOM     30  C   UNL     1       6.873  11.172  -2.798  0.00  0.00    +0.092 A 
ATOM     31  C   UNL     1       7.433  11.566  -4.002  0.00  0.00    +0.124 A 
ATOM     32  C   UNL     1       7.295  10.761  -5.130  0.00  0.00    +0.091 A 
ATOM     33  O   UNL     1       5.574   9.666  -1.554  0.00  0.00    -0.451 OA
ATOM     34  C   UNL     1       6.608   9.537  -5.047  0.00  0.00    +0.135 A 
ATOM     35  C   UNL     1       4.472   8.830  -1.610  0.00  0.00    +0.181 A 
BRANCH  35  36
ATOM     36  C   UNL     1       3.322   9.396  -0.869  0.00  0.00    +0.025 A 
ATOM     37  C   UNL     1       3.116  10.781  -1.061  0.00  0.00    +0.015 A 
ATOM     38  C   UNL     1       1.995  11.428  -0.568  0.00  0.00    +0.050 A 
ATOM     39  C   UNL     1       1.013  10.671   0.037  0.00  0.00    +0.158 A 
ATOM     40  C   UNL     1       1.174   9.299   0.211  0.00  0.00    +0.159 A 
ATOM     41  C   UNL     1       2.360   8.664  -0.168  0.00  0.00    +0.060 A 
BRANCH  40  42
ATOM     42  O   UNL     1       0.084   8.597   0.639  0.00  0.00    -0.503 OA
ATOM     43  H   UNL     1       0.366   7.767   1.035  0.00  0.00    +0.292 HD
ENDBRANCH  40  42
BRANCH  39  44
ATOM     44  O   UNL     1      -0.156  11.276   0.392  0.00  0.00    -0.503 OA
ATOM     45  H   UNL     1      -0.577  11.513  -0.453  0.00  0.00    +0.292 HD
ENDBRANCH  39  44
ENDBRANCH  35  36
BRANCH  34  46
ATOM     46  O   UNL     1       6.461   8.789  -6.183  0.00  0.00    -0.506 OA
ATOM     47  H   UNL     1       6.853   9.259  -6.936  0.00  0.00    +0.292 HD
ENDBRANCH  34  46
BRANCH  31  48
ATOM     48  O   UNL     1       8.119  12.737  -4.120  0.00  0.00    -0.507 OA
ATOM     49  H   UNL     1       8.176  13.171  -3.251  0.00  0.00    +0.292 HD
ENDBRANCH  31  48
ENDBRANCH  24  25
ENDBRANCH   3  24
BRANCH   1  50
ATOM     50  C   UNL     1       2.676   2.501  -3.739  0.00  0.00    +0.197 C 
BRANCH  50  51
ATOM     51  O   UNL     1       3.586   1.634  -3.067  0.00  0.00    -0.346 OA
BRANCH  51  55
ATOM     52  C   UNL     1       5.939   1.069   0.458  0.00  0.00    +0.041 C 
ATOM     53  C   UNL     1       4.615   0.351   0.199  0.00  0.00    +0.149 C 
ATOM     54  O   UNL     1       4.250   0.446  -1.191  0.00  0.00    -0.343 OA
ATOM     55  C   UNL     1       3.754   1.723  -1.652  0.00  0.00    +0.282 C 
ATOM     56  C   UNL     1       2.510   2.103  -0.812  0.00  0.00    +0.202 C 
ATOM     57  C   UNL     1       2.951   2.172   0.658  0.00  0.00    +0.186 C 
ATOM     58  C   UNL     1       3.485   0.819   1.141  0.00  0.00    +0.174 C 
BRANCH  58  59
ATOM     59  O   UNL     1       2.430  -0.153   1.160  0.00  0.00    -0.387 OA
ATOM     60  H   UNL     1       2.212  -0.359   0.234  0.00  0.00    +0.210 HD
ENDBRANCH  58  59
BRANCH  56  61
ATOM     61  O   UNL     1       1.421   1.176  -0.960  0.00  0.00    -0.384 OA
ATOM     62  H   UNL     1       0.851   1.296  -0.172  0.00  0.00    +0.210 HD
ENDBRANCH  56  61
BRANCH  57  63
ATOM     63  O   UNL     1       1.850   2.717   1.405  0.00  0.00    -0.340 OA
BRANCH  63  64
ATOM     64  C   UNL     1       2.106   3.024   2.788  0.00  0.00    +0.282 C 
ATOM     65  O   UNL     1       0.923   3.629   3.337  0.00  0.00    -0.346 OA
ATOM     66  C   UNL     1       0.585   4.892   2.748  0.00  0.00    +0.197 C 
ATOM     67  C   UNL     1       1.731   5.916   2.818  0.00  0.00    +0.171 C 
ATOM     68  C   UNL     1       3.036   5.316   2.301  0.00  0.00    +0.178 C 
ATOM     69  C   UNL     1       3.298   3.987   3.032  0.00  0.00    +0.201 C 
BRANCH  69  70
ATOM     70  O   UNL     1       4.561   3.414   2.672  0.00  0.00    -0.384 OA
ATOM     71  H   UNL     1       5.064   4.081   2.168  0.00  0.00    +0.210 HD
ENDBRANCH  69  70
BRANCH  68  72
ATOM     72  O   UNL     1       2.971   5.172   0.876  0.00  0.00    -0.386 OA
ATOM     73  H   UNL     1       2.238   4.558   0.680  0.00  0.00    +0.210 HD
ENDBRANCH  68  72
BRANCH  67  74
ATOM     74  O   UNL     1       1.900   6.368   4.159  0.00  0.00    -0.387 OA
ATOM     75  H   UNL     1       2.666   6.969   4.188  0.00  0.00    +0.210 HD
ENDBRANCH  67  74
ENDBRANCH  63  64
ENDBRANCH  57  63
ENDBRANCH  51  55
ENDBRANCH  50  51
ENDBRANCH   1  50
TORSDOF 25
