REMARK  Name = 
REMARK  18 active torsions:
REMARK  status: ('A' for Active; 'I' for Inactive)
REMARK    1  A    between atoms: C_3  and  O_51
REMARK    2  A    between atoms: C_4  and  O_50
REMARK    3  A    between atoms: C_6  and  C_7
REMARK    4  A    between atoms: C_8  and  O_20
REMARK    5  A    between atoms: C_12  and  O_19
REMARK    6  A    between atoms: C_14  and  O_18
REMARK    7  A    between atoms: O_20  and  C_21
REMARK    8  A    between atoms: C_23  and  O_35
REMARK    9  A    between atoms: C_24  and  O_34
REMARK   10  A    between atoms: C_26  and  O_33
REMARK   11  A    between atoms: C_28  and  C_30
REMARK   12  A    between atoms: C_30  and  O_32
REMARK   13  A    between atoms: O_35  and  C_36
REMARK   14  A    between atoms: C_38  and  O_49
REMARK   15  A    between atoms: C_39  and  O_48
REMARK   16  A    between atoms: C_41  and  O_47
REMARK   17  A    between atoms: C_43  and  C_45
REMARK   18  A    between atoms: C_45  and  O_46
REMARK                            x       y       z     vdW  Elec       q    Type
REMARK                         _______ _______ _______ _____ _____    ______ ____
ROOT
ATOM      1  C   UNL     1      -4.252  -0.737  -1.258  0.00  0.00    +0.340 C 
ATOM      2  O   UNL     1      -4.131   0.208  -2.400  0.00  0.00    -0.322 OA
ATOM      3  C   UNL     1      -3.486  -0.243  -3.632  0.00  0.00    +0.261 C 
ATOM      4  C   UNL     1      -2.247  -1.168  -3.505  0.00  0.00    +0.185 C 
ATOM      5  C   UNL     1      -2.509  -2.154  -2.395  0.00  0.00    +0.181 C 
ATOM      6  C   UNL     1      -2.866  -1.374  -1.096  0.00  0.00    +0.221 C 
ENDROOT
BRANCH   5   7
ATOM      7  O   UNL     1      -3.527  -2.947  -2.984  0.00  0.00    -0.386 OA
ATOM      8  H   UNL     1      -4.023  -3.404  -2.282  0.00  0.00    +0.210 HD
ENDBRANCH   5   7
BRANCH   4   9
ATOM      9  O   UNL     1      -1.013  -0.508  -3.231  0.00  0.00    -0.386 OA
ATOM     10  H   UNL     1      -0.312  -1.118  -3.546  0.00  0.00    +0.210 HD
ENDBRANCH   4   9
BRANCH   3  11
ATOM     11  C   UNL     1      -3.017   0.937  -4.504  0.00  0.00    +0.337 C 
ATOM     12  O   UNL     1      -2.649   0.840  -5.667  0.00  0.00    -0.248 OA
BRANCH  11  13
ATOM     13  O   UNL     1      -3.018   2.115  -3.833  0.00  0.00    -0.479 OA
ATOM     14  H   UNL     1      -3.350   1.965  -2.922  0.00  0.00    +0.295 HD
ENDBRANCH  11  13
ENDBRANCH   3  11
BRANCH   6  15
ATOM     15  O   UNL     1      -2.483  -2.146   0.034  0.00  0.00    -0.337 OA
BRANCH  15  16
ATOM     16  C   UNL     1      -3.121  -2.022   1.297  0.00  0.00    +0.282 C 
ATOM     17  O   UNL     1      -2.802  -0.911   2.114  0.00  0.00    -0.341 OA
ATOM     18  C   UNL     1      -1.418  -0.791   2.437  0.00  0.00    +0.178 C 
ATOM     19  C   UNL     1      -0.764  -2.088   2.993  0.00  0.00    +0.177 C 
ATOM     20  C   UNL     1      -1.368  -3.409   2.472  0.00  0.00    +0.179 C 
ATOM     21  C   UNL     1      -2.839  -3.329   2.043  0.00  0.00    +0.201 C 
BRANCH  21  22
ATOM     22  O   UNL     1      -3.162  -4.451   1.197  0.00  0.00    -0.384 OA
ATOM     23  H   UNL     1      -2.806  -5.260   1.605  0.00  0.00    +0.210 HD
ENDBRANCH  21  22
BRANCH  20  24
ATOM     24  O   UNL     1      -0.541  -3.923   1.417  0.00  0.00    -0.386 OA
ATOM     25  H   UNL     1      -1.127  -4.098   0.653  0.00  0.00    +0.210 HD
ENDBRANCH  20  24
BRANCH  19  26
ATOM     26  O   UNL     1      -0.778  -2.141   4.426  0.00  0.00    -0.386 OA
ATOM     27  H   UNL     1      -0.109  -2.812   4.680  0.00  0.00    +0.210 HD
ENDBRANCH  19  26
BRANCH  18  28
ATOM     28  C   UNL     1      -1.256   0.432   3.370  0.00  0.00    +0.190 C 
BRANCH  28  29
ATOM     29  O   UNL     1      -0.027   1.110   3.125  0.00  0.00    -0.392 OA
ATOM     30  H   UNL     1       0.673   0.589   3.550  0.00  0.00    +0.210 HD
ENDBRANCH  28  29
ENDBRANCH  18  28
ENDBRANCH  15  16
ENDBRANCH   6  15
BRANCH   1  31
ATOM     31  O   UNL     1      -5.455  -1.559  -1.291  0.00  0.00    -0.453 OA
BRANCH  31  42
ATOM     32  C   UNL     1      -6.681  -2.302   0.779  0.00  0.00    +0.181 A 
ATOM     33  O   UNL     1      -7.304  -3.380   1.433  0.00  0.00    -0.451 OA
ATOM     34  C   UNL     1      -7.112  -4.671   1.085  0.00  0.00    +0.147 A 
ATOM     35  C   UNL     1      -6.151  -5.028   0.169  0.00  0.00    +0.109 A 
ATOM     36  C   UNL     1      -5.854  -6.389  -0.021  0.00  0.00    +0.135 A 
ATOM     37  C   UNL     1      -6.598  -7.393   0.603  0.00  0.00    +0.091 A 
ATOM     38  C   UNL     1      -7.649  -7.010   1.428  0.00  0.00    +0.124 A 
ATOM     39  C   UNL     1      -5.540  -3.948  -0.585  0.00  0.00    +0.238 A 
ATOM     40  O   UNL     1      -4.734  -4.292  -1.445  0.00  0.00    -0.283 OA
ATOM     41  C   UNL     1      -7.901  -5.659   1.678  0.00  0.00    +0.092 A 
ATOM     42  C   UNL     1      -5.876  -2.485  -0.320  0.00  0.00    +0.214 A 
BRANCH  32  44
ATOM     43  C   UNL     1      -8.111  -1.178   2.539  0.00  0.00    +0.015 A 
ATOM     44  C   UNL     1      -7.072  -1.043   1.567  0.00  0.00    +0.025 A 
ATOM     45  C   UNL     1      -6.393   0.183   1.604  0.00  0.00    +0.060 A 
ATOM     46  C   UNL     1      -6.725   1.189   2.535  0.00  0.00    +0.159 A 
ATOM     47  C   UNL     1      -7.752   1.000   3.463  0.00  0.00    +0.158 A 
ATOM     48  C   UNL     1      -8.454  -0.184   3.470  0.00  0.00    +0.050 A 
BRANCH  47  49
ATOM     49  O   UNL     1      -7.994   1.997   4.362  0.00  0.00    -0.503 OA
ATOM     50  H   UNL     1      -8.684   1.696   4.979  0.00  0.00    +0.292 HD
ENDBRANCH  47  49
BRANCH  46  51
ATOM     51  O   UNL     1      -6.023   2.351   2.565  0.00  0.00    -0.503 OA
ATOM     52  H   UNL     1      -6.415   2.867   3.297  0.00  0.00    +0.292 HD
ENDBRANCH  46  51
ENDBRANCH  32  44
BRANCH  38  53
ATOM     53  O   UNL     1      -8.450  -7.938   2.024  0.00  0.00    -0.507 OA
ATOM     54  H   UNL     1      -8.218  -8.819   1.690  0.00  0.00    +0.292 HD
ENDBRANCH  38  53
BRANCH  36  55
ATOM     55  O   UNL     1      -4.820  -6.837  -0.808  0.00  0.00    -0.506 OA
ATOM     56  H   UNL     1      -4.394  -6.048  -1.211  0.00  0.00    +0.292 HD
ENDBRANCH  36  55
ENDBRANCH  31  42
ENDBRANCH   1  31
TORSDOF 18
