REMARK  Name = 
REMARK  13 active torsions:
REMARK  status: ('A' for Active; 'I' for Inactive)
REMARK    1  A    between atoms: C_1  and  O_2
REMARK    2  A    between atoms: O_2  and  C_3
REMARK    3  A    between atoms: C_4  and  O_37
REMARK    4  A    between atoms: C_6  and  C_9
REMARK    5  A    between atoms: C_10  and  O_22
REMARK    6  A    between atoms: C_14  and  O_21
REMARK    7  A    between atoms: C_16  and  O_20
REMARK    8  A    between atoms: O_22  and  C_23
REMARK    9  A    between atoms: C_25  and  O_36
REMARK   10  A    between atoms: C_26  and  O_35
REMARK   11  A    between atoms: C_27  and  O_34
REMARK   12  A    between atoms: C_29  and  C_32
REMARK   13  A    between atoms: C_32  and  O_33
REMARK                            x       y       z     vdW  Elec       q    Type
REMARK                         _______ _______ _______ _____ _____    ______ ____
ROOT
ATOM      1  C   UNL     1       5.415   0.810  -4.841  0.00  0.00    +0.181 A 
ATOM      2  O   UNL     1       5.594   2.049  -5.454  0.00  0.00    -0.451 OA
ATOM      3  C   UNL     1       5.668   2.130  -6.812  0.00  0.00    +0.147 A 
ATOM      4  C   UNL     1       5.809   1.010  -7.613  0.00  0.00    +0.109 A 
ATOM      5  C   UNL     1       5.954   1.164  -8.995  0.00  0.00    +0.135 A 
ATOM      6  C   UNL     1       5.913   2.436  -9.569  0.00  0.00    +0.091 A 
ATOM      7  C   UNL     1       5.727   3.546  -8.756  0.00  0.00    +0.124 A 
ATOM      8  C   UNL     1       5.742  -0.308  -6.971  0.00  0.00    +0.238 A 
ATOM      9  O   UNL     1       5.900  -1.322  -7.650  0.00  0.00    -0.283 OA
ATOM     10  C   UNL     1       5.616   3.407  -7.377  0.00  0.00    +0.092 A 
ATOM     11  C   UNL     1       5.403  -0.368  -5.514  0.00  0.00    +0.214 A 
ENDROOT
BRANCH   1  15
ATOM     12  C   UNL     1       5.111   2.305  -0.868  0.00  0.00    +0.161 A 
ATOM     13  C   UNL     1       4.018   2.352  -1.725  0.00  0.00    +0.050 A 
ATOM     14  C   UNL     1       4.087   1.736  -2.980  0.00  0.00    +0.015 A 
ATOM     15  C   UNL     1       5.246   1.061  -3.391  0.00  0.00    +0.025 A 
ATOM     16  C   UNL     1       6.303   0.925  -2.489  0.00  0.00    +0.060 A 
ATOM     17  C   UNL     1       6.219   1.530  -1.229  0.00  0.00    +0.159 A 
BRANCH  12  19
ATOM     18  C   UNL     1       4.597   4.288   0.280  0.00  0.00    +0.277 C 
ATOM     19  O   UNL     1       5.175   2.973   0.330  0.00  0.00    -0.491 OA
ENDBRANCH  12  19
BRANCH  17  20
ATOM     20  O   UNL     1       7.276   1.401  -0.367  0.00  0.00    -0.503 OA
ATOM     21  H   UNL     1       7.006   1.872   0.446  0.00  0.00    +0.292 HD
ENDBRANCH  17  20
ENDBRANCH   1  15
BRANCH   5  22
ATOM     22  O   UNL     1       6.131   0.109  -9.847  0.00  0.00    -0.506 OA
ATOM     23  H   UNL     1       6.160  -0.715  -9.308  0.00  0.00    +0.292 HD
ENDBRANCH   5  22
BRANCH   7  24
ATOM     24  O   UNL     1       5.644   4.804  -9.273  0.00  0.00    -0.507 OA
ATOM     25  H   UNL     1       5.737   4.754 -10.240  0.00  0.00    +0.292 HD
ENDBRANCH   7  24
BRANCH  11  26
ATOM     26  O   UNL     1       5.120  -1.643  -5.052  0.00  0.00    -0.453 OA
BRANCH  26  27
ATOM     27  C   UNL     1       3.973  -1.781  -4.217  0.00  0.00    +0.340 C 
ATOM     28  O   UNL     1       4.346  -1.851  -2.840  0.00  0.00    -0.331 OA
ATOM     29  C   UNL     1       4.976  -3.074  -2.421  0.00  0.00    +0.179 C 
ATOM     30  C   UNL     1       4.029  -4.255  -2.658  0.00  0.00    +0.177 C 
ATOM     31  C   UNL     1       3.647  -4.337  -4.134  0.00  0.00    +0.180 C 
ATOM     32  C   UNL     1       3.094  -2.999  -4.626  0.00  0.00    +0.214 C 
BRANCH  30  33
ATOM     33  O   UNL     1       4.614  -5.491  -2.245  0.00  0.00    -0.386 OA
ATOM     34  H   UNL     1       4.038  -6.188  -2.621  0.00  0.00    +0.210 HD
ENDBRANCH  30  33
BRANCH  31  35
ATOM     35  O   UNL     1       2.654  -5.371  -4.280  0.00  0.00    -0.386 OA
ATOM     36  H   UNL     1       2.187  -5.190  -5.120  0.00  0.00    +0.210 HD
ENDBRANCH  31  35
BRANCH  32  37
ATOM     37  O   UNL     1       2.847  -3.091  -6.037  0.00  0.00    -0.383 OA
ATOM     38  H   UNL     1       3.701  -3.263  -6.480  0.00  0.00    +0.210 HD
ENDBRANCH  32  37
BRANCH  29  39
ATOM     39  C   UNL     1       6.378  -3.323  -3.022  0.00  0.00    +0.190 C 
BRANCH  39  40
ATOM     40  O   UNL     1       7.258  -2.223  -2.811  0.00  0.00    -0.392 OA
ATOM     41  H   UNL     1       7.190  -1.967  -1.873  0.00  0.00    +0.210 HD
ENDBRANCH  39  40
ENDBRANCH  29  39
ENDBRANCH  26  27
ENDBRANCH  11  26
TORSDOF 12
