REMARK  Name = 
REMARK  10 active torsions:
REMARK  status: ('A' for Active; 'I' for Inactive)
REMARK    1  A    between atoms: C_2  and  O_34
REMARK    2  A    between atoms: C_4  and  O_33
REMARK    3  A    between atoms: C_6  and  O_32
REMARK    4  A    between atoms: C_7  and  O_10
REMARK    5  A    between atoms: O_10  and  C_11
REMARK    6  A    between atoms: C_12  and  C_24
REMARK    7  A    between atoms: C_16  and  O_23
REMARK    8  A    between atoms: C_18  and  O_22
REMARK    9  A    between atoms: C_26  and  O_31
REMARK   10  A    between atoms: C_27  and  O_30
REMARK                            x       y       z     vdW  Elec       q    Type
REMARK                         _______ _______ _______ _____ _____    ______ ____
ROOT
ATOM      1  C   UNL     1       0.143  -2.353  -1.967  0.00  0.00    +0.214 A 
ATOM      2  C   UNL     1       0.060  -2.201  -3.467  0.00  0.00    +0.238 A 
ATOM      3  O   UNL     1       0.541  -1.200  -3.987  0.00  0.00    -0.283 OA
ATOM      4  C   UNL     1      -0.629  -3.267  -4.243  0.00  0.00    +0.109 A 
ATOM      5  C   UNL     1      -1.223  -4.292  -3.519  0.00  0.00    +0.147 A 
ATOM      6  C   UNL     1      -1.972  -5.292  -4.152  0.00  0.00    +0.092 A 
ATOM      7  C   UNL     1      -2.094  -5.283  -5.527  0.00  0.00    +0.124 A 
ATOM      8  C   UNL     1      -1.462  -4.297  -6.286  0.00  0.00    +0.091 A 
ATOM      9  O   UNL     1      -1.103  -4.414  -2.167  0.00  0.00    -0.451 OA
ATOM     10  C   UNL     1      -0.727  -3.293  -5.640  0.00  0.00    +0.135 A 
ATOM     11  C   UNL     1      -0.363  -3.494  -1.431  0.00  0.00    +0.181 A 
ENDROOT
BRANCH  11  12
ATOM     12  C   UNL     1      -0.205  -4.001  -0.031  0.00  0.00    +0.025 A 
ATOM     13  C   UNL     1      -1.145  -4.931   0.476  0.00  0.00    +0.015 A 
ATOM     14  C   UNL     1      -0.969  -5.555   1.714  0.00  0.00    +0.050 A 
ATOM     15  C   UNL     1       0.117  -5.210   2.490  0.00  0.00    +0.158 A 
ATOM     16  C   UNL     1       1.009  -4.239   2.056  0.00  0.00    +0.159 A 
ATOM     17  C   UNL     1       0.897  -3.689   0.781  0.00  0.00    +0.060 A 
BRANCH  15  18
ATOM     18  O   UNL     1       0.320  -5.840   3.684  0.00  0.00    -0.503 OA
ATOM     19  H   UNL     1       1.194  -5.524   3.984  0.00  0.00    +0.292 HD
ENDBRANCH  15  18
BRANCH  16  20
ATOM     20  O   UNL     1       1.985  -3.830   2.923  0.00  0.00    -0.503 OA
ATOM     21  H   UNL     1       2.163  -2.890   2.730  0.00  0.00    +0.292 HD
ENDBRANCH  16  20
ENDBRANCH  11  12
BRANCH   7  22
ATOM     22  O   UNL     1      -2.823  -6.222  -6.194  0.00  0.00    -0.507 OA
ATOM     23  H   UNL     1      -3.264  -6.802  -5.546  0.00  0.00    +0.292 HD
ENDBRANCH   7  22
BRANCH  10  24
ATOM     24  O   UNL     1      -0.103  -2.353  -6.408  0.00  0.00    -0.506 OA
ATOM     25  H   UNL     1      -0.258  -2.532  -7.349  0.00  0.00    +0.292 HD
ENDBRANCH  10  24
BRANCH   1  26
ATOM     26  O   UNL     1       0.835  -1.332  -1.337  0.00  0.00    -0.453 OA
BRANCH  26  29
ATOM     27  C   UNL     1       2.002   0.901   0.137  0.00  0.00    +0.198 C 
ATOM     28  O   UNL     1       1.355  -0.260   0.686  0.00  0.00    -0.337 OA
ATOM     29  C   UNL     1       0.290  -0.761  -0.153  0.00  0.00    +0.339 C 
ATOM     30  C   UNL     1      -0.790   0.317  -0.390  0.00  0.00    +0.214 C 
ATOM     31  C   UNL     1      -0.194   1.685  -0.764  0.00  0.00    +0.180 C 
ATOM     32  C   UNL     1       1.009   2.061   0.114  0.00  0.00    +0.171 C 
BRANCH  30  33
ATOM     33  O   UNL     1      -1.610   0.432   0.796  0.00  0.00    -0.383 OA
ATOM     34  H   UNL     1      -1.044   0.255   1.577  0.00  0.00    +0.210 HD
ENDBRANCH  30  33
BRANCH  31  35
ATOM     35  O   UNL     1       0.190   1.729  -2.143  0.00  0.00    -0.386 OA
ATOM     36  H   UNL     1       0.563   0.874  -2.434  0.00  0.00    +0.210 HD
ENDBRANCH  31  35
BRANCH  32  37
ATOM     37  O   UNL     1       0.596   2.350   1.459  0.00  0.00    -0.387 OA
ATOM     38  H   UNL     1       0.676   1.529   1.975  0.00  0.00    +0.210 HD
ENDBRANCH  32  37
ENDBRANCH  26  29
ENDBRANCH   1  26
TORSDOF 10
