REMARK  Name = 
REMARK  23 active torsions:
REMARK  status: ('A' for Active; 'I' for Inactive)
REMARK    1  A    between atoms: C_1  and  C_2
REMARK    2  A    between atoms: C_3  and  O_62
REMARK    3  A    between atoms: C_5  and  O_61
REMARK    4  A    between atoms: C_7  and  O_60
REMARK    5  A    between atoms: C_8  and  O_11
REMARK    6  A    between atoms: O_11  and  C_12
REMARK    7  A    between atoms: C_13  and  O_59
REMARK    8  A    between atoms: C_15  and  O_58
REMARK    9  A    between atoms: C_17  and  C_56
REMARK   10  A    between atoms: C_19  and  O_21
REMARK   11  A    between atoms: O_21  and  C_22
REMARK   12  A    between atoms: C_24  and  O_55
REMARK   13  A    between atoms: C_29  and  C_47
REMARK   14  A    between atoms: C_30  and  O_33
REMARK   15  A    between atoms: O_33  and  C_34
REMARK   16  A    between atoms: C_36  and  O_46
REMARK   17  A    between atoms: C_37  and  O_45
REMARK   18  A    between atoms: C_38  and  O_44
REMARK   19  A    between atoms: C_40  and  C_42
REMARK   20  A    between atoms: C_42  and  O_43
REMARK   21  A    between atoms: C_49  and  O_54
REMARK   22  A    between atoms: C_50  and  O_53
REMARK   23  A    between atoms: C_56  and  O_57
REMARK                            x       y       z     vdW  Elec       q    Type
REMARK                         _______ _______ _______ _____ _____    ______ ____
ROOT
ATOM      1  C   UNL     1       0.155   0.447  -2.885  0.00  0.00    +0.131 A 
ATOM      2  C   UNL     1      -0.130  -0.839  -2.383  0.00  0.00    +0.093 A 
ATOM      3  C   UNL     1      -0.692  -1.006  -1.092  0.00  0.00    +0.147 A 
ATOM      4  O   UNL     1      -0.933  -2.288  -0.614  0.00  0.00    -0.451 OA
ATOM      5  C   UNL     1      -1.294  -2.466   0.739  0.00  0.00    +0.181 A 
ATOM      6  C   UNL     1      -1.611  -1.440   1.571  0.00  0.00    +0.214 A 
ATOM      7  C   UNL     1      -1.663  -0.080   0.952  0.00  0.00    +0.238 A 
ATOM      8  O   UNL     1      -2.323   0.828   1.445  0.00  0.00    -0.283 OA
ATOM      9  C   UNL     1      -0.988   0.119  -0.335  0.00  0.00    +0.109 A 
ATOM     10  C   UNL     1      -0.702   1.392  -0.827  0.00  0.00    +0.135 A 
ATOM     11  C   UNL     1      -0.139   1.557  -2.094  0.00  0.00    +0.092 A 
ENDROOT
BRANCH   5  12
ATOM     12  C   UNL     1      -1.373  -3.909   1.170  0.00  0.00    +0.025 A 
ATOM     13  C   UNL     1      -1.083  -4.295   2.496  0.00  0.00    +0.015 A 
ATOM     14  C   UNL     1      -1.260  -5.607   2.955  0.00  0.00    +0.050 A 
ATOM     15  C   UNL     1      -1.681  -6.576   2.072  0.00  0.00    +0.158 A 
ATOM     16  C   UNL     1      -1.920  -6.248   0.741  0.00  0.00    +0.159 A 
ATOM     17  C   UNL     1      -1.771  -4.924   0.285  0.00  0.00    +0.060 A 
BRANCH  16  18
ATOM     18  O   UNL     1      -2.311  -7.273  -0.079  0.00  0.00    -0.503 OA
ATOM     19  H   UNL     1      -2.409  -6.921  -0.979  0.00  0.00    +0.292 HD
ENDBRANCH  16  18
BRANCH  15  20
ATOM     20  O   UNL     1      -1.855  -7.853   2.520  0.00  0.00    -0.503 OA
ATOM     21  H   UNL     1      -2.162  -8.356   1.740  0.00  0.00    +0.292 HD
ENDBRANCH  15  20
ENDBRANCH   5  12
BRANCH  10  22
ATOM     22  O   UNL     1      -0.937   2.512  -0.076  0.00  0.00    -0.506 OA
ATOM     23  H   UNL     1      -0.761   3.316  -0.590  0.00  0.00    +0.292 HD
ENDBRANCH  10  22
BRANCH   6  24
ATOM     24  O   UNL     1      -1.983  -1.636   2.916  0.00  0.00    -0.453 OA
BRANCH  24  25
ATOM     25  C   UNL     1      -1.920  -0.496   3.806  0.00  0.00    +0.340 C 
ATOM     26  O   UNL     1      -0.615   0.091   3.869  0.00  0.00    -0.331 OA
ATOM     27  C   UNL     1       0.370  -0.755   4.461  0.00  0.00    +0.179 C 
ATOM     28  C   UNL     1       0.014  -1.081   5.918  0.00  0.00    +0.177 C 
ATOM     29  C   UNL     1      -1.398  -1.665   6.032  0.00  0.00    +0.180 C 
ATOM     30  C   UNL     1      -2.420  -0.852   5.232  0.00  0.00    +0.214 C 
BRANCH  30  31
ATOM     31  O   UNL     1      -3.686  -1.528   5.188  0.00  0.00    -0.383 OA
ATOM     32  H   UNL     1      -3.580  -2.321   4.634  0.00  0.00    +0.210 HD
ENDBRANCH  30  31
BRANCH  29  33
ATOM     33  O   UNL     1      -1.772  -1.683   7.422  0.00  0.00    -0.386 OA
ATOM     34  H   UNL     1      -1.009  -2.021   7.926  0.00  0.00    +0.210 HD
ENDBRANCH  29  33
BRANCH  28  35
ATOM     35  O   UNL     1       0.952  -2.005   6.497  0.00  0.00    -0.386 OA
ATOM     36  H   UNL     1       0.940  -2.824   5.967  0.00  0.00    +0.210 HD
ENDBRANCH  28  35
BRANCH  27  37
ATOM     37  C   UNL     1       1.736  -0.057   4.380  0.00  0.00    +0.190 C 
BRANCH  37  38
ATOM     38  O   UNL     1       2.791  -0.940   4.745  0.00  0.00    -0.392 OA
ATOM     39  H   UNL     1       2.628  -1.212   5.671  0.00  0.00    +0.210 HD
ENDBRANCH  37  38
ENDBRANCH  27  37
ENDBRANCH  24  25
ENDBRANCH   6  24
BRANCH   1  40
ATOM     40  O   UNL     1       0.762   0.793  -4.071  0.00  0.00    -0.461 OA
BRANCH  40  42
ATOM     41  C   UNL     1       1.027   0.594  -6.540  0.00  0.00    +0.221 C 
ATOM     42  C   UNL     1       0.717  -0.131  -5.160  0.00  0.00    +0.340 C 
ATOM     43  O   UNL     1       1.580  -1.246  -4.938  0.00  0.00    -0.331 OA
ATOM     44  C   UNL     1       1.479  -2.269  -5.937  0.00  0.00    +0.179 C 
ATOM     45  C   UNL     1       1.870  -1.689  -7.301  0.00  0.00    +0.177 C 
ATOM     46  C   UNL     1       0.953  -0.504  -7.641  0.00  0.00    +0.180 C 
BRANCH  46  47
ATOM     47  O   UNL     1       1.235  -0.074  -8.980  0.00  0.00    -0.386 OA
ATOM     48  H   UNL     1       0.484   0.459  -9.296  0.00  0.00    +0.210 HD
ENDBRANCH  46  47
BRANCH  45  49
ATOM     49  O   UNL     1       1.760  -2.685  -8.319  0.00  0.00    -0.386 OA
ATOM     50  H   UNL     1       1.932  -2.214  -9.159  0.00  0.00    +0.210 HD
ENDBRANCH  45  49
BRANCH  44  51
ATOM     51  C   UNL     1       0.092  -2.965  -5.962  0.00  0.00    +0.190 C 
BRANCH  51  52
ATOM     52  O   UNL     1      -0.277  -3.451  -4.675  0.00  0.00    -0.392 OA
ATOM     53  H   UNL     1       0.462  -3.992  -4.350  0.00  0.00    +0.210 HD
ENDBRANCH  51  52
ENDBRANCH  44  51
BRANCH  41  54
ATOM     54  O   UNL     1       2.268   1.367  -6.548  0.00  0.00    -0.337 OA
BRANCH  54  58
ATOM     55  C   UNL     1       4.502   2.304 -10.072  0.00  0.00    +0.041 C 
ATOM     56  C   UNL     1       4.157   3.379  -9.032  0.00  0.00    +0.149 C 
ATOM     57  O   UNL     1       3.792   2.795  -7.749  0.00  0.00    -0.343 OA
ATOM     58  C   UNL     1       2.530   2.096  -7.775  0.00  0.00    +0.282 C 
ATOM     59  C   UNL     1       1.430   3.137  -8.097  0.00  0.00    +0.201 C 
ATOM     60  C   UNL     1       1.691   3.695  -9.502  0.00  0.00    +0.179 C 
ATOM     61  C   UNL     1       3.079   4.346  -9.577  0.00  0.00    +0.174 C 
BRANCH  61  62
ATOM     62  O   UNL     1       3.101   5.573  -8.840  0.00  0.00    -0.387 OA
ATOM     63  H   UNL     1       2.755   5.371  -7.944  0.00  0.00    +0.210 HD
ENDBRANCH  61  62
BRANCH  60  64
ATOM     64  O   UNL     1       0.635   4.575  -9.898  0.00  0.00    -0.386 OA
ATOM     65  H   UNL     1       1.036   5.348 -10.336  0.00  0.00    +0.210 HD
ENDBRANCH  60  64
BRANCH  59  66
ATOM     66  O   UNL     1       1.462   4.193  -7.111  0.00  0.00    -0.384 OA
ATOM     67  H   UNL     1       1.868   3.811  -6.306  0.00  0.00    +0.210 HD
ENDBRANCH  59  66
ENDBRANCH  54  58
ENDBRANCH  41  54
ENDBRANCH  40  42
ENDBRANCH   1  40
TORSDOF 22
