REMARK  Name = 
REMARK  20 active torsions:
REMARK  status: ('A' for Active; 'I' for Inactive)
REMARK    1  A    between atoms: C_1  and  C_2
REMARK    2  A    between atoms: C_2  and  C_3
REMARK    3  A    between atoms: C_2  and  C_7
REMARK    4  A    between atoms: C_2  and  O_46
REMARK    5  A    between atoms: C_3  and  C_4
REMARK    6  A    between atoms: C_4  and  O_6
REMARK    7  A    between atoms: C_7  and  C_8
REMARK    8  A    between atoms: C_8  and  O_10
REMARK    9  A    between atoms: O_10  and  C_11
REMARK   10  A    between atoms: C_11  and  C_12
REMARK   11  A    between atoms: C_14  and  O_45
REMARK   12  A    between atoms: C_16  and  O_44
REMARK   13  A    between atoms: C_17  and  O_43
REMARK   14  A    between atoms: C_18  and  O_21
REMARK   15  A    between atoms: O_21  and  C_22
REMARK   16  A    between atoms: C_23  and  C_35
REMARK   17  A    between atoms: C_27  and  O_34
REMARK   18  A    between atoms: C_29  and  O_33
REMARK   19  A    between atoms: C_37  and  O_42
REMARK   20  A    between atoms: C_38  and  O_41
REMARK                            x       y       z     vdW  Elec       q    Type
REMARK                         _______ _______ _______ _____ _____    ______ ____
ROOT
ATOM      1  C   UNL     1       2.875   1.657   5.955  0.00  0.00    +0.191 C 
ATOM      2  O   UNL     1       4.214   2.102   6.248  0.00  0.00    -0.330 OA
ATOM      3  C   UNL     1       5.145   1.651   5.251  0.00  0.00    +0.340 C 
ATOM      4  C   UNL     1       5.274   0.124   5.435  0.00  0.00    +0.214 C 
ATOM      5  C   UNL     1       3.889  -0.531   5.302  0.00  0.00    +0.180 C 
ATOM      6  C   UNL     1       2.835   0.142   6.205  0.00  0.00    +0.178 C 
ENDROOT
BRANCH   6   7
ATOM      7  O   UNL     1       3.119  -0.143   7.585  0.00  0.00    -0.386 OA
ATOM      8  H   UNL     1       3.830   0.468   7.861  0.00  0.00    +0.210 HD
ENDBRANCH   6   7
BRANCH   5   9
ATOM      9  O   UNL     1       3.979  -1.922   5.615  0.00  0.00    -0.386 OA
ATOM     10  H   UNL     1       4.247  -1.941   6.558  0.00  0.00    +0.210 HD
ENDBRANCH   5   9
BRANCH   4  11
ATOM     11  O   UNL     1       5.812  -0.164   6.751  0.00  0.00    -0.383 OA
ATOM     12  H   UNL     1       5.984   0.703   7.168  0.00  0.00    +0.210 HD
ENDBRANCH   4  11
BRANCH   3  13
ATOM     13  O   UNL     1       6.457   2.189   5.490  0.00  0.00    -0.453 OA
BRANCH  13  14
ATOM     14  C   UNL     1       6.777   3.372   4.845  0.00  0.00    +0.214 A 
ATOM     15  C   UNL     1       5.743   4.439   4.686  0.00  0.00    +0.238 A 
ATOM     16  O   UNL     1       4.706   4.433   5.334  0.00  0.00    -0.283 OA
ATOM     17  C   UNL     1       6.049   5.545   3.782  0.00  0.00    +0.109 A 
ATOM     18  C   UNL     1       7.380   5.737   3.435  0.00  0.00    +0.147 A 
ATOM     19  C   UNL     1       7.745   6.871   2.703  0.00  0.00    +0.092 A 
ATOM     20  C   UNL     1       6.760   7.779   2.313  0.00  0.00    +0.124 A 
ATOM     21  C   UNL     1       5.419   7.563   2.609  0.00  0.00    +0.091 A 
ATOM     22  O   UNL     1       8.375   4.862   3.799  0.00  0.00    -0.451 OA
ATOM     23  C   UNL     1       5.063   6.437   3.339  0.00  0.00    +0.135 A 
ATOM     24  C   UNL     1       8.037   3.661   4.436  0.00  0.00    +0.181 A 
BRANCH  24  25
ATOM     25  C   UNL     1       9.229   2.770   4.647  0.00  0.00    +0.025 A 
ATOM     26  C   UNL     1      10.342   2.853   3.779  0.00  0.00    +0.015 A 
ATOM     27  C   UNL     1      11.515   2.116   4.007  0.00  0.00    +0.050 A 
ATOM     28  C   UNL     1      11.587   1.275   5.103  0.00  0.00    +0.158 A 
ATOM     29  C   UNL     1      10.501   1.146   5.957  0.00  0.00    +0.159 A 
ATOM     30  C   UNL     1       9.337   1.890   5.744  0.00  0.00    +0.060 A 
BRANCH  29  31
ATOM     31  O   UNL     1      10.623   0.282   7.010  0.00  0.00    -0.503 OA
ATOM     32  H   UNL     1       9.751   0.184   7.430  0.00  0.00    +0.292 HD
ENDBRANCH  29  31
BRANCH  28  33
ATOM     33  O   UNL     1      12.738   0.586   5.350  0.00  0.00    -0.503 OA
ATOM     34  H   UNL     1      12.566   0.109   6.187  0.00  0.00    +0.292 HD
ENDBRANCH  28  33
ENDBRANCH  24  25
BRANCH  23  35
ATOM     35  O   UNL     1       3.743   6.195   3.586  0.00  0.00    -0.506 OA
ATOM     36  H   UNL     1       3.210   6.984   3.400  0.00  0.00    +0.292 HD
ENDBRANCH  23  35
BRANCH  20  37
ATOM     37  O   UNL     1       7.058   8.909   1.614  0.00  0.00    -0.507 OA
ATOM     38  H   UNL     1       8.026   8.976   1.510  0.00  0.00    +0.292 HD
ENDBRANCH  20  37
ENDBRANCH  13  14
ENDBRANCH   3  13
BRANCH   1  39
ATOM     39  C   UNL     1       1.877   2.425   6.830  0.00  0.00    +0.266 C 
BRANCH  39  40
ATOM     40  O   UNL     1       0.540   1.918   6.679  0.00  0.00    -0.462 OA
BRANCH  40  41
ATOM     41  C   UNL     1      -0.149   2.337   5.587  0.00  0.00    +0.310 C 
ATOM     42  O   UNL     1       0.291   3.065   4.707  0.00  0.00    -0.251 OA
BRANCH  41  43
ATOM     43  C   UNL     1      -1.529   1.728   5.553  0.00  0.00    +0.155 C 
BRANCH  43  45
ATOM     44  C   UNL     1      -2.718   3.955   5.673  0.00  0.00    +0.042 C 
ATOM     45  C   UNL     1      -2.587   2.560   6.298  0.00  0.00    +0.083 C 
BRANCH  45  46
ATOM     46  O   UNL     1      -2.176   2.679   7.660  0.00  0.00    -0.388 OA
ATOM     47  H   UNL     1      -2.806   3.278   8.113  0.00  0.00    +0.210 HD
ENDBRANCH  45  46
BRANCH  45  48
ATOM     48  C   UNL     1      -3.917   1.772   6.257  0.00  0.00    +0.155 C 
BRANCH  48  49
ATOM     49  C   UNL     1      -5.022   2.379   7.092  0.00  0.00    +0.307 C 
ATOM     50  O   UNL     1      -4.925   3.405   7.748  0.00  0.00    -0.251 OA
BRANCH  49  51
ATOM     51  O   UNL     1      -6.159   1.647   7.065  0.00  0.00    -0.481 OA
ATOM     52  H   UNL     1      -6.094   0.818   6.553  0.00  0.00    +0.295 HD
ENDBRANCH  49  51
ENDBRANCH  48  49
ENDBRANCH  45  48
ENDBRANCH  43  45
ENDBRANCH  41  43
ENDBRANCH  40  41
ENDBRANCH  39  40
ENDBRANCH   1  39
TORSDOF 19
