REMARK  Name = 
REMARK  16 active torsions:
REMARK  status: ('A' for Active; 'I' for Inactive)
REMARK    1  A    between atoms: C_2  and  O_47
REMARK    2  A    between atoms: C_4  and  O_46
REMARK    3  A    between atoms: C_6  and  O_45
REMARK    4  A    between atoms: C_7  and  O_10
REMARK    5  A    between atoms: O_10  and  C_11
REMARK    6  A    between atoms: C_13  and  O_44
REMARK    7  A    between atoms: C_18  and  C_36
REMARK    8  A    between atoms: C_19  and  O_22
REMARK    9  A    between atoms: O_22  and  C_23
REMARK   10  A    between atoms: C_25  and  O_35
REMARK   11  A    between atoms: C_26  and  O_34
REMARK   12  A    between atoms: C_27  and  O_33
REMARK   13  A    between atoms: C_29  and  C_31
REMARK   14  A    between atoms: C_31  and  O_32
REMARK   15  A    between atoms: C_38  and  O_43
REMARK   16  A    between atoms: C_39  and  O_42
REMARK                            x       y       z     vdW  Elec       q    Type
REMARK                         _______ _______ _______ _____ _____    ______ ____
ROOT
ATOM      1  C   UNL     1       2.699  -2.504   0.052  0.00  0.00    +0.131 A 
ATOM      2  C   UNL     1       3.658  -1.545  -0.279  0.00  0.00    +0.093 A 
ATOM      3  C   UNL     1       4.920  -1.951  -0.736  0.00  0.00    +0.147 A 
ATOM      4  O   UNL     1       5.799  -0.968  -1.117  0.00  0.00    -0.451 OA
ATOM      5  C   UNL     1       7.133  -1.314  -1.353  0.00  0.00    +0.181 A 
ATOM      6  C   UNL     1       7.591  -2.589  -1.398  0.00  0.00    +0.214 A 
ATOM      7  C   UNL     1       6.541  -3.658  -1.418  0.00  0.00    +0.238 A 
ATOM      8  O   UNL     1       6.713  -4.723  -1.997  0.00  0.00    -0.283 OA
ATOM      9  C   UNL     1       5.232  -3.307  -0.839  0.00  0.00    +0.109 A 
ATOM     10  C   UNL     1       4.291  -4.258  -0.446  0.00  0.00    +0.135 A 
ATOM     11  C   UNL     1       3.030  -3.860  -0.002  0.00  0.00    +0.092 A 
ENDROOT
BRANCH   5  12
ATOM     12  C   UNL     1       7.996  -0.118  -1.584  0.00  0.00    +0.025 A 
ATOM     13  C   UNL     1       7.781   1.058  -0.844  0.00  0.00    +0.015 A 
ATOM     14  C   UNL     1       8.518   2.220  -1.101  0.00  0.00    +0.050 A 
ATOM     15  C   UNL     1       9.486   2.218  -2.091  0.00  0.00    +0.158 A 
ATOM     16  C   UNL     1       9.721   1.062  -2.834  0.00  0.00    +0.159 A 
ATOM     17  C   UNL     1       8.968  -0.090  -2.605  0.00  0.00    +0.060 A 
BRANCH  15  18
ATOM     18  O   UNL     1      10.203   3.353  -2.334  0.00  0.00    -0.503 OA
ATOM     19  H   UNL     1      10.797   3.122  -3.076  0.00  0.00    +0.292 HD
ENDBRANCH  15  18
BRANCH  16  20
ATOM     20  O   UNL     1      10.689   1.126  -3.799  0.00  0.00    -0.503 OA
ATOM     21  H   UNL     1      10.761   0.253  -4.235  0.00  0.00    +0.292 HD
ENDBRANCH  16  20
ENDBRANCH   5  12
BRANCH  10  22
ATOM     22  O   UNL     1       4.598  -5.588  -0.472  0.00  0.00    -0.506 OA
ATOM     23  H   UNL     1       3.800  -6.124  -0.333  0.00  0.00    +0.292 HD
ENDBRANCH  10  22
BRANCH   6  24
ATOM     24  O   UNL     1       8.942  -2.856  -1.483  0.00  0.00    -0.453 OA
BRANCH  24  25
ATOM     25  C   UNL     1       9.413  -4.192  -1.750  0.00  0.00    +0.340 C 
ATOM     26  O   UNL     1       9.148  -5.135  -0.707  0.00  0.00    -0.331 OA
ATOM     27  C   UNL     1       9.857  -4.959   0.532  0.00  0.00    +0.179 C 
ATOM     28  C   UNL     1      11.366  -4.745   0.352  0.00  0.00    +0.177 C 
ATOM     29  C   UNL     1      11.638  -3.692  -0.712  0.00  0.00    +0.180 C 
ATOM     30  C   UNL     1      10.931  -4.079  -2.014  0.00  0.00    +0.214 C 
BRANCH  28  31
ATOM     31  O   UNL     1      12.020  -5.958  -0.052  0.00  0.00    -0.386 OA
ATOM     32  H   UNL     1      12.928  -5.687  -0.300  0.00  0.00    +0.210 HD
ENDBRANCH  28  31
BRANCH  29  33
ATOM     33  O   UNL     1      13.055  -3.613  -0.933  0.00  0.00    -0.386 OA
ATOM     34  H   UNL     1      13.171  -3.313  -1.857  0.00  0.00    +0.210 HD
ENDBRANCH  29  33
BRANCH  30  35
ATOM     35  O   UNL     1      11.258  -3.088  -3.010  0.00  0.00    -0.383 OA
ATOM     36  H   UNL     1      10.971  -2.233  -2.646  0.00  0.00    +0.210 HD
ENDBRANCH  30  35
BRANCH  27  37
ATOM     37  C   UNL     1       9.609  -6.221   1.380  0.00  0.00    +0.190 C 
BRANCH  37  38
ATOM     38  O   UNL     1       8.252  -6.283   1.826  0.00  0.00    -0.392 OA
ATOM     39  H   UNL     1       7.705  -5.893   1.118  0.00  0.00    +0.210 HD
ENDBRANCH  37  38
ENDBRANCH  27  37
ENDBRANCH  24  25
ENDBRANCH   6  24
BRANCH   1  40
ATOM     40  O   UNL     1       1.424  -2.240   0.473  0.00  0.00    -0.461 OA
BRANCH  40  43
ATOM     41  C   UNL     1       0.429   1.264   0.301  0.00  0.00    +0.198 C 
ATOM     42  O   UNL     1       1.056   0.062   0.766  0.00  0.00    -0.337 OA
ATOM     43  C   UNL     1       0.799  -1.068  -0.075  0.00  0.00    +0.339 C 
ATOM     44  C   UNL     1      -0.724  -1.348  -0.108  0.00  0.00    +0.214 C 
ATOM     45  C   UNL     1      -1.426  -0.107  -0.685  0.00  0.00    +0.180 C 
ATOM     46  C   UNL     1      -1.092   1.130   0.160  0.00  0.00    +0.171 C 
BRANCH  46  47
ATOM     47  O   UNL     1      -1.714   1.033   1.448  0.00  0.00    -0.387 OA
ATOM     48  H   UNL     1      -1.522   0.130   1.791  0.00  0.00    +0.210 HD
ENDBRANCH  46  47
BRANCH  45  49
ATOM     49  O   UNL     1      -2.840  -0.299  -0.787  0.00  0.00    -0.386 OA
ATOM     50  H   UNL     1      -3.260   0.276  -0.117  0.00  0.00    +0.210 HD
ENDBRANCH  45  49
BRANCH  44  51
ATOM     51  O   UNL     1      -1.194  -1.598   1.238  0.00  0.00    -0.383 OA
ATOM     52  H   UNL     1      -0.497  -2.133   1.669  0.00  0.00    +0.210 HD
ENDBRANCH  44  51
ENDBRANCH  40  43
ENDBRANCH   1  40
TORSDOF 16
