REMARK  Name = 
REMARK  22 active torsions:
REMARK  status: ('A' for Active; 'I' for Inactive)
REMARK    1  A    between atoms: C_2  and  O_61
REMARK    2  A    between atoms: C_4  and  O_60
REMARK    3  A    between atoms: C_5  and  O_59
REMARK    4  A    between atoms: C_7  and  O_10
REMARK    5  A    between atoms: O_10  and  C_11
REMARK    6  A    between atoms: C_12  and  O_23
REMARK    7  A    between atoms: C_15  and  C_21
REMARK    8  A    between atoms: C_16  and  O_20
REMARK    9  A    between atoms: C_18  and  O_19
REMARK   10  A    between atoms: C_21  and  O_22
REMARK   11  A    between atoms: O_23  and  C_24
REMARK   12  A    between atoms: C_25  and  C_37
REMARK   13  A    between atoms: C_29  and  O_36
REMARK   14  A    between atoms: C_31  and  O_35
REMARK   15  A    between atoms: C_39  and  O_44
REMARK   16  A    between atoms: C_40  and  O_43
REMARK   17  A    between atoms: O_44  and  C_45
REMARK   18  A    between atoms: C_47  and  O_58
REMARK   19  A    between atoms: C_48  and  O_57
REMARK   20  A    between atoms: C_50  and  O_56
REMARK   21  A    between atoms: C_52  and  C_54
REMARK   22  A    between atoms: C_54  and  O_55
REMARK                            x       y       z     vdW  Elec       q    Type
REMARK                         _______ _______ _______ _____ _____    ______ ____
ROOT
ATOM      1  C   UNL     1       5.179  -4.917  -0.168  0.00  0.00    +0.214 A 
ATOM      2  C   UNL     1       6.549  -4.988  -0.792  0.00  0.00    +0.238 A 
ATOM      3  O   UNL     1       6.729  -4.591  -1.939  0.00  0.00    -0.283 OA
ATOM      4  C   UNL     1       7.620  -5.576   0.037  0.00  0.00    +0.109 A 
ATOM      5  C   UNL     1       7.217  -6.336   1.129  0.00  0.00    +0.147 A 
ATOM      6  C   UNL     1       8.151  -6.924   1.985  0.00  0.00    +0.092 A 
ATOM      7  C   UNL     1       9.503  -6.766   1.715  0.00  0.00    +0.124 A 
ATOM      8  C   UNL     1       9.930  -6.036   0.609  0.00  0.00    +0.091 A 
ATOM      9  O   UNL     1       5.900  -6.590   1.399  0.00  0.00    -0.451 OA
ATOM     10  C   UNL     1       8.987  -5.432  -0.227  0.00  0.00    +0.135 A 
ATOM     11  C   UNL     1       4.924  -5.793   0.817  0.00  0.00    +0.181 A 
ENDROOT
BRANCH  11  12
ATOM     12  C   UNL     1       3.597  -6.003   1.469  0.00  0.00    +0.025 A 
ATOM     13  C   UNL     1       2.377  -5.827   0.798  0.00  0.00    +0.015 A 
ATOM     14  C   UNL     1       1.162  -5.921   1.480  0.00  0.00    +0.050 A 
ATOM     15  C   UNL     1       1.155  -6.257   2.826  0.00  0.00    +0.159 A 
ATOM     16  C   UNL     1       2.341  -6.547   3.503  0.00  0.00    +0.166 A 
ATOM     17  C   UNL     1       3.549  -6.426   2.816  0.00  0.00    +0.061 A 
BRANCH  15  18
ATOM     18  O   UNL     1      -0.051  -6.282   3.468  0.00  0.00    -0.503 OA
ATOM     19  H   UNL     1       0.139  -6.366   4.422  0.00  0.00    +0.292 HD
ENDBRANCH  15  18
BRANCH  16  20
ATOM     20  O   UNL     1       2.209  -6.967   4.799  0.00  0.00    -0.457 OA
BRANCH  20  21
ATOM     21  C   UNL     1       3.356  -6.847   5.660  0.00  0.00    +0.339 C 
ATOM     22  O   UNL     1       4.258  -7.950   5.552  0.00  0.00    -0.331 OA
ATOM     23  C   UNL     1       3.706  -9.218   5.959  0.00  0.00    +0.179 C 
ATOM     24  C   UNL     1       3.104  -9.195   7.387  0.00  0.00    +0.177 C 
ATOM     25  C   UNL     1       2.153  -8.005   7.557  0.00  0.00    +0.180 C 
ATOM     26  C   UNL     1       2.866  -6.712   7.117  0.00  0.00    +0.214 C 
BRANCH  26  27
ATOM     27  O   UNL     1       2.001  -5.586   7.295  0.00  0.00    -0.383 OA
ATOM     28  H   UNL     1       2.449  -4.799   6.936  0.00  0.00    +0.210 HD
ENDBRANCH  26  27
BRANCH  25  29
ATOM     29  O   UNL     1       0.937  -8.266   6.844  0.00  0.00    -0.386 OA
ATOM     30  H   UNL     1       1.092  -8.099   5.897  0.00  0.00    +0.210 HD
ENDBRANCH  25  29
BRANCH  24  31
ATOM     31  O   UNL     1       4.136  -9.113   8.374  0.00  0.00    -0.386 OA
ATOM     32  H   UNL     1       3.715  -9.210   9.248  0.00  0.00    +0.210 HD
ENDBRANCH  24  31
BRANCH  23  33
ATOM     33  C   UNL     1       4.823 -10.274   5.857  0.00  0.00    +0.190 C 
BRANCH  33  34
ATOM     34  O   UNL     1       5.366 -10.361   4.539  0.00  0.00    -0.392 OA
ATOM     35  H   UNL     1       4.652 -10.178   3.904  0.00  0.00    +0.210 HD
ENDBRANCH  33  34
ENDBRANCH  23  33
ENDBRANCH  20  21
ENDBRANCH  16  20
ENDBRANCH  11  12
BRANCH  10  36
ATOM     36  O   UNL     1       9.418  -4.689  -1.290  0.00  0.00    -0.506 OA
ATOM     37  H   UNL     1      10.358  -4.872  -1.457  0.00  0.00    +0.292 HD
ENDBRANCH  10  36
BRANCH   7  38
ATOM     38  O   UNL     1      10.454  -7.324   2.516  0.00  0.00    -0.507 OA
ATOM     39  H   UNL     1      10.020  -7.802   3.244  0.00  0.00    +0.292 HD
ENDBRANCH   7  38
BRANCH   1  40
ATOM     40  O   UNL     1       4.216  -4.047  -0.679  0.00  0.00    -0.453 OA
BRANCH  40  46
ATOM     41  C   UNL     1       3.961  -2.240  -2.297  0.00  0.00    +0.221 C 
ATOM     42  C   UNL     1       2.557  -1.704  -1.934  0.00  0.00    +0.180 C 
ATOM     43  C   UNL     1       2.594  -0.727  -0.752  0.00  0.00    +0.177 C 
ATOM     44  C   UNL     1       3.353  -1.298   0.452  0.00  0.00    +0.179 C 
ATOM     45  O   UNL     1       4.639  -1.815   0.082  0.00  0.00    -0.331 OA
ATOM     46  C   UNL     1       4.685  -2.732  -1.015  0.00  0.00    +0.340 C 
BRANCH  43  47
ATOM     47  O   UNL     1       3.220   0.503  -1.148  0.00  0.00    -0.386 OA
ATOM     48  H   UNL     1       4.127   0.298  -1.444  0.00  0.00    +0.210 HD
ENDBRANCH  43  47
BRANCH  42  49
ATOM     49  O   UNL     1       1.650  -2.774  -1.614  0.00  0.00    -0.386 OA
ATOM     50  H   UNL     1       2.115  -3.628  -1.691  0.00  0.00    +0.210 HD
ENDBRANCH  42  49
BRANCH  44  51
ATOM     51  C   UNL     1       2.571  -2.332   1.271  0.00  0.00    +0.190 C 
BRANCH  51  52
ATOM     52  O   UNL     1       3.363  -2.746   2.390  0.00  0.00    -0.392 OA
ATOM     53  H   UNL     1       4.257  -2.918   2.036  0.00  0.00    +0.210 HD
ENDBRANCH  51  52
ENDBRANCH  44  51
BRANCH  41  54
ATOM     54  O   UNL     1       4.710  -1.250  -3.040  0.00  0.00    -0.337 OA
BRANCH  54  57
ATOM     55  C   UNL     1       8.075  -0.846  -4.257  0.00  0.00    +0.197 C 
ATOM     56  O   UNL     1       6.685  -0.554  -4.086  0.00  0.00    -0.346 OA
ATOM     57  C   UNL     1       5.999  -1.686  -3.521  0.00  0.00    +0.282 C 
ATOM     58  C   UNL     1       5.986  -2.817  -4.586  0.00  0.00    +0.201 C 
ATOM     59  C   UNL     1       7.443  -3.199  -4.918  0.00  0.00    +0.178 C 
ATOM     60  C   UNL     1       8.306  -1.980  -5.255  0.00  0.00    +0.171 C 
BRANCH  60  61
ATOM     61  O   UNL     1       9.687  -2.362  -5.221  0.00  0.00    -0.387 OA
ATOM     62  H   UNL     1      10.179  -1.748  -5.797  0.00  0.00    +0.210 HD
ENDBRANCH  60  61
BRANCH  59  63
ATOM     63  O   UNL     1       7.489  -4.155  -5.993  0.00  0.00    -0.386 OA
ATOM     64  H   UNL     1       6.824  -3.905  -6.656  0.00  0.00    +0.210 HD
ENDBRANCH  59  63
BRANCH  58  65
ATOM     65  O   UNL     1       5.302  -4.005  -4.168  0.00  0.00    -0.384 OA
ATOM     66  H   UNL     1       5.887  -4.463  -3.522  0.00  0.00    +0.210 HD
ENDBRANCH  58  65
ENDBRANCH  54  57
ENDBRANCH  41  54
ENDBRANCH  40  46
ENDBRANCH   1  40
TORSDOF 22
