REMARK  Name = 
REMARK  23 active torsions:
REMARK  status: ('A' for Active; 'I' for Inactive)
REMARK    1  A    between atoms: C_1  and  C_2
REMARK    2  A    between atoms: C_3  and  O_48
REMARK    3  A    between atoms: C_5  and  O_47
REMARK    4  A    between atoms: C_7  and  O_46
REMARK    5  A    between atoms: C_8  and  O_11
REMARK    6  A    between atoms: O_11  and  C_12
REMARK    7  A    between atoms: C_14  and  O_45
REMARK    8  A    between atoms: C_19  and  C_37
REMARK    9  A    between atoms: C_20  and  O_23
REMARK   10  A    between atoms: O_23  and  C_24
REMARK   11  A    between atoms: C_26  and  O_36
REMARK   12  A    between atoms: C_27  and  O_35
REMARK   13  A    between atoms: C_28  and  O_34
REMARK   14  A    between atoms: C_30  and  C_32
REMARK   15  A    between atoms: C_32  and  O_33
REMARK   16  A    between atoms: C_39  and  O_44
REMARK   17  A    between atoms: C_40  and  O_43
REMARK   18  A    between atoms: O_48  and  C_49
REMARK   19  A    between atoms: C_51  and  O_62
REMARK   20  A    between atoms: C_52  and  O_61
REMARK   21  A    between atoms: C_54  and  O_60
REMARK   22  A    between atoms: C_56  and  C_58
REMARK   23  A    between atoms: C_58  and  O_59
REMARK                            x       y       z     vdW  Elec       q    Type
REMARK                         _______ _______ _______ _____ _____    ______ ____
ROOT
ATOM      1  C   UNL     1       2.641   3.074  -3.303  0.00  0.00    +0.131 A 
ATOM      2  C   UNL     1       1.399   3.571  -2.883  0.00  0.00    +0.093 A 
ATOM      3  C   UNL     1       1.219   4.950  -2.716  0.00  0.00    +0.147 A 
ATOM      4  O   UNL     1       0.008   5.417  -2.258  0.00  0.00    -0.451 OA
ATOM      5  C   UNL     1      -0.266   6.800  -2.328  0.00  0.00    +0.181 A 
ATOM      6  C   UNL     1       0.712   7.724  -2.538  0.00  0.00    +0.214 A 
ATOM      7  C   UNL     1       2.106   7.180  -2.522  0.00  0.00    +0.238 A 
ATOM      8  O   UNL     1       3.057   7.780  -2.054  0.00  0.00    -0.283 OA
ATOM      9  C   UNL     1       2.280   5.803  -2.961  0.00  0.00    +0.109 A 
ATOM     10  C   UNL     1       3.494   5.319  -3.450  0.00  0.00    +0.135 A 
ATOM     11  C   UNL     1       3.673   3.955  -3.619  0.00  0.00    +0.092 A 
ENDROOT
BRANCH   5  12
ATOM     12  C   UNL     1      -1.727   7.111  -2.095  0.00  0.00    +0.025 A 
ATOM     13  C   UNL     1      -2.238   8.425  -2.046  0.00  0.00    +0.015 A 
ATOM     14  C   UNL     1      -3.587   8.706  -1.805  0.00  0.00    +0.050 A 
ATOM     15  C   UNL     1      -4.465   7.665  -1.594  0.00  0.00    +0.158 A 
ATOM     16  C   UNL     1      -4.008   6.355  -1.609  0.00  0.00    +0.159 A 
ATOM     17  C   UNL     1      -2.658   6.072  -1.857  0.00  0.00    +0.060 A 
BRANCH  16  18
ATOM     18  O   UNL     1      -4.929   5.373  -1.364  0.00  0.00    -0.503 OA
ATOM     19  H   UNL     1      -4.467   4.519  -1.320  0.00  0.00    +0.292 HD
ENDBRANCH  16  18
BRANCH  15  20
ATOM     20  O   UNL     1      -5.780   7.945  -1.366  0.00  0.00    -0.503 OA
ATOM     21  H   UNL     1      -6.206   7.072  -1.260  0.00  0.00    +0.292 HD
ENDBRANCH  15  20
ENDBRANCH   5  12
BRANCH  10  22
ATOM     22  O   UNL     1       4.500   6.176  -3.799  0.00  0.00    -0.506 OA
ATOM     23  H   UNL     1       5.336   5.685  -3.871  0.00  0.00    +0.292 HD
ENDBRANCH  10  22
BRANCH   6  24
ATOM     24  O   UNL     1       0.458   9.081  -2.737  0.00  0.00    -0.453 OA
BRANCH  24  25
ATOM     25  C   UNL     1       1.514  10.023  -2.487  0.00  0.00    +0.340 C 
ATOM     26  O   UNL     1       1.606  10.335  -1.094  0.00  0.00    -0.331 OA
ATOM     27  C   UNL     1       0.621  11.262  -0.609  0.00  0.00    +0.179 C 
ATOM     28  C   UNL     1       0.721  12.588  -1.373  0.00  0.00    +0.177 C 
ATOM     29  C   UNL     1       0.414  12.323  -2.844  0.00  0.00    +0.180 C 
ATOM     30  C   UNL     1       1.379  11.271  -3.397  0.00  0.00    +0.214 C 
BRANCH  29  31
ATOM     31  O   UNL     1       0.536  13.566  -3.560  0.00  0.00    -0.386 OA
ATOM     32  H   UNL     1       1.333  13.507  -4.120  0.00  0.00    +0.210 HD
ENDBRANCH  29  31
BRANCH  30  33
ATOM     33  O   UNL     1       1.022  10.939  -4.747  0.00  0.00    -0.383 OA
ATOM     34  H   UNL     1       0.186  10.439  -4.715  0.00  0.00    +0.210 HD
ENDBRANCH  30  33
BRANCH  28  35
ATOM     35  O   UNL     1       2.046  13.134  -1.287  0.00  0.00    -0.386 OA
ATOM     36  H   UNL     1       2.005  14.014  -1.705  0.00  0.00    +0.210 HD
ENDBRANCH  28  35
BRANCH  27  37
ATOM     37  C   UNL     1       0.843  11.439   0.903  0.00  0.00    +0.190 C 
BRANCH  37  38
ATOM     38  O   UNL     1       2.167  11.852   1.222  0.00  0.00    -0.392 OA
ATOM     39  H   UNL     1       2.736  11.493   0.512  0.00  0.00    +0.210 HD
ENDBRANCH  37  38
ENDBRANCH  27  37
ENDBRANCH  24  25
ENDBRANCH   6  24
BRANCH   1  40
ATOM     40  O   UNL     1       3.009   1.767  -3.430  0.00  0.00    -0.461 OA
BRANCH  40  44
ATOM     41  C   UNL     1      -0.705   0.121  -2.014  0.00  0.00    +0.041 C 
ATOM     42  C   UNL     1       0.656  -0.163  -1.374  0.00  0.00    +0.151 C 
ATOM     43  O   UNL     1       1.628   0.818  -1.751  0.00  0.00    -0.334 OA
ATOM     44  C   UNL     1       2.060   0.751  -3.116  0.00  0.00    +0.339 C 
ATOM     45  C   UNL     1       2.722  -0.618  -3.399  0.00  0.00    +0.214 C 
ATOM     46  C   UNL     1       1.684  -1.706  -3.098  0.00  0.00    +0.180 C 
ATOM     47  C   UNL     1       1.168  -1.592  -1.647  0.00  0.00    +0.181 C 
BRANCH  46  48
ATOM     48  O   UNL     1       2.213  -3.013  -3.355  0.00  0.00    -0.386 OA
ATOM     49  H   UNL     1       1.568  -3.673  -3.046  0.00  0.00    +0.210 HD
ENDBRANCH  46  48
BRANCH  45  50
ATOM     50  O   UNL     1       3.912  -0.798  -2.610  0.00  0.00    -0.383 OA
ATOM     51  H   UNL     1       3.636  -0.825  -1.672  0.00  0.00    +0.210 HD
ENDBRANCH  45  50
BRANCH  47  52
ATOM     52  O   UNL     1       2.245  -1.997  -0.765  0.00  0.00    -0.340 OA
BRANCH  52  53
ATOM     53  C   UNL     1       1.979  -2.014   0.648  0.00  0.00    +0.282 C 
ATOM     54  O   UNL     1       3.177  -2.386   1.350  0.00  0.00    -0.341 OA
ATOM     55  C   UNL     1       3.623  -3.738   1.121  0.00  0.00    +0.178 C 
ATOM     56  C   UNL     1       2.516  -4.779   1.418  0.00  0.00    +0.177 C 
ATOM     57  C   UNL     1       1.209  -4.404   0.714  0.00  0.00    +0.179 C 
ATOM     58  C   UNL     1       0.831  -2.957   1.071  0.00  0.00    +0.201 C 
BRANCH  58  59
ATOM     59  O   UNL     1      -0.436  -2.597   0.501  0.00  0.00    -0.384 OA
ATOM     60  H   UNL     1      -0.727  -3.353  -0.045  0.00  0.00    +0.210 HD
ENDBRANCH  58  59
BRANCH  57  61
ATOM     61  O   UNL     1       1.303  -4.581  -0.708  0.00  0.00    -0.386 OA
ATOM     62  H   UNL     1       2.050  -4.026  -1.023  0.00  0.00    +0.210 HD
ENDBRANCH  57  61
BRANCH  56  63
ATOM     63  O   UNL     1       2.271  -4.857   2.827  0.00  0.00    -0.386 OA
ATOM     64  H   UNL     1       1.574  -5.518   2.987  0.00  0.00    +0.210 HD
ENDBRANCH  56  63
BRANCH  55  65
ATOM     65  C   UNL     1       4.860  -4.019   2.000  0.00  0.00    +0.190 C 
BRANCH  65  66
ATOM     66  O   UNL     1       5.954  -3.149   1.714  0.00  0.00    -0.392 OA
ATOM     67  H   UNL     1       6.013  -3.030   0.752  0.00  0.00    +0.210 HD
ENDBRANCH  65  66
ENDBRANCH  55  65
ENDBRANCH  52  53
ENDBRANCH  47  52
ENDBRANCH  40  44
ENDBRANCH   1  40
TORSDOF 22
