REMARK  Name = 
REMARK  23 active torsions:
REMARK  status: ('A' for Active; 'I' for Inactive)
REMARK    1  A    between atoms: C_1  and  C_2
REMARK    2  A    between atoms: C_3  and  O_62
REMARK    3  A    between atoms: C_5  and  O_47
REMARK    4  A    between atoms: C_7  and  O_46
REMARK    5  A    between atoms: C_8  and  O_11
REMARK    6  A    between atoms: O_11  and  C_12
REMARK    7  A    between atoms: C_12  and  C_13
REMARK    8  A    between atoms: C_14  and  O_45
REMARK    9  A    between atoms: C_16  and  O_44
REMARK   10  A    between atoms: C_17  and  O_43
REMARK   11  A    between atoms: C_18  and  O_21
REMARK   12  A    between atoms: O_21  and  C_22
REMARK   13  A    between atoms: C_23  and  C_35
REMARK   14  A    between atoms: C_27  and  O_34
REMARK   15  A    between atoms: C_29  and  O_33
REMARK   16  A    between atoms: C_37  and  O_42
REMARK   17  A    between atoms: C_38  and  O_41
REMARK   18  A    between atoms: O_47  and  C_48
REMARK   19  A    between atoms: C_50  and  O_61
REMARK   20  A    between atoms: C_51  and  O_60
REMARK   21  A    between atoms: C_53  and  O_59
REMARK   22  A    between atoms: C_55  and  C_57
REMARK   23  A    between atoms: C_57  and  O_58
REMARK                            x       y       z     vdW  Elec       q    Type
REMARK                         _______ _______ _______ _____ _____    ______ ____
ROOT
ATOM      1  C   UNL     1       3.171   3.960  -4.402  0.00  0.00    +0.179 C 
ATOM      2  O   UNL     1       3.692   5.023  -3.574  0.00  0.00    -0.331 OA
ATOM      3  C   UNL     1       2.760   5.997  -3.066  0.00  0.00    +0.340 C 
ATOM      4  C   UNL     1       1.840   6.574  -4.161  0.00  0.00    +0.214 C 
ATOM      5  C   UNL     1       1.132   5.412  -4.856  0.00  0.00    +0.180 C 
ATOM      6  C   UNL     1       2.195   4.496  -5.489  0.00  0.00    +0.177 C 
ENDROOT
BRANCH   4   7
ATOM      7  O   UNL     1       2.557   7.325  -5.166  0.00  0.00    -0.383 OA
ATOM      8  H   UNL     1       3.461   7.477  -4.832  0.00  0.00    +0.210 HD
ENDBRANCH   4   7
BRANCH   6   9
ATOM      9  O   UNL     1       1.564   3.432  -6.199  0.00  0.00    -0.386 OA
ATOM     10  H   UNL     1       2.164   3.150  -6.912  0.00  0.00    +0.210 HD
ENDBRANCH   6   9
BRANCH   5  11
ATOM     11  O   UNL     1       0.229   5.930  -5.840  0.00  0.00    -0.386 OA
ATOM     12  H   UNL     1       0.731   6.593  -6.352  0.00  0.00    +0.210 HD
ENDBRANCH   5  11
BRANCH   3  13
ATOM     13  O   UNL     1       3.505   7.091  -2.476  0.00  0.00    -0.453 OA
BRANCH  13  14
ATOM     14  C   UNL     1       3.050   7.730  -1.349  0.00  0.00    +0.214 A 
ATOM     15  C   UNL     1       2.161   7.104  -0.356  0.00  0.00    +0.238 A 
ATOM     16  O   UNL     1       1.903   5.910  -0.344  0.00  0.00    -0.283 OA
ATOM     17  C   UNL     1       1.668   7.955   0.729  0.00  0.00    +0.109 A 
ATOM     18  C   UNL     1       2.351   9.097   1.105  0.00  0.00    +0.147 A 
ATOM     19  C   UNL     1       2.119   9.720   2.335  0.00  0.00    +0.092 A 
ATOM     20  C   UNL     1       1.129   9.195   3.150  0.00  0.00    +0.124 A 
ATOM     21  C   UNL     1       0.286   8.198   2.675  0.00  0.00    +0.091 A 
ATOM     22  O   UNL     1       3.282   9.600   0.268  0.00  0.00    -0.451 OA
ATOM     23  C   UNL     1       0.597   7.554   1.474  0.00  0.00    +0.135 A 
ATOM     24  C   UNL     1       3.531   8.920  -0.908  0.00  0.00    +0.181 A 
BRANCH  24  25
ATOM     25  C   UNL     1       4.687   9.534  -1.500  0.00  0.00    +0.025 A 
ATOM     26  C   UNL     1       5.904   9.019  -1.053  0.00  0.00    +0.015 A 
ATOM     27  C   UNL     1       7.074   9.677  -1.385  0.00  0.00    +0.050 A 
ATOM     28  C   UNL     1       6.979  10.802  -2.204  0.00  0.00    +0.158 A 
ATOM     29  C   UNL     1       5.750  11.316  -2.635  0.00  0.00    +0.159 A 
ATOM     30  C   UNL     1       4.575  10.712  -2.234  0.00  0.00    +0.060 A 
BRANCH  29  31
ATOM     31  O   UNL     1       5.706  12.390  -3.473  0.00  0.00    -0.503 OA
ATOM     32  H   UNL     1       4.788  12.535  -3.761  0.00  0.00    +0.292 HD
ENDBRANCH  29  31
BRANCH  28  33
ATOM     33  O   UNL     1       8.146  11.357  -2.652  0.00  0.00    -0.503 OA
ATOM     34  H   UNL     1       8.603  10.615  -3.086  0.00  0.00    +0.292 HD
ENDBRANCH  28  33
ENDBRANCH  24  25
BRANCH  23  35
ATOM     35  O   UNL     1      -0.093   6.433   1.104  0.00  0.00    -0.506 OA
ATOM     36  H   UNL     1       0.506   5.866   0.559  0.00  0.00    +0.292 HD
ENDBRANCH  23  35
BRANCH  20  37
ATOM     37  O   UNL     1       0.955   9.570   4.447  0.00  0.00    -0.507 OA
ATOM     38  H   UNL     1       1.617  10.240   4.686  0.00  0.00    +0.292 HD
ENDBRANCH  20  37
ENDBRANCH  13  14
ENDBRANCH   3  13
BRANCH   1  39
ATOM     39  C   UNL     1       2.580   2.722  -3.651  0.00  0.00    +0.197 C 
BRANCH  39  40
ATOM     40  O   UNL     1       3.516   1.893  -2.960  0.00  0.00    -0.346 OA
BRANCH  40  44
ATOM     41  C   UNL     1       5.740   1.130   0.653  0.00  0.00    +0.041 C 
ATOM     42  C   UNL     1       4.441   0.428   0.256  0.00  0.00    +0.149 C 
ATOM     43  O   UNL     1       4.159   0.634  -1.143  0.00  0.00    -0.343 OA
ATOM     44  C   UNL     1       3.652   1.928  -1.537  0.00  0.00    +0.282 C 
ATOM     45  C   UNL     1       2.361   2.193  -0.730  0.00  0.00    +0.202 C 
ATOM     46  C   UNL     1       2.744   2.190   0.765  0.00  0.00    +0.186 C 
ATOM     47  C   UNL     1       3.283   0.821   1.184  0.00  0.00    +0.174 C 
BRANCH  47  48
ATOM     48  O   UNL     1       2.255  -0.178   1.163  0.00  0.00    -0.387 OA
ATOM     49  H   UNL     1       1.588   0.103   0.501  0.00  0.00    +0.210 HD
ENDBRANCH  47  48
BRANCH  45  50
ATOM     50  O   UNL     1       1.358   1.189  -0.990  0.00  0.00    -0.384 OA
ATOM     51  H   UNL     1       1.657   0.684  -1.773  0.00  0.00    +0.210 HD
ENDBRANCH  45  50
BRANCH  46  52
ATOM     52  O   UNL     1       1.626   2.638   1.529  0.00  0.00    -0.340 OA
BRANCH  52  53
ATOM     53  C   UNL     1       1.729   2.572   2.962  0.00  0.00    +0.282 C 
ATOM     54  O   UNL     1       0.458   3.021   3.502  0.00  0.00    -0.341 OA
ATOM     55  C   UNL     1       0.184   4.361   3.062  0.00  0.00    +0.178 C 
ATOM     56  C   UNL     1       1.270   5.277   3.657  0.00  0.00    +0.177 C 
ATOM     57  C   UNL     1       2.694   4.896   3.281  0.00  0.00    +0.179 C 
ATOM     58  C   UNL     1       2.909   3.415   3.552  0.00  0.00    +0.201 C 
BRANCH  58  59
ATOM     59  O   UNL     1       4.217   3.047   3.084  0.00  0.00    -0.384 OA
ATOM     60  H   UNL     1       4.599   3.855   2.684  0.00  0.00    +0.210 HD
ENDBRANCH  58  59
BRANCH  57  61
ATOM     61  O   UNL     1       3.081   5.240   1.945  0.00  0.00    -0.386 OA
ATOM     62  H   UNL     1       2.507   4.770   1.305  0.00  0.00    +0.210 HD
ENDBRANCH  57  61
BRANCH  56  63
ATOM     63  O   UNL     1       1.175   5.353   5.079  0.00  0.00    -0.386 OA
ATOM     64  H   UNL     1       1.675   6.146   5.348  0.00  0.00    +0.210 HD
ENDBRANCH  56  63
BRANCH  55  65
ATOM     65  C   UNL     1      -1.246   4.887   3.359  0.00  0.00    +0.190 C 
BRANCH  65  66
ATOM     66  O   UNL     1      -2.280   4.075   2.803  0.00  0.00    -0.392 OA
ATOM     67  H   UNL     1      -2.190   4.104   1.835  0.00  0.00    +0.210 HD
ENDBRANCH  65  66
ENDBRANCH  55  65
ENDBRANCH  52  53
ENDBRANCH  46  52
ENDBRANCH  40  44
ENDBRANCH  39  40
ENDBRANCH   1  39
TORSDOF 22
