REMARK  Name = 
REMARK  13 active torsions:
REMARK  status: ('A' for Active; 'I' for Inactive)
REMARK    1  A    between atoms: C_1  and  O_2
REMARK    2  A    between atoms: O_2  and  C_3
REMARK    3  A    between atoms: C_4  and  C_16
REMARK    4  A    between atoms: C_8  and  O_15
REMARK    5  A    between atoms: C_10  and  O_14
REMARK    6  A    between atoms: C_18  and  O_37
REMARK    7  A    between atoms: C_19  and  O_22
REMARK    8  A    between atoms: O_22  and  C_23
REMARK    9  A    between atoms: C_25  and  O_36
REMARK   10  A    between atoms: C_27  and  O_35
REMARK   11  A    between atoms: C_28  and  O_34
REMARK   12  A    between atoms: C_29  and  C_32
REMARK   13  A    between atoms: C_32  and  O_33
REMARK                            x       y       z     vdW  Elec       q    Type
REMARK                         _______ _______ _______ _____ _____    ______ ____
ROOT
ATOM      1  C   UNL     1       4.597  -0.692   2.085  0.00  0.00    +0.025 A 
ATOM      2  C   UNL     1       3.635  -1.643   2.447  0.00  0.00    +0.015 A 
ATOM      3  C   UNL     1       3.985  -2.985   2.644  0.00  0.00    +0.050 A 
ATOM      4  C   UNL     1       5.304  -3.408   2.470  0.00  0.00    +0.165 A 
ATOM      5  C   UNL     1       6.268  -2.443   2.142  0.00  0.00    +0.159 A 
ATOM      6  C   UNL     1       5.929  -1.097   1.951  0.00  0.00    +0.060 A 
ENDROOT
BRANCH   1  17
ATOM      7  C   UNL     1       4.014   1.638   2.704  0.00  0.00    +0.211 A 
ATOM      8  C   UNL     1       3.414   2.937   2.261  0.00  0.00    +0.238 A 
ATOM      9  O   UNL     1       2.953   3.739   3.063  0.00  0.00    -0.283 OA
ATOM     10  C   UNL     1       3.336   3.171   0.803  0.00  0.00    +0.109 A 
ATOM     11  C   UNL     1       3.544   2.078  -0.040  0.00  0.00    +0.147 A 
ATOM     12  C   UNL     1       3.402   2.206  -1.425  0.00  0.00    +0.092 A 
ATOM     13  C   UNL     1       3.072   3.443  -1.962  0.00  0.00    +0.124 A 
ATOM     14  C   UNL     1       2.888   4.555  -1.142  0.00  0.00    +0.091 A 
ATOM     15  O   UNL     1       3.884   0.835   0.424  0.00  0.00    -0.451 OA
ATOM     16  C   UNL     1       3.020   4.415   0.238  0.00  0.00    +0.135 A 
ATOM     17  C   UNL     1       4.170   0.679   1.769  0.00  0.00    +0.181 A 
BRANCH   7  19
ATOM     18  C   UNL     1       4.887   2.485   4.738  0.00  0.00    +0.277 C 
ATOM     19  O   UNL     1       4.292   1.389   4.046  0.00  0.00    -0.488 OA
ENDBRANCH   7  19
BRANCH  13  20
ATOM     20  O   UNL     1       2.923   3.622  -3.306  0.00  0.00    -0.507 OA
ATOM     21  H   UNL     1       3.063   2.773  -3.758  0.00  0.00    +0.292 HD
ENDBRANCH  13  20
BRANCH  16  22
ATOM     22  O   UNL     1       2.875   5.523   1.028  0.00  0.00    -0.506 OA
ATOM     23  H   UNL     1       2.544   6.268   0.501  0.00  0.00    +0.292 HD
ENDBRANCH  16  22
ENDBRANCH   1  17
BRANCH   5  24
ATOM     24  O   UNL     1       7.572  -2.848   2.020  0.00  0.00    -0.503 OA
ATOM     25  H   UNL     1       8.129  -2.080   1.810  0.00  0.00    +0.292 HD
ENDBRANCH   5  24
BRANCH   4  26
ATOM     26  O   UNL     1       5.757  -4.704   2.571  0.00  0.00    -0.457 OA
BRANCH  26  27
ATOM     27  C   UNL     1       4.869  -5.681   3.108  0.00  0.00    +0.339 C 
ATOM     28  O   UNL     1       4.723  -5.562   4.525  0.00  0.00    -0.331 OA
ATOM     29  C   UNL     1       5.804  -6.060   5.340  0.00  0.00    +0.179 C 
ATOM     30  C   UNL     1       6.218  -7.494   4.967  0.00  0.00    +0.177 C 
ATOM     31  C   UNL     1       6.464  -7.625   3.455  0.00  0.00    +0.180 C 
ATOM     32  C   UNL     1       5.244  -7.121   2.682  0.00  0.00    +0.214 C 
BRANCH  30  33
ATOM     33  O   UNL     1       5.168  -8.398   5.381  0.00  0.00    -0.386 OA
ATOM     34  H   UNL     1       4.456  -8.335   4.710  0.00  0.00    +0.210 HD
ENDBRANCH  30  33
BRANCH  31  35
ATOM     35  O   UNL     1       6.712  -8.998   3.111  0.00  0.00    -0.386 OA
ATOM     36  H   UNL     1       5.886  -9.474   3.322  0.00  0.00    +0.210 HD
ENDBRANCH  31  35
BRANCH  32  37
ATOM     37  O   UNL     1       4.145  -8.030   2.976  0.00  0.00    -0.383 OA
ATOM     38  H   UNL     1       3.323  -7.624   2.645  0.00  0.00    +0.210 HD
ENDBRANCH  32  37
BRANCH  29  39
ATOM     39  C   UNL     1       6.999  -5.093   5.444  0.00  0.00    +0.190 C 
BRANCH  39  40
ATOM     40  O   UNL     1       7.835  -5.077   4.297  0.00  0.00    -0.392 OA
ATOM     41  H   UNL     1       7.408  -4.512   3.620  0.00  0.00    +0.210 HD
ENDBRANCH  39  40
ENDBRANCH  29  39
ENDBRANCH  26  27
ENDBRANCH   4  26
TORSDOF 12
