REMARK  Name = 
REMARK  22 active torsions:
REMARK  status: ('A' for Active; 'I' for Inactive)
REMARK    1  A    between atoms: C_1  and  C_2
REMARK    2  A    between atoms: C_3  and  O_62
REMARK    3  A    between atoms: C_5  and  O_49
REMARK    4  A    between atoms: C_6  and  O_48
REMARK    5  A    between atoms: C_8  and  O_11
REMARK    6  A    between atoms: O_11  and  C_12
REMARK    7  A    between atoms: C_12  and  C_13
REMARK    8  A    between atoms: C_14  and  O_47
REMARK    9  A    between atoms: C_16  and  O_46
REMARK   10  A    between atoms: C_18  and  O_45
REMARK   11  A    between atoms: C_19  and  O_22
REMARK   12  A    between atoms: O_22  and  C_23
REMARK   13  A    between atoms: C_24  and  C_36
REMARK   14  A    between atoms: C_28  and  O_35
REMARK   15  A    between atoms: C_30  and  O_34
REMARK   16  A    between atoms: C_38  and  O_43
REMARK   17  A    between atoms: C_39  and  O_42
REMARK   18  A    between atoms: O_43  and  C_44
REMARK   19  A    between atoms: O_49  and  C_50
REMARK   20  A    between atoms: C_52  and  O_61
REMARK   21  A    between atoms: C_53  and  O_60
REMARK   22  A    between atoms: C_55  and  O_59
REMARK                            x       y       z     vdW  Elec       q    Type
REMARK                         _______ _______ _______ _____ _____    ______ ____
ROOT
ATOM      1  C   UNL     1       3.257   3.943  -4.285  0.00  0.00    +0.179 C 
ATOM      2  O   UNL     1       3.739   4.876  -3.297  0.00  0.00    -0.331 OA
ATOM      3  C   UNL     1       2.944   5.991  -2.876  0.00  0.00    +0.340 C 
ATOM      4  C   UNL     1       2.029   6.588  -3.979  0.00  0.00    +0.214 C 
ATOM      5  C   UNL     1       1.283   5.452  -4.675  0.00  0.00    +0.180 C 
ATOM      6  C   UNL     1       2.314   4.555  -5.353  0.00  0.00    +0.177 C 
ENDROOT
BRANCH   6   7
ATOM      7  O   UNL     1       1.611   3.572  -6.128  0.00  0.00    -0.386 OA
ATOM      8  H   UNL     1       2.250   3.197  -6.763  0.00  0.00    +0.210 HD
ENDBRANCH   6   7
BRANCH   5   9
ATOM      9  O   UNL     1       0.339   5.941  -5.637  0.00  0.00    -0.386 OA
ATOM     10  H   UNL     1       0.128   5.174  -6.206  0.00  0.00    +0.210 HD
ENDBRANCH   5   9
BRANCH   4  11
ATOM     11  O   UNL     1       2.786   7.335  -4.957  0.00  0.00    -0.383 OA
ATOM     12  H   UNL     1       3.733   7.260  -4.723  0.00  0.00    +0.210 HD
ENDBRANCH   4  11
BRANCH   3  13
ATOM     13  O   UNL     1       3.703   7.127  -2.348  0.00  0.00    -0.453 OA
BRANCH  13  14
ATOM     14  C   UNL     1       4.879   6.847  -1.669  0.00  0.00    +0.214 A 
ATOM     15  C   UNL     1       6.061   6.367  -2.478  0.00  0.00    +0.238 A 
ATOM     16  O   UNL     1       5.958   6.240  -3.680  0.00  0.00    -0.283 OA
ATOM     17  C   UNL     1       7.377   6.267  -1.789  0.00  0.00    +0.109 A 
ATOM     18  C   UNL     1       7.438   6.608  -0.443  0.00  0.00    +0.147 A 
ATOM     19  C   UNL     1       8.645   6.598   0.268  0.00  0.00    +0.092 A 
ATOM     20  C   UNL     1       9.813   6.253  -0.397  0.00  0.00    +0.124 A 
ATOM     21  C   UNL     1       9.785   5.923  -1.747  0.00  0.00    +0.091 A 
ATOM     22  O   UNL     1       6.344   7.041   0.247  0.00  0.00    -0.451 OA
ATOM     23  C   UNL     1       8.570   5.933  -2.442  0.00  0.00    +0.135 A 
ATOM     24  C   UNL     1       5.210   7.387  -0.478  0.00  0.00    +0.181 A 
BRANCH  24  25
ATOM     25  C   UNL     1       4.583   8.598   0.100  0.00  0.00    +0.025 A 
ATOM     26  C   UNL     1       5.468   9.640   0.463  0.00  0.00    +0.015 A 
ATOM     27  C   UNL     1       5.010  10.825   1.025  0.00  0.00    +0.050 A 
ATOM     28  C   UNL     1       3.643  11.034   1.133  0.00  0.00    +0.158 A 
ATOM     29  C   UNL     1       2.739  10.053   0.705  0.00  0.00    +0.162 A 
ATOM     30  C   UNL     1       3.215   8.810   0.254  0.00  0.00    +0.061 A 
BRANCH  29  31
ATOM     31  O   UNL     1       1.376  10.185   0.664  0.00  0.00    -0.491 OA
ATOM     32  C   UNL     1       0.883  11.482   0.325  0.00  0.00    +0.277 C 
ENDBRANCH  29  31
BRANCH  28  33
ATOM     33  O   UNL     1       3.219  12.222   1.657  0.00  0.00    -0.503 OA
ATOM     34  H   UNL     1       3.878  12.898   1.421  0.00  0.00    +0.292 HD
ENDBRANCH  28  33
ENDBRANCH  24  25
BRANCH  23  35
ATOM     35  O   UNL     1       8.579   5.627  -3.771  0.00  0.00    -0.506 OA
ATOM     36  H   UNL     1       9.490   5.569  -4.099  0.00  0.00    +0.292 HD
ENDBRANCH  23  35
BRANCH  20  37
ATOM     37  O   UNL     1      11.019   6.240   0.234  0.00  0.00    -0.507 OA
ATOM     38  H   UNL     1      10.901   6.466   1.172  0.00  0.00    +0.292 HD
ENDBRANCH  20  37
ENDBRANCH  13  14
ENDBRANCH   3  13
BRANCH   1  39
ATOM     39  C   UNL     1       2.656   2.653  -3.663  0.00  0.00    +0.197 C 
BRANCH  39  40
ATOM     40  O   UNL     1       3.580   1.828  -2.957  0.00  0.00    -0.346 OA
BRANCH  40  44
ATOM     41  C   UNL     1       5.848   1.309   0.666  0.00  0.00    +0.041 C 
ATOM     42  C   UNL     1       4.539   0.594   0.341  0.00  0.00    +0.149 C 
ATOM     43  O   UNL     1       4.232   0.693  -1.060  0.00  0.00    -0.343 OA
ATOM     44  C   UNL     1       3.731   1.957  -1.544  0.00  0.00    +0.282 C 
ATOM     45  C   UNL     1       2.467   2.345  -0.741  0.00  0.00    +0.202 C 
ATOM     46  C   UNL     1       2.849   2.410   0.744  0.00  0.00    +0.186 C 
ATOM     47  C   UNL     1       3.371   1.053   1.235  0.00  0.00    +0.174 C 
BRANCH  47  48
ATOM     48  O   UNL     1       2.323   0.073   1.209  0.00  0.00    -0.387 OA
ATOM     49  H   UNL     1       2.154  -0.135   0.265  0.00  0.00    +0.210 HD
ENDBRANCH  47  48
BRANCH  45  50
ATOM     50  O   UNL     1       1.382   1.421  -0.930  0.00  0.00    -0.384 OA
ATOM     51  H   UNL     1       0.799   1.523  -0.149  0.00  0.00    +0.210 HD
ENDBRANCH  45  50
BRANCH  46  52
ATOM     52  O   UNL     1       1.706   2.924   1.449  0.00  0.00    -0.340 OA
BRANCH  52  53
ATOM     53  C   UNL     1       1.887   3.195   2.849  0.00  0.00    +0.282 C 
ATOM     54  O   UNL     1       0.657   3.728   3.365  0.00  0.00    -0.346 OA
ATOM     55  C   UNL     1       0.283   4.991   2.796  0.00  0.00    +0.197 C 
ATOM     56  C   UNL     1       1.371   6.072   2.934  0.00  0.00    +0.171 C 
ATOM     57  C   UNL     1       2.733   5.542   2.469  0.00  0.00    +0.178 C 
ATOM     58  C   UNL     1       3.021   4.200   3.175  0.00  0.00    +0.201 C 
BRANCH  58  59
ATOM     59  O   UNL     1       4.323   3.695   2.850  0.00  0.00    -0.384 OA
ATOM     60  H   UNL     1       4.788   4.382   2.338  0.00  0.00    +0.210 HD
ENDBRANCH  58  59
BRANCH  57  61
ATOM     61  O   UNL     1       2.773   5.419   1.042  0.00  0.00    -0.386 OA
ATOM     62  H   UNL     1       2.031   4.830   0.788  0.00  0.00    +0.210 HD
ENDBRANCH  57  61
BRANCH  56  63
ATOM     63  O   UNL     1       1.467   6.465   4.306  0.00  0.00    -0.387 OA
ATOM     64  H   UNL     1       2.210   7.089   4.394  0.00  0.00    +0.210 HD
ENDBRANCH  56  63
ENDBRANCH  52  53
ENDBRANCH  46  52
ENDBRANCH  40  44
ENDBRANCH  39  40
ENDBRANCH   1  39
TORSDOF 20
