REMARK  Name = 
REMARK  18 active torsions:
REMARK  status: ('A' for Active; 'I' for Inactive)
REMARK    1  A    between atoms: C_1  and  O_2
REMARK    2  A    between atoms: O_2  and  C_3
REMARK    3  A    between atoms: C_5  and  O_50
REMARK    4  A    between atoms: C_10  and  C_41
REMARK    5  A    between atoms: C_11  and  O_14
REMARK    6  A    between atoms: O_14  and  C_15
REMARK    7  A    between atoms: C_17  and  O_28
REMARK    8  A    between atoms: C_18  and  O_27
REMARK    9  A    between atoms: C_20  and  O_26
REMARK   10  A    between atoms: C_22  and  C_24
REMARK   11  A    between atoms: C_24  and  O_25
REMARK   12  A    between atoms: O_28  and  C_29
REMARK   13  A    between atoms: C_31  and  O_40
REMARK   14  A    between atoms: C_32  and  O_39
REMARK   15  A    between atoms: C_34  and  O_38
REMARK   16  A    between atoms: C_43  and  O_48
REMARK   17  A    between atoms: C_44  and  O_47
REMARK   18  A    between atoms: O_48  and  C_49
REMARK                            x       y       z     vdW  Elec       q    Type
REMARK                         _______ _______ _______ _____ _____    ______ ____
ROOT
ATOM      1  O   UNL     1       4.410   4.779  -5.294  0.00  0.00    -0.453 OA
ENDROOT
BRANCH   1   7
ATOM      2  C   UNL     1       6.895   9.736  -2.285  0.00  0.00    +0.127 A 
ATOM      3  C   UNL     1       5.893   8.848  -1.873  0.00  0.00    +0.092 A 
ATOM      4  C   UNL     1       5.288   8.014  -2.816  0.00  0.00    +0.147 A 
ATOM      5  O   UNL     1       4.325   7.115  -2.404  0.00  0.00    -0.451 OA
ATOM      6  C   UNL     1       4.117   6.010  -3.229  0.00  0.00    +0.181 A 
ATOM      7  C   UNL     1       4.547   5.910  -4.500  0.00  0.00    +0.214 A 
ATOM      8  C   UNL     1       4.957   7.214  -5.084  0.00  0.00    +0.238 A 
ATOM      9  O   UNL     1       4.648   7.550  -6.218  0.00  0.00    -0.283 OA
ATOM     10  C   UNL     1       5.668   8.090  -4.156  0.00  0.00    +0.109 A 
ATOM     11  C   UNL     1       6.689   8.937  -4.562  0.00  0.00    +0.135 A 
ATOM     12  C   UNL     1       7.296   9.769  -3.628  0.00  0.00    +0.092 A 
BRANCH   6  13
ATOM     13  C   UNL     1       3.206   4.995  -2.684  0.00  0.00    +0.025 A 
ATOM     14  C   UNL     1       1.825   5.188  -2.879  0.00  0.00    +0.015 A 
ATOM     15  C   UNL     1       0.917   4.190  -2.540  0.00  0.00    +0.050 A 
ATOM     16  C   UNL     1       1.398   3.002  -2.011  0.00  0.00    +0.158 A 
ATOM     17  C   UNL     1       2.764   2.798  -1.774  0.00  0.00    +0.162 A 
ATOM     18  C   UNL     1       3.672   3.809  -2.102  0.00  0.00    +0.061 A 
BRANCH  17  19
ATOM     19  O   UNL     1       3.075   1.563  -1.263  0.00  0.00    -0.491 OA
ATOM     20  C   UNL     1       4.454   1.303  -1.032  0.00  0.00    +0.277 C 
ENDBRANCH  17  19
BRANCH  16  21
ATOM     21  O   UNL     1       0.496   2.005  -1.753  0.00  0.00    -0.503 OA
ATOM     22  H   UNL     1       1.039   1.249  -1.454  0.00  0.00    +0.292 HD
ENDBRANCH  16  21
ENDBRANCH   6  13
BRANCH  11  23
ATOM     23  O   UNL     1       7.142   8.897  -5.847  0.00  0.00    -0.506 OA
ATOM     24  H   UNL     1       7.804   9.591  -5.989  0.00  0.00    +0.292 HD
ENDBRANCH  11  23
BRANCH   2  26
ATOM     25  C   UNL     1       7.191  10.687  -0.123  0.00  0.00    +0.277 C 
ATOM     26  O   UNL     1       7.584  10.606  -1.486  0.00  0.00    -0.495 OA
ENDBRANCH   2  26
ENDBRANCH   1   7
BRANCH   1  27
ATOM     27  C   UNL     1       5.465   4.581  -6.270  0.00  0.00    +0.340 C 
ATOM     28  O   UNL     1       4.902   4.111  -7.504  0.00  0.00    -0.331 OA
ATOM     29  C   UNL     1       4.216   2.853  -7.378  0.00  0.00    +0.179 C 
ATOM     30  C   UNL     1       5.178   1.748  -6.880  0.00  0.00    +0.177 C 
ATOM     31  C   UNL     1       5.878   2.189  -5.573  0.00  0.00    +0.180 C 
ATOM     32  C   UNL     1       6.549   3.569  -5.781  0.00  0.00    +0.221 C 
BRANCH  31  33
ATOM     33  O   UNL     1       4.948   2.170  -4.484  0.00  0.00    -0.386 OA
ATOM     34  H   UNL     1       4.301   2.893  -4.603  0.00  0.00    +0.210 HD
ENDBRANCH  31  33
BRANCH  30  35
ATOM     35  O   UNL     1       6.194   1.483  -7.855  0.00  0.00    -0.386 OA
ATOM     36  H   UNL     1       6.576   0.608  -7.653  0.00  0.00    +0.210 HD
ENDBRANCH  30  35
BRANCH  32  37
ATOM     37  O   UNL     1       7.301   4.126  -4.680  0.00  0.00    -0.337 OA
BRANCH  37  38
ATOM     38  C   UNL     1       8.304   3.300  -4.066  0.00  0.00    +0.282 C 
ATOM     39  O   UNL     1       8.766   3.957  -2.872  0.00  0.00    -0.346 OA
ATOM     40  C   UNL     1       9.569   5.123  -3.106  0.00  0.00    +0.197 C 
ATOM     41  C   UNL     1      10.815   4.850  -3.964  0.00  0.00    +0.171 C 
ATOM     42  C   UNL     1      10.432   4.108  -5.248  0.00  0.00    +0.178 C 
ATOM     43  C   UNL     1       9.539   2.901  -4.919  0.00  0.00    +0.201 C 
BRANCH  43  44
ATOM     44  O   UNL     1       9.197   2.177  -6.104  0.00  0.00    -0.384 OA
ATOM     45  H   UNL     1       9.260   2.811  -6.846  0.00  0.00    +0.210 HD
ENDBRANCH  43  44
BRANCH  42  46
ATOM     46  O   UNL     1       9.797   4.966  -6.203  0.00  0.00    -0.386 OA
ATOM     47  H   UNL     1       9.091   5.472  -5.758  0.00  0.00    +0.210 HD
ENDBRANCH  42  46
BRANCH  41  48
ATOM     48  O   UNL     1      11.742   4.061  -3.209  0.00  0.00    -0.387 OA
ATOM     49  H   UNL     1      12.555   3.960  -3.734  0.00  0.00    +0.210 HD
ENDBRANCH  41  48
ENDBRANCH  37  38
ENDBRANCH  32  37
BRANCH  29  50
ATOM     50  C   UNL     1       3.552   2.549  -8.736  0.00  0.00    +0.190 C 
BRANCH  50  51
ATOM     51  O   UNL     1       4.477   2.338  -9.798  0.00  0.00    -0.392 OA
ATOM     52  H   UNL     1       5.304   2.786  -9.535  0.00  0.00    +0.210 HD
ENDBRANCH  50  51
ENDBRANCH  29  50
ENDBRANCH   1  27
TORSDOF 16
