REMARK  Name = 
REMARK  10 active torsions:
REMARK  status: ('A' for Active; 'I' for Inactive)
REMARK    1  A    between atoms: C_2  and  O_33
REMARK    2  A    between atoms: C_4  and  O_32
REMARK    3  A    between atoms: C_5  and  O_31
REMARK    4  A    between atoms: C_6  and  O_9
REMARK    5  A    between atoms: O_9  and  C_10
REMARK    6  A    between atoms: C_11  and  O_30
REMARK    7  A    between atoms: C_14  and  C_16
REMARK    8  A    between atoms: C_17  and  O_29
REMARK    9  A    between atoms: C_21  and  O_28
REMARK   10  A    between atoms: C_23  and  O_27
REMARK                            x       y       z     vdW  Elec       q    Type
REMARK                         _______ _______ _______ _____ _____    ______ ____
ROOT
ATOM      1  C   UNL     1       2.759  -2.700  -0.167  0.00  0.00    +0.166 A 
ATOM      2  C   UNL     1       3.124  -4.032  -0.388  0.00  0.00    +0.061 A 
ATOM      3  C   UNL     1       4.403  -4.385  -0.835  0.00  0.00    +0.025 A 
ATOM      4  C   UNL     1       5.348  -3.381  -1.072  0.00  0.00    +0.015 A 
ATOM      5  C   UNL     1       5.005  -2.048  -0.848  0.00  0.00    +0.050 A 
ATOM      6  C   UNL     1       3.723  -1.715  -0.399  0.00  0.00    +0.159 A 
ENDROOT
BRANCH   3   7
ATOM      7  C   UNL     1       4.702  -5.810  -1.015  0.00  0.00    +0.181 A 
ATOM      8  O   UNL     1       4.362  -6.282  -2.271  0.00  0.00    -0.451 OA
ATOM      9  C   UNL     1       4.507  -7.622  -2.525  0.00  0.00    +0.147 A 
ATOM     10  C   UNL     1       4.916  -8.534  -1.556  0.00  0.00    +0.109 A 
ATOM     11  C   UNL     1       5.030  -9.892  -1.877  0.00  0.00    +0.135 A 
ATOM     12  C   UNL     1       4.756 -10.336  -3.167  0.00  0.00    +0.091 A 
ATOM     13  C   UNL     1       4.358  -9.413  -4.131  0.00  0.00    +0.124 A 
ATOM     14  C   UNL     1       5.233  -8.037  -0.212  0.00  0.00    +0.238 A 
ATOM     15  O   UNL     1       5.555  -8.827   0.671  0.00  0.00    -0.283 OA
ATOM     16  C   UNL     1       4.223  -8.061  -3.819  0.00  0.00    +0.092 A 
ATOM     17  C   UNL     1       5.141  -6.568   0.007  0.00  0.00    +0.208 A 
BRANCH  11  18
ATOM     18  O   UNL     1       5.412 -10.844  -0.969  0.00  0.00    -0.506 OA
ATOM     19  H   UNL     1       5.564 -10.399  -0.103  0.00  0.00    +0.292 HD
ENDBRANCH  11  18
BRANCH  13  20
ATOM     20  O   UNL     1       4.089  -9.800  -5.410  0.00  0.00    -0.507 OA
ATOM     21  H   UNL     1       4.257 -10.755  -5.491  0.00  0.00    +0.292 HD
ENDBRANCH  13  20
BRANCH  17  22
ATOM     22  O   UNL     1       5.468  -6.087   1.262  0.00  0.00    -0.501 OA
ATOM     23  H   UNL     1       5.541  -5.118   1.224  0.00  0.00    +0.292 HD
ENDBRANCH  17  22
ENDBRANCH   3   7
BRANCH   6  24
ATOM     24  O   UNL     1       3.452  -0.393  -0.197  0.00  0.00    -0.503 OA
ATOM     25  H   UNL     1       2.524  -0.346   0.098  0.00  0.00    +0.292 HD
ENDBRANCH   6  24
BRANCH   1  26
ATOM     26  O   UNL     1       1.512  -2.280   0.258  0.00  0.00    -0.457 OA
BRANCH  26  29
ATOM     27  C   UNL     1      -0.559  -5.102  -0.691  0.00  0.00    +0.198 C 
ATOM     28  O   UNL     1       0.230  -3.926  -0.845  0.00  0.00    -0.337 OA
ATOM     29  C   UNL     1       0.541  -3.329   0.426  0.00  0.00    +0.339 C 
ATOM     30  C   UNL     1      -0.781  -2.791   1.014  0.00  0.00    +0.214 C 
ATOM     31  C   UNL     1      -1.752  -3.976   1.207  0.00  0.00    +0.180 C 
ATOM     32  C   UNL     1      -1.929  -4.769  -0.106  0.00  0.00    +0.171 C 
BRANCH  30  33
ATOM     33  O   UNL     1      -1.414  -1.844   0.125  0.00  0.00    -0.383 OA
ATOM     34  H   UNL     1      -0.968  -1.930  -0.742  0.00  0.00    +0.210 HD
ENDBRANCH  30  33
BRANCH  31  35
ATOM     35  O   UNL     1      -3.019  -3.481   1.663  0.00  0.00    -0.386 OA
ATOM     36  H   UNL     1      -3.220  -2.704   1.109  0.00  0.00    +0.210 HD
ENDBRANCH  31  35
BRANCH  32  37
ATOM     37  O   UNL     1      -2.643  -5.983   0.125  0.00  0.00    -0.387 OA
ATOM     38  H   UNL     1      -2.998  -6.283  -0.730  0.00  0.00    +0.210 HD
ENDBRANCH  32  37
ENDBRANCH  26  29
ENDBRANCH   1  26
TORSDOF 10
