REMARK  Name = 
REMARK  22 active torsions:
REMARK  status: ('A' for Active; 'I' for Inactive)
REMARK    1  A    between atoms: C_1  and  C_2
REMARK    2  A    between atoms: C_2  and  O_4
REMARK    3  A    between atoms: O_4  and  C_5
REMARK    4  A    between atoms: C_9  and  O_22
REMARK    5  A    between atoms: C_11  and  O_18
REMARK    6  A    between atoms: C_12  and  O_14
REMARK    7  A    between atoms: O_14  and  C_15
REMARK    8  A    between atoms: C_15  and  C_17
REMARK    9  A    between atoms: O_18  and  C_19
REMARK   10  A    between atoms: C_19  and  C_21
REMARK   11  A    between atoms: O_22  and  C_23
REMARK   12  A    between atoms: C_23  and  C_24
REMARK   13  A    between atoms: C_25  and  O_56
REMARK   14  A    between atoms: C_27  and  O_55
REMARK   15  A    between atoms: C_28  and  O_54
REMARK   16  A    between atoms: C_29  and  O_32
REMARK   17  A    between atoms: O_32  and  C_33
REMARK   18  A    between atoms: C_34  and  C_46
REMARK   19  A    between atoms: C_38  and  O_45
REMARK   20  A    between atoms: C_40  and  O_44
REMARK   21  A    between atoms: C_48  and  O_53
REMARK   22  A    between atoms: C_49  and  O_52
REMARK                            x       y       z     vdW  Elec       q    Type
REMARK                         _______ _______ _______ _____ _____    ______ ____
ROOT
ATOM      1  C   UNL     1       4.448   0.422  -7.541  0.00  0.00    +0.179 C 
ATOM      2  O   UNL     1       4.292  -0.821  -8.274  0.00  0.00    -0.331 OA
ATOM      3  C   UNL     1       5.497  -1.615  -8.400  0.00  0.00    +0.340 C 
ATOM      4  C   UNL     1       6.544  -0.770  -9.163  0.00  0.00    +0.214 C 
ATOM      5  C   UNL     1       6.816   0.526  -8.394  0.00  0.00    +0.180 C 
ATOM      6  C   UNL     1       5.517   1.321  -8.185  0.00  0.00    +0.177 C 
ENDROOT
BRANCH   6   7
ATOM      7  O   UNL     1       5.010   1.805  -9.445  0.00  0.00    -0.386 OA
ATOM      8  H   UNL     1       4.730   1.020  -9.956  0.00  0.00    +0.210 HD
ENDBRANCH   6   7
BRANCH   5   9
ATOM      9  O   UNL     1       7.772   1.313  -9.110  0.00  0.00    -0.386 OA
ATOM     10  H   UNL     1       7.402   1.389 -10.013  0.00  0.00    +0.210 HD
ENDBRANCH   5   9
BRANCH   4  11
ATOM     11  O   UNL     1       6.033  -0.444 -10.481  0.00  0.00    -0.383 OA
ATOM     12  H   UNL     1       5.385  -1.144 -10.688  0.00  0.00    +0.210 HD
ENDBRANCH   4  11
BRANCH   3  13
ATOM     13  O   UNL     1       5.163  -2.778  -9.189  0.00  0.00    -0.453 OA
BRANCH  13  14
ATOM     14  C   UNL     1       5.712  -4.000  -8.811  0.00  0.00    +0.214 A 
ATOM     15  C   UNL     1       7.070  -4.062  -8.202  0.00  0.00    +0.238 A 
ATOM     16  O   UNL     1       7.832  -3.108  -8.268  0.00  0.00    -0.283 OA
ATOM     17  C   UNL     1       7.477  -5.308  -7.563  0.00  0.00    +0.109 A 
ATOM     18  C   UNL     1       6.737  -6.451  -7.854  0.00  0.00    +0.147 A 
ATOM     19  C   UNL     1       7.149  -7.680  -7.325  0.00  0.00    +0.092 A 
ATOM     20  C   UNL     1       8.279  -7.731  -6.510  0.00  0.00    +0.124 A 
ATOM     21  C   UNL     1       9.005  -6.587  -6.199  0.00  0.00    +0.091 A 
ATOM     22  O   UNL     1       5.622  -6.423  -8.657  0.00  0.00    -0.451 OA
ATOM     23  C   UNL     1       8.598  -5.370  -6.722  0.00  0.00    +0.135 A 
ATOM     24  C   UNL     1       5.107  -5.187  -9.060  0.00  0.00    +0.181 A 
BRANCH  24  25
ATOM     25  C   UNL     1       3.812  -5.282  -9.799  0.00  0.00    +0.025 A 
ATOM     26  C   UNL     1       2.839  -6.235  -9.441  0.00  0.00    +0.015 A 
ATOM     27  C   UNL     1       1.594  -6.278 -10.090  0.00  0.00    +0.050 A 
ATOM     28  C   UNL     1       1.320  -5.368 -11.101  0.00  0.00    +0.158 A 
ATOM     29  C   UNL     1       2.282  -4.454 -11.503  0.00  0.00    +0.159 A 
ATOM     30  C   UNL     1       3.526  -4.425 -10.882  0.00  0.00    +0.060 A 
BRANCH  29  31
ATOM     31  O   UNL     1       1.958  -3.590 -12.513  0.00  0.00    -0.503 OA
ATOM     32  H   UNL     1       2.719  -3.008 -12.677  0.00  0.00    +0.292 HD
ENDBRANCH  29  31
BRANCH  28  33
ATOM     33  O   UNL     1       0.090  -5.369 -11.693  0.00  0.00    -0.503 OA
ATOM     34  H   UNL     1       0.121  -4.621 -12.323  0.00  0.00    +0.292 HD
ENDBRANCH  28  33
ENDBRANCH  24  25
BRANCH  20  35
ATOM     35  O   UNL     1       8.731  -8.898  -5.968  0.00  0.00    -0.507 OA
ATOM     36  H   UNL     1       8.159  -9.628  -6.255  0.00  0.00    +0.292 HD
ENDBRANCH  20  35
BRANCH  23  37
ATOM     37  O   UNL     1       9.280  -4.238  -6.379  0.00  0.00    -0.506 OA
ATOM     38  H   UNL     1      10.143  -4.466  -5.997  0.00  0.00    +0.292 HD
ENDBRANCH  23  37
ENDBRANCH  13  14
ENDBRANCH   3  13
BRANCH   1  39
ATOM     39  C   UNL     1       4.686   0.145  -6.053  0.00  0.00    +0.197 C 
BRANCH  39  40
ATOM     40  O   UNL     1       4.798   1.343  -5.281  0.00  0.00    -0.345 OA
BRANCH  40  44
ATOM     41  C   UNL     1       4.145   1.120  -1.152  0.00  0.00    +0.246 C 
ATOM     42  C   UNL     1       5.327   2.025  -1.553  0.00  0.00    +0.264 C 
ATOM     43  C   UNL     1       5.321   2.302  -3.080  0.00  0.00    +0.276 C 
ATOM     44  C   UNL     1       5.053   1.012  -3.903  0.00  0.00    +0.295 C 
ATOM     45  O   UNL     1       3.945   0.274  -3.394  0.00  0.00    -0.344 OA
ATOM     46  C   UNL     1       4.157  -0.126  -2.040  0.00  0.00    +0.211 C 
BRANCH  43  47
ATOM     47  O   UNL     1       6.532   2.984  -3.514  0.00  0.00    -0.452 OA
BRANCH  47  48
ATOM     48  C   UNL     1       7.713   2.316  -3.403  0.00  0.00    +0.304 C 
ATOM     49  C   UNL     1       8.860   3.168  -3.844  0.00  0.00    +0.136 C 
ATOM     50  O   UNL     1       7.829   1.155  -3.031  0.00  0.00    -0.251 OA
ENDBRANCH  47  48
ENDBRANCH  43  47
BRANCH  42  51
ATOM     51  O   UNL     1       5.218   3.268  -0.800  0.00  0.00    -0.454 OA
BRANCH  51  52
ATOM     52  C   UNL     1       6.367   3.928  -0.498  0.00  0.00    +0.304 C 
ATOM     53  C   UNL     1       6.076   5.168   0.293  0.00  0.00    +0.136 C 
ATOM     54  O   UNL     1       7.493   3.589  -0.833  0.00  0.00    -0.251 OA
ENDBRANCH  51  52
ENDBRANCH  42  51
BRANCH  41  55
ATOM     55  O   UNL     1       2.915   1.847  -1.393  0.00  0.00    -0.455 OA
BRANCH  55  57
ATOM     56  C   UNL     1       0.595   1.844  -1.669  0.00  0.00    +0.136 C 
ATOM     57  C   UNL     1       1.778   1.232  -0.975  0.00  0.00    +0.304 C 
ATOM     58  O   UNL     1       1.726   0.270  -0.230  0.00  0.00    -0.251 OA
ENDBRANCH  55  57
ENDBRANCH  41  55
ENDBRANCH  40  44
ENDBRANCH  39  40
ENDBRANCH   1  39
TORSDOF 19
