REMARK  Name = 
REMARK  22 active torsions:
REMARK  status: ('A' for Active; 'I' for Inactive)
REMARK    1  A    between atoms: C_3  and  O_56
REMARK    2  A    between atoms: C_4  and  O_55
REMARK    3  A    between atoms: C_6  and  C_7
REMARK    4  A    between atoms: C_8  and  O_34
REMARK    5  A    between atoms: C_12  and  O_33
REMARK    6  A    between atoms: C_14  and  O_18
REMARK    7  A    between atoms: O_18  and  C_19
REMARK    8  A    between atoms: C_21  and  O_32
REMARK    9  A    between atoms: C_22  and  O_31
REMARK   10  A    between atoms: C_24  and  O_30
REMARK   11  A    between atoms: C_26  and  C_28
REMARK   12  A    between atoms: C_28  and  O_29
REMARK   13  A    between atoms: O_34  and  C_35
REMARK   14  A    between atoms: C_37  and  O_54
REMARK   15  A    between atoms: C_38  and  O_53
REMARK   16  A    between atoms: C_40  and  O_52
REMARK   17  A    between atoms: C_42  and  C_44
REMARK   18  A    between atoms: C_44  and  O_45
REMARK   19  A    between atoms: O_45  and  C_46
REMARK   20  A    between atoms: C_46  and  C_48
REMARK   21  A    between atoms: C_48  and  C_49
REMARK   22  A    between atoms: C_49  and  O_51
REMARK                            x       y       z     vdW  Elec       q    Type
REMARK                         _______ _______ _______ _____ _____    ______ ____
ROOT
ATOM      1  C   UNL     1      -1.210  -2.697   0.234  0.00  0.00    +0.181 A 
ATOM      2  O   UNL     1      -0.527  -3.883   0.380  0.00  0.00    -0.451 OA
ATOM      3  C   UNL     1      -1.187  -5.054   0.100  0.00  0.00    +0.147 A 
ATOM      4  C   UNL     1      -2.528  -5.111  -0.258  0.00  0.00    +0.109 A 
ATOM      5  C   UNL     1      -3.106  -6.371  -0.491  0.00  0.00    +0.135 A 
ATOM      6  C   UNL     1      -2.331  -7.546  -0.453  0.00  0.00    +0.092 A 
ATOM      7  C   UNL     1      -0.962  -7.473  -0.185  0.00  0.00    +0.131 A 
ATOM      8  C   UNL     1      -3.250  -3.827  -0.419  0.00  0.00    +0.238 A 
ATOM      9  O   UNL     1      -4.433  -3.816  -0.739  0.00  0.00    -0.283 OA
ATOM     10  C   UNL     1      -0.422  -6.224   0.158  0.00  0.00    +0.093 A 
ATOM     11  C   UNL     1      -2.483  -2.562  -0.198  0.00  0.00    +0.214 A 
ENDROOT
BRANCH   1  13
ATOM     12  C   UNL     1      -0.639  -0.738   1.693  0.00  0.00    +0.015 A 
ATOM     13  C   UNL     1      -0.435  -1.495   0.537  0.00  0.00    +0.025 A 
ATOM     14  C   UNL     1       0.405  -0.980  -0.470  0.00  0.00    +0.060 A 
ATOM     15  C   UNL     1       0.956   0.281  -0.322  0.00  0.00    +0.159 A 
ATOM     16  C   UNL     1       0.682   1.057   0.801  0.00  0.00    +0.158 A 
ATOM     17  C   UNL     1      -0.088   0.540   1.840  0.00  0.00    +0.050 A 
BRANCH  16  18
ATOM     18  O   UNL     1       1.172   2.333   0.828  0.00  0.00    -0.503 OA
ATOM     19  H   UNL     1       0.647   2.844   1.470  0.00  0.00    +0.292 HD
ENDBRANCH  16  18
BRANCH  15  20
ATOM     20  O   UNL     1       1.748   0.792  -1.314  0.00  0.00    -0.503 OA
ATOM     21  H   UNL     1       2.068   1.644  -0.954  0.00  0.00    +0.292 HD
ENDBRANCH  15  20
ENDBRANCH   1  13
BRANCH   5  22
ATOM     22  O   UNL     1      -4.434  -6.536  -0.790  0.00  0.00    -0.506 OA
ATOM     23  H   UNL     1      -4.873  -5.659  -0.776  0.00  0.00    +0.292 HD
ENDBRANCH   5  22
BRANCH   7  24
ATOM     24  O   UNL     1      -0.219  -8.639  -0.335  0.00  0.00    -0.461 OA
BRANCH  24  25
ATOM     25  C   UNL     1       1.181  -8.390  -0.600  0.00  0.00    +0.339 C 
ATOM     26  O   UNL     1       1.327  -7.563  -1.758  0.00  0.00    -0.331 OA
ATOM     27  C   UNL     1       1.075  -8.268  -2.987  0.00  0.00    +0.179 C 
ATOM     28  C   UNL     1       2.225  -9.261  -3.200  0.00  0.00    +0.177 C 
ATOM     29  C   UNL     1       2.184 -10.301  -2.072  0.00  0.00    +0.180 C 
ATOM     30  C   UNL     1       2.098  -9.643  -0.683  0.00  0.00    +0.214 C 
BRANCH  28  31
ATOM     31  O   UNL     1       3.469  -8.548  -3.177  0.00  0.00    -0.386 OA
ATOM     32  H   UNL     1       4.204  -9.184  -3.200  0.00  0.00    +0.210 HD
ENDBRANCH  28  31
BRANCH  29  33
ATOM     33  O   UNL     1       1.107 -11.238  -2.254  0.00  0.00    -0.386 OA
ATOM     34  H   UNL     1       0.278 -10.812  -1.985  0.00  0.00    +0.210 HD
ENDBRANCH  29  33
BRANCH  30  35
ATOM     35  O   UNL     1       1.812 -10.615   0.328  0.00  0.00    -0.383 OA
ATOM     36  H   UNL     1       1.430 -11.396  -0.118  0.00  0.00    +0.210 HD
ENDBRANCH  30  35
BRANCH  27  37
ATOM     37  C   UNL     1       0.956  -7.249  -4.124  0.00  0.00    +0.190 C 
BRANCH  37  38
ATOM     38  O   UNL     1      -0.238  -6.467  -3.995  0.00  0.00    -0.392 OA
ATOM     39  H   UNL     1      -0.991  -7.075  -3.885  0.00  0.00    +0.210 HD
ENDBRANCH  37  38
ENDBRANCH  27  37
ENDBRANCH  24  25
ENDBRANCH   7  24
BRANCH  11  40
ATOM     40  O   UNL     1      -3.094  -1.325  -0.124  0.00  0.00    -0.453 OA
BRANCH  40  41
ATOM     41  C   UNL     1      -3.557  -0.626  -1.294  0.00  0.00    +0.340 C 
ATOM     42  O   UNL     1      -2.993   0.694  -1.340  0.00  0.00    -0.330 OA
ATOM     43  C   UNL     1      -3.559   1.768  -0.547  0.00  0.00    +0.191 C 
ATOM     44  C   UNL     1      -4.950   1.573   0.148  0.00  0.00    +0.178 C 
ATOM     45  C   UNL     1      -5.456   0.133   0.127  0.00  0.00    +0.180 C 
ATOM     46  C   UNL     1      -5.080  -0.483  -1.236  0.00  0.00    +0.214 C 
BRANCH  46  47
ATOM     47  O   UNL     1      -5.807  -1.680  -1.492  0.00  0.00    -0.383 OA
ATOM     48  H   UNL     1      -5.236  -2.456  -1.321  0.00  0.00    +0.210 HD
ENDBRANCH  46  47
BRANCH  45  49
ATOM     49  O   UNL     1      -4.963  -0.551   1.288  0.00  0.00    -0.386 OA
ATOM     50  H   UNL     1      -4.000  -0.701   1.161  0.00  0.00    +0.210 HD
ENDBRANCH  45  49
BRANCH  44  51
ATOM     51  O   UNL     1      -5.961   2.402  -0.447  0.00  0.00    -0.386 OA
ATOM     52  H   UNL     1      -6.798   2.248   0.031  0.00  0.00    +0.210 HD
ENDBRANCH  44  51
BRANCH  43  53
ATOM     53  C   UNL     1      -3.584   3.062  -1.404  0.00  0.00    +0.266 C 
BRANCH  53  54
ATOM     54  O   UNL     1      -2.380   3.238  -2.167  0.00  0.00    -0.462 OA
BRANCH  54  55
ATOM     55  C   UNL     1      -2.451   2.731  -3.432  0.00  0.00    +0.318 C 
ATOM     56  O   UNL     1      -3.382   2.088  -3.901  0.00  0.00    -0.250 OA
BRANCH  55  57
ATOM     57  C   UNL     1      -1.201   3.019  -4.193  0.00  0.00    +0.240 C 
BRANCH  57  58
ATOM     58  C   UNL     1      -1.034   4.462  -4.543  0.00  0.00    +0.316 C 
ATOM     59  O   UNL     1      -1.805   5.366  -4.255  0.00  0.00    -0.250 OA
BRANCH  58  60
ATOM     60  O   UNL     1       0.102   4.695  -5.243  0.00  0.00    -0.480 OA
ATOM     61  H   UNL     1       0.631   3.894  -5.431  0.00  0.00    +0.295 HD
ENDBRANCH  58  60
ENDBRANCH  57  58
ENDBRANCH  55  57
ENDBRANCH  54  55
ENDBRANCH  53  54
ENDBRANCH  43  53
ENDBRANCH  40  41
ENDBRANCH  11  40
TORSDOF 22
