REMARK  Name = 
REMARK  19 active torsions:
REMARK  status: ('A' for Active; 'I' for Inactive)
REMARK    1  A    between atoms: C_1  and  O_2
REMARK    2  A    between atoms: O_2  and  C_3
REMARK    3  A    between atoms: C_5  and  O_51
REMARK    4  A    between atoms: C_10  and  C_43
REMARK    5  A    between atoms: C_11  and  O_14
REMARK    6  A    between atoms: O_14  and  C_15
REMARK    7  A    between atoms: C_17  and  O_42
REMARK    8  A    between atoms: C_18  and  O_41
REMARK    9  A    between atoms: C_20  and  O_40
REMARK   10  A    between atoms: C_22  and  C_24
REMARK   11  A    between atoms: C_24  and  O_25
REMARK   12  A    between atoms: O_25  and  C_26
REMARK   13  A    between atoms: C_28  and  O_39
REMARK   14  A    between atoms: C_29  and  O_38
REMARK   15  A    between atoms: C_31  and  O_37
REMARK   16  A    between atoms: C_33  and  C_35
REMARK   17  A    between atoms: C_35  and  O_36
REMARK   18  A    between atoms: C_45  and  O_50
REMARK   19  A    between atoms: C_46  and  O_49
REMARK                            x       y       z     vdW  Elec       q    Type
REMARK                         _______ _______ _______ _____ _____    ______ ____
ROOT
ATOM      1  C   UNL     1       6.505  -1.929  -6.937  0.00  0.00    +0.340 C 
ATOM      2  O   UNL     1       5.715  -2.982  -6.369  0.00  0.00    -0.331 OA
ATOM      3  C   UNL     1       5.973  -3.253  -4.985  0.00  0.00    +0.179 C 
ATOM      4  C   UNL     1       7.464  -3.529  -4.683  0.00  0.00    +0.177 C 
ATOM      5  C   UNL     1       8.343  -2.418  -5.261  0.00  0.00    +0.180 C 
ATOM      6  C   UNL     1       8.011  -2.194  -6.737  0.00  0.00    +0.214 C 
ENDROOT
BRANCH   4   7
ATOM      7  O   UNL     1       7.863  -4.784  -5.247  0.00  0.00    -0.386 OA
ATOM      8  H   UNL     1       8.736  -5.013  -4.878  0.00  0.00    +0.210 HD
ENDBRANCH   4   7
BRANCH   5   9
ATOM      9  O   UNL     1       8.214  -1.200  -4.516  0.00  0.00    -0.386 OA
ATOM     10  H   UNL     1       7.357  -0.782  -4.726  0.00  0.00    +0.210 HD
ENDBRANCH   5   9
BRANCH   6  11
ATOM     11  O   UNL     1       8.807  -1.122  -7.261  0.00  0.00    -0.383 OA
ATOM     12  H   UNL     1       8.851  -0.445  -6.560  0.00  0.00    +0.210 HD
ENDBRANCH   6  11
BRANCH   1  13
ATOM     13  O   UNL     1       6.158  -0.624  -6.409  0.00  0.00    -0.453 OA
BRANCH  13  19
ATOM     14  C   UNL     1       0.823   1.613  -9.271  0.00  0.00    +0.127 A 
ATOM     15  C   UNL     1       1.819   2.251  -8.525  0.00  0.00    +0.092 A 
ATOM     16  C   UNL     1       2.903   1.514  -8.056  0.00  0.00    +0.147 A 
ATOM     17  O   UNL     1       3.888   2.166  -7.367  0.00  0.00    -0.451 OA
ATOM     18  C   UNL     1       4.905   1.417  -6.763  0.00  0.00    +0.181 A 
ATOM     19  C   UNL     1       5.144   0.106  -7.032  0.00  0.00    +0.214 A 
ATOM     20  C   UNL     1       4.291  -0.460  -8.125  0.00  0.00    +0.238 A 
ATOM     21  O   UNL     1       4.690  -1.282  -8.939  0.00  0.00    -0.283 OA
ATOM     22  C   UNL     1       2.989   0.163  -8.340  0.00  0.00    +0.109 A 
ATOM     23  C   UNL     1       1.940  -0.499  -8.975  0.00  0.00    +0.135 A 
ATOM     24  C   UNL     1       0.850   0.229  -9.443  0.00  0.00    +0.092 A 
BRANCH  18  25
ATOM     25  C   UNL     1       5.736   2.290  -5.888  0.00  0.00    +0.025 A 
ATOM     26  C   UNL     1       7.140   2.253  -5.951  0.00  0.00    +0.015 A 
ATOM     27  C   UNL     1       7.922   3.203  -5.282  0.00  0.00    +0.050 A 
ATOM     28  C   UNL     1       7.305   4.214  -4.569  0.00  0.00    +0.158 A 
ATOM     29  C   UNL     1       5.915   4.267  -4.481  0.00  0.00    +0.159 A 
ATOM     30  C   UNL     1       5.130   3.312  -5.124  0.00  0.00    +0.060 A 
BRANCH  28  31
ATOM     31  O   UNL     1       8.063   5.187  -3.989  0.00  0.00    -0.503 OA
ATOM     32  H   UNL     1       7.419   5.824  -3.621  0.00  0.00    +0.292 HD
ENDBRANCH  28  31
BRANCH  29  33
ATOM     33  O   UNL     1       5.366   5.309  -3.781  0.00  0.00    -0.503 OA
ATOM     34  H   UNL     1       4.397   5.229  -3.821  0.00  0.00    +0.292 HD
ENDBRANCH  29  33
ENDBRANCH  18  25
BRANCH  14  36
ATOM     35  C   UNL     1       0.118   3.537 -10.406  0.00  0.00    +0.277 C 
ATOM     36  O   UNL     1      -0.227   2.263  -9.861  0.00  0.00    -0.495 OA
ENDBRANCH  14  36
BRANCH  23  37
ATOM     37  O   UNL     1       1.980  -1.855  -9.124  0.00  0.00    -0.506 OA
ATOM     38  H   UNL     1       1.315  -2.140  -9.769  0.00  0.00    +0.292 HD
ENDBRANCH  23  37
ENDBRANCH  13  19
ENDBRANCH   1  13
BRANCH   3  39
ATOM     39  C   UNL     1       5.097  -4.438  -4.535  0.00  0.00    +0.197 C 
BRANCH  39  40
ATOM     40  O   UNL     1       5.150  -4.517  -3.103  0.00  0.00    -0.346 OA
BRANCH  40  41
ATOM     41  C   UNL     1       4.316  -5.563  -2.581  0.00  0.00    +0.282 C 
ATOM     42  O   UNL     1       2.936  -5.296  -2.843  0.00  0.00    -0.341 OA
ATOM     43  C   UNL     1       2.483  -4.050  -2.278  0.00  0.00    +0.178 C 
ATOM     44  C   UNL     1       2.683  -3.997  -0.747  0.00  0.00    +0.177 C 
ATOM     45  C   UNL     1       4.125  -4.366  -0.369  0.00  0.00    +0.179 C 
ATOM     46  C   UNL     1       4.549  -5.674  -1.056  0.00  0.00    +0.201 C 
BRANCH  44  47
ATOM     47  O   UNL     1       1.781  -4.898  -0.097  0.00  0.00    -0.386 OA
ATOM     48  H   UNL     1       1.907  -4.808   0.865  0.00  0.00    +0.210 HD
ENDBRANCH  44  47
BRANCH  45  49
ATOM     49  O   UNL     1       5.029  -3.299  -0.705  0.00  0.00    -0.386 OA
ATOM     50  H   UNL     1       5.223  -3.368  -1.663  0.00  0.00    +0.210 HD
ENDBRANCH  45  49
BRANCH  46  51
ATOM     51  O   UNL     1       5.924  -5.950  -0.751  0.00  0.00    -0.384 OA
ATOM     52  H   UNL     1       6.387  -5.090  -0.761  0.00  0.00    +0.210 HD
ENDBRANCH  46  51
BRANCH  43  53
ATOM     53  C   UNL     1       1.010  -3.847  -2.669  0.00  0.00    +0.190 C 
BRANCH  53  54
ATOM     54  O   UNL     1       0.819  -3.806  -4.087  0.00  0.00    -0.392 OA
ATOM     55  H   UNL     1       1.683  -3.691  -4.516  0.00  0.00    +0.210 HD
ENDBRANCH  53  54
ENDBRANCH  43  53
ENDBRANCH  40  41
ENDBRANCH  39  40
ENDBRANCH   3  39
TORSDOF 18
