REMARK  Name = 
REMARK  30 active torsions:
REMARK  status: ('A' for Active; 'I' for Inactive)
REMARK    1  A    between atoms: C_1  and  O_2
REMARK    2  A    between atoms: O_2  and  C_3
REMARK    3  A    between atoms: C_4  and  O_77
REMARK    4  A    between atoms: C_7  and  C_9
REMARK    5  A    between atoms: C_10  and  C_11
REMARK    6  A    between atoms: C_11  and  O_13
REMARK    7  A    between atoms: O_13  and  C_14
REMARK    8  A    between atoms: C_14  and  C_15
REMARK    9  A    between atoms: C_16  and  O_76
REMARK   10  A    between atoms: C_18  and  O_75
REMARK   11  A    between atoms: C_20  and  O_74
REMARK   12  A    between atoms: C_21  and  O_24
REMARK   13  A    between atoms: O_24  and  C_25
REMARK   14  A    between atoms: C_26  and  O_73
REMARK   15  A    between atoms: C_28  and  O_72
REMARK   16  A    between atoms: C_30  and  C_70
REMARK   17  A    between atoms: C_32  and  O_34
REMARK   18  A    between atoms: O_34  and  C_35
REMARK   19  A    between atoms: C_36  and  O_69
REMARK   20  A    between atoms: C_38  and  O_68
REMARK   21  A    between atoms: C_40  and  C_66
REMARK   22  A    between atoms: C_42  and  O_44
REMARK   23  A    between atoms: O_44  and  C_45
REMARK   24  A    between atoms: C_46  and  C_58
REMARK   25  A    between atoms: C_50  and  O_57
REMARK   26  A    between atoms: C_52  and  O_56
REMARK   27  A    between atoms: C_60  and  O_65
REMARK   28  A    between atoms: C_61  and  O_64
REMARK   29  A    between atoms: C_66  and  O_67
REMARK   30  A    between atoms: C_70  and  O_71
REMARK                            x       y       z     vdW  Elec       q    Type
REMARK                         _______ _______ _______ _____ _____    ______ ____
ROOT
ATOM      1  C   UNL     1      10.132  -5.268  -1.912  0.00  0.00    +0.208 C 
ATOM      2  C   UNL     1       9.781  -6.603  -1.089  0.00  0.00    +0.283 C 
ATOM      3  O   UNL     1      10.961  -7.400  -0.885  0.00  0.00    -0.341 OA
ATOM      4  C   UNL     1      11.640  -7.843  -2.079  0.00  0.00    +0.178 C 
ATOM      5  C   UNL     1      12.021  -6.623  -2.937  0.00  0.00    +0.177 C 
ATOM      6  C   UNL     1      10.714  -5.846  -3.231  0.00  0.00    +0.179 C 
ENDROOT
BRANCH   5   7
ATOM      7  O   UNL     1      12.978  -5.864  -2.170  0.00  0.00    -0.386 OA
ATOM      8  H   UNL     1      12.536  -5.714  -1.306  0.00  0.00    +0.210 HD
ENDBRANCH   5   7
BRANCH   6   9
ATOM      9  O   UNL     1      10.819  -4.936  -4.318  0.00  0.00    -0.386 OA
ATOM     10  H   UNL     1      11.323  -4.174  -3.979  0.00  0.00    +0.210 HD
ENDBRANCH   6   9
BRANCH   4  11
ATOM     11  C   UNL     1      10.866  -8.915  -2.860  0.00  0.00    +0.190 C 
BRANCH  11  12
ATOM     12  O   UNL     1      11.637  -9.403  -3.951  0.00  0.00    -0.392 OA
ATOM     13  H   UNL     1      11.573  -8.764  -4.684  0.00  0.00    +0.210 HD
ENDBRANCH  11  12
ENDBRANCH   4  11
BRANCH   2  14
ATOM     14  O   UNL     1       9.168  -6.326   0.171  0.00  0.00    -0.337 OA
BRANCH  14  15
ATOM     15  C   UNL     1       8.905  -7.477   1.033  0.00  0.00    +0.221 C 
ATOM     16  C   UNL     1       7.663  -8.356   0.687  0.00  0.00    +0.340 C 
ATOM     17  O   UNL     1       6.498  -7.533   0.513  0.00  0.00    -0.331 OA
ATOM     18  C   UNL     1       6.168  -6.674   1.635  0.00  0.00    +0.179 C 
ATOM     19  C   UNL     1       7.381  -5.965   2.278  0.00  0.00    +0.177 C 
ATOM     20  C   UNL     1       8.569  -6.918   2.422  0.00  0.00    +0.180 C 
BRANCH  20  21
ATOM     21  O   UNL     1       9.656  -6.210   3.032  0.00  0.00    -0.386 OA
ATOM     22  H   UNL     1      10.463  -6.736   2.884  0.00  0.00    +0.210 HD
ENDBRANCH  20  21
BRANCH  19  23
ATOM     23  O   UNL     1       7.076  -5.393   3.557  0.00  0.00    -0.386 OA
ATOM     24  H   UNL     1       7.957  -5.173   3.930  0.00  0.00    +0.210 HD
ENDBRANCH  19  23
BRANCH  18  25
ATOM     25  C   UNL     1       5.246  -7.348   2.675  0.00  0.00    +0.190 C 
BRANCH  25  26
ATOM     26  O   UNL     1       5.900  -8.345   3.463  0.00  0.00    -0.392 OA
ATOM     27  H   UNL     1       5.605  -8.181   4.379  0.00  0.00    +0.210 HD
ENDBRANCH  25  26
ENDBRANCH  18  25
BRANCH  16  28
ATOM     28  O   UNL     1       7.967  -9.160  -0.463  0.00  0.00    -0.453 OA
BRANCH  28  29
ATOM     29  C   UNL     1       7.405 -10.424  -0.603  0.00  0.00    +0.214 A 
ATOM     30  C   UNL     1       6.954 -10.755  -2.007  0.00  0.00    +0.238 A 
ATOM     31  O   UNL     1       6.982  -9.884  -2.870  0.00  0.00    -0.283 OA
ATOM     32  C   UNL     1       6.571 -12.162  -2.308  0.00  0.00    +0.109 A 
ATOM     33  C   UNL     1       6.576 -13.067  -1.250  0.00  0.00    +0.147 A 
ATOM     34  C   UNL     1       6.292 -14.426  -1.447  0.00  0.00    +0.092 A 
ATOM     35  C   UNL     1       5.977 -14.879  -2.720  0.00  0.00    +0.124 A 
ATOM     36  C   UNL     1       5.940 -13.994  -3.792  0.00  0.00    +0.091 A 
ATOM     37  O   UNL     1       6.863 -12.703   0.034  0.00  0.00    -0.451 OA
ATOM     38  C   UNL     1       6.242 -12.642  -3.588  0.00  0.00    +0.135 A 
ATOM     39  C   UNL     1       7.380 -11.444   0.293  0.00  0.00    +0.181 A 
BRANCH  39  40
ATOM     40  C   UNL     1       8.061 -11.489   1.603  0.00  0.00    +0.025 A 
ATOM     41  C   UNL     1       9.386 -11.959   1.619  0.00  0.00    +0.015 A 
ATOM     42  C   UNL     1      10.042 -12.210   2.823  0.00  0.00    +0.050 A 
ATOM     43  C   UNL     1       9.403 -11.910   4.014  0.00  0.00    +0.158 A 
ATOM     44  C   UNL     1       8.092 -11.440   4.019  0.00  0.00    +0.159 A 
ATOM     45  C   UNL     1       7.396 -11.269   2.821  0.00  0.00    +0.060 A 
BRANCH  44  46
ATOM     46  O   UNL     1       7.530 -11.152   5.233  0.00  0.00    -0.503 OA
ATOM     47  H   UNL     1       6.643 -10.783   5.078  0.00  0.00    +0.292 HD
ENDBRANCH  44  46
BRANCH  43  48
ATOM     48  O   UNL     1      10.102 -12.047   5.178  0.00  0.00    -0.503 OA
ATOM     49  H   UNL     1       9.567 -11.577   5.847  0.00  0.00    +0.292 HD
ENDBRANCH  43  48
ENDBRANCH  39  40
BRANCH  38  50
ATOM     50  O   UNL     1       6.211 -11.808  -4.670  0.00  0.00    -0.506 OA
ATOM     51  H   UNL     1       5.969 -12.305  -5.470  0.00  0.00    +0.292 HD
ENDBRANCH  38  50
BRANCH  35  52
ATOM     52  O   UNL     1       5.693 -16.190  -2.963  0.00  0.00    -0.507 OA
ATOM     53  H   UNL     1       5.770 -16.697  -2.137  0.00  0.00    +0.292 HD
ENDBRANCH  35  52
ENDBRANCH  28  29
ENDBRANCH  16  28
ENDBRANCH  14  15
ENDBRANCH   2  14
BRANCH   1  54
ATOM     54  O   UNL     1      11.070  -4.422  -1.169  0.00  0.00    -0.338 OA
BRANCH  54  57
ATOM     55  C   UNL     1      13.303  -2.731  -3.489  0.00  0.00    +0.190 C 
ATOM     56  O   UNL     1      12.174  -3.441  -2.989  0.00  0.00    -0.339 OA
ATOM     57  C   UNL     1      11.490  -3.155  -1.769  0.00  0.00    +0.282 C 
ATOM     58  C   UNL     1      12.357  -2.376  -0.727  0.00  0.00    +0.201 C 
ATOM     59  C   UNL     1      13.267  -1.366  -1.442  0.00  0.00    +0.179 C 
ATOM     60  C   UNL     1      14.183  -2.134  -2.400  0.00  0.00    +0.178 C 
BRANCH  58  61
ATOM     61  O   UNL     1      13.179  -3.270   0.055  0.00  0.00    -0.384 OA
ATOM     62  H   UNL     1      13.304  -4.080  -0.467  0.00  0.00    +0.210 HD
ENDBRANCH  58  61
BRANCH  59  63
ATOM     63  O   UNL     1      14.067  -0.599  -0.538  0.00  0.00    -0.386 OA
ATOM     64  H   UNL     1      14.770  -0.205  -1.093  0.00  0.00    +0.210 HD
ENDBRANCH  59  63
BRANCH  60  65
ATOM     65  O   UNL     1      15.184  -1.266  -2.944  0.00  0.00    -0.386 OA
ATOM     66  H   UNL     1      15.795  -1.830  -3.458  0.00  0.00    +0.210 HD
ENDBRANCH  60  65
BRANCH  55  67
ATOM     67  C   UNL     1      12.963  -1.679  -4.570  0.00  0.00    +0.266 C 
BRANCH  67  68
ATOM     68  O   UNL     1      12.091  -2.177  -5.594  0.00  0.00    -0.459 OA
BRANCH  68  69
ATOM     69  C   UNL     1      10.783  -1.949  -5.327  0.00  0.00    +0.332 C 
ATOM     70  O   UNL     1      10.347  -1.527  -4.277  0.00  0.00    -0.246 OA
BRANCH  69  72
ATOM     71  C   UNL     1       8.653  -2.066  -6.403  0.00  0.00    +0.015 C 
ATOM     72  C   UNL     1       9.980  -2.208  -6.529  0.00  0.00    +0.092 C 
BRANCH  71  75
ATOM     73  C   UNL     1       6.991  -1.603  -9.779  0.00  0.00    +0.162 A 
ATOM     74  C   UNL     1       7.972  -1.649  -8.784  0.00  0.00    +0.057 A 
ATOM     75  C   UNL     1       7.690  -2.144  -7.499  0.00  0.00    -0.021 A 
ATOM     76  C   UNL     1       6.407  -2.617  -7.220  0.00  0.00    +0.012 A 
ATOM     77  C   UNL     1       5.429  -2.593  -8.209  0.00  0.00    +0.050 A 
ATOM     78  C   UNL     1       5.711  -2.081  -9.477  0.00  0.00    +0.158 A 
BRANCH  73  80
ATOM     79  C   UNL     1       6.652  -0.340 -11.783  0.00  0.00    +0.277 C 
ATOM     80  O   UNL     1       7.476  -1.165 -10.978  0.00  0.00    -0.491 OA
ENDBRANCH  73  80
BRANCH  78  81
ATOM     81  O   UNL     1       4.653  -2.135 -10.336  0.00  0.00    -0.503 OA
ATOM     82  H   UNL     1       4.825  -1.571 -11.097  0.00  0.00    +0.292 HD
ENDBRANCH  78  81
ENDBRANCH  71  75
ENDBRANCH  69  72
ENDBRANCH  68  69
ENDBRANCH  67  68
ENDBRANCH  55  67
ENDBRANCH  54  57
ENDBRANCH   1  54
TORSDOF 29
