REMARK  Name = 
REMARK  24 active torsions:
REMARK  status: ('A' for Active; 'I' for Inactive)
REMARK    1  A    between atoms: C_3  and  O_63
REMARK    2  A    between atoms: C_4  and  O_62
REMARK    3  A    between atoms: C_6  and  C_7
REMARK    4  A    between atoms: C_8  and  O_34
REMARK    5  A    between atoms: C_12  and  O_33
REMARK    6  A    between atoms: C_14  and  O_18
REMARK    7  A    between atoms: O_18  and  C_19
REMARK    8  A    between atoms: C_21  and  O_32
REMARK    9  A    between atoms: C_22  and  O_31
REMARK   10  A    between atoms: C_24  and  O_30
REMARK   11  A    between atoms: C_26  and  C_28
REMARK   12  A    between atoms: C_28  and  O_29
REMARK   13  A    between atoms: O_34  and  C_35
REMARK   14  A    between atoms: C_37  and  O_47
REMARK   15  A    between atoms: C_38  and  O_46
REMARK   16  A    between atoms: C_39  and  O_45
REMARK   17  A    between atoms: C_41  and  C_43
REMARK   18  A    between atoms: C_43  and  O_44
REMARK   19  A    between atoms: O_47  and  C_48
REMARK   20  A    between atoms: C_50  and  O_61
REMARK   21  A    between atoms: C_52  and  O_60
REMARK   22  A    between atoms: C_53  and  O_59
REMARK   23  A    between atoms: C_55  and  C_57
REMARK   24  A    between atoms: C_57  and  O_58
REMARK                            x       y       z     vdW  Elec       q    Type
REMARK                         _______ _______ _______ _____ _____    ______ ____
ROOT
ATOM      1  C   UNL     1      -1.179  -2.787  -0.543  0.00  0.00    +0.181 A 
ATOM      2  O   UNL     1      -0.457  -3.982  -0.362  0.00  0.00    -0.451 OA
ATOM      3  C   UNL     1      -1.082  -5.189  -0.327  0.00  0.00    +0.147 A 
ATOM      4  C   UNL     1      -2.437  -5.315  -0.365  0.00  0.00    +0.109 A 
ATOM      5  C   UNL     1      -3.017  -6.590  -0.508  0.00  0.00    +0.135 A 
ATOM      6  C   UNL     1      -2.217  -7.740  -0.556  0.00  0.00    +0.092 A 
ATOM      7  C   UNL     1      -0.834  -7.619  -0.427  0.00  0.00    +0.131 A 
ATOM      8  C   UNL     1      -3.186  -4.075  -0.135  0.00  0.00    +0.238 A 
ATOM      9  O   UNL     1      -4.362  -4.226   0.162  0.00  0.00    -0.283 OA
ATOM     10  C   UNL     1      -0.288  -6.329  -0.283  0.00  0.00    +0.093 A 
ATOM     11  C   UNL     1      -2.515  -2.731  -0.287  0.00  0.00    +0.214 A 
ENDROOT
BRANCH   1  13
ATOM     12  C   UNL     1       0.902  -2.194  -1.787  0.00  0.00    +0.015 A 
ATOM     13  C   UNL     1      -0.228  -1.729  -1.045  0.00  0.00    +0.025 A 
ATOM     14  C   UNL     1      -0.349  -0.347  -0.908  0.00  0.00    +0.060 A 
ATOM     15  C   UNL     1       0.579   0.504  -1.530  0.00  0.00    +0.159 A 
ATOM     16  C   UNL     1       1.664   0.016  -2.259  0.00  0.00    +0.158 A 
ATOM     17  C   UNL     1       1.850  -1.344  -2.372  0.00  0.00    +0.050 A 
BRANCH  16  18
ATOM     18  O   UNL     1       2.513   0.912  -2.851  0.00  0.00    -0.503 OA
ATOM     19  H   UNL     1       3.157   0.411  -3.385  0.00  0.00    +0.292 HD
ENDBRANCH  16  18
BRANCH  15  20
ATOM     20  O   UNL     1       0.415   1.866  -1.445  0.00  0.00    -0.503 OA
ATOM     21  H   UNL     1       1.159   2.243  -1.958  0.00  0.00    +0.292 HD
ENDBRANCH  15  20
ENDBRANCH   1  13
BRANCH   5  22
ATOM     22  O   UNL     1      -4.367  -6.782  -0.635  0.00  0.00    -0.506 OA
ATOM     23  H   UNL     1      -4.817  -5.922  -0.482  0.00  0.00    +0.292 HD
ENDBRANCH   5  22
BRANCH  11  24
ATOM     24  O   UNL     1      -3.230  -1.613   0.131  0.00  0.00    -0.453 OA
BRANCH  24  25
ATOM     25  C   UNL     1      -3.989  -0.713  -0.713  0.00  0.00    +0.340 C 
ATOM     26  O   UNL     1      -4.732   0.232   0.119  0.00  0.00    -0.331 OA
ATOM     27  C   UNL     1      -6.169   0.111   0.352  0.00  0.00    +0.179 C 
ATOM     28  C   UNL     1      -6.969  -1.069  -0.296  0.00  0.00    +0.177 C 
ATOM     29  C   UNL     1      -6.014  -2.104  -0.884  0.00  0.00    +0.180 C 
ATOM     30  C   UNL     1      -4.971  -1.320  -1.701  0.00  0.00    +0.221 C 
BRANCH  29  31
ATOM     31  O   UNL     1      -6.721  -3.129  -1.559  0.00  0.00    -0.386 OA
ATOM     32  H   UNL     1      -7.491  -2.731  -1.998  0.00  0.00    +0.210 HD
ENDBRANCH  29  31
BRANCH  28  33
ATOM     33  O   UNL     1      -7.849  -0.639  -1.358  0.00  0.00    -0.386 OA
ATOM     34  H   UNL     1      -8.646  -1.200  -1.345  0.00  0.00    +0.210 HD
ENDBRANCH  28  33
BRANCH  27  35
ATOM     35  C   UNL     1      -6.868   1.458   0.019  0.00  0.00    +0.190 C 
BRANCH  35  36
ATOM     36  O   UNL     1      -6.221   2.595   0.583  0.00  0.00    -0.392 OA
ATOM     37  H   UNL     1      -5.913   2.358   1.472  0.00  0.00    +0.210 HD
ENDBRANCH  35  36
ENDBRANCH  27  35
BRANCH  30  38
ATOM     38  O   UNL     1      -4.464  -1.624  -2.965  0.00  0.00    -0.337 OA
BRANCH  38  39
ATOM     39  C   UNL     1      -3.757  -2.710  -3.481  0.00  0.00    +0.282 C 
ATOM     40  O   UNL     1      -3.383  -2.326  -4.838  0.00  0.00    -0.341 OA
ATOM     41  C   UNL     1      -4.515  -1.758  -5.537  0.00  0.00    +0.178 C 
ATOM     42  C   UNL     1      -5.657  -2.786  -5.666  0.00  0.00    +0.177 C 
ATOM     43  C   UNL     1      -5.896  -3.582  -4.373  0.00  0.00    +0.179 C 
ATOM     44  C   UNL     1      -4.613  -3.964  -3.619  0.00  0.00    +0.201 C 
BRANCH  44  45
ATOM     45  O   UNL     1      -3.937  -5.015  -4.335  0.00  0.00    -0.384 OA
ATOM     46  H   UNL     1      -3.695  -4.641  -5.209  0.00  0.00    +0.210 HD
ENDBRANCH  44  45
BRANCH  43  47
ATOM     47  O   UNL     1      -6.669  -4.758  -4.670  0.00  0.00    -0.386 OA
ATOM     48  H   UNL     1      -6.059  -5.512  -4.525  0.00  0.00    +0.210 HD
ENDBRANCH  43  47
BRANCH  42  49
ATOM     49  O   UNL     1      -5.420  -3.725  -6.720  0.00  0.00    -0.386 OA
ATOM     50  H   UNL     1      -6.167  -4.357  -6.640  0.00  0.00    +0.210 HD
ENDBRANCH  42  49
BRANCH  41  51
ATOM     51  C   UNL     1      -4.087  -1.157  -6.880  0.00  0.00    +0.190 C 
BRANCH  51  52
ATOM     52  O   UNL     1      -5.059  -0.211  -7.335  0.00  0.00    -0.392 OA
ATOM     53  H   UNL     1      -5.873  -0.701  -7.541  0.00  0.00    +0.210 HD
ENDBRANCH  51  52
ENDBRANCH  41  51
ENDBRANCH  38  39
ENDBRANCH  30  38
ENDBRANCH  24  25
ENDBRANCH  11  24
BRANCH   7  54
ATOM     54  O   UNL     1      -0.082  -8.786  -0.518  0.00  0.00    -0.461 OA
BRANCH  54  55
ATOM     55  C   UNL     1       1.314  -8.525  -0.770  0.00  0.00    +0.339 C 
ATOM     56  O   UNL     1       1.453  -7.738  -1.957  0.00  0.00    -0.331 OA
ATOM     57  C   UNL     1       1.152  -8.483  -3.151  0.00  0.00    +0.179 C 
ATOM     58  C   UNL     1       2.306  -9.470  -3.354  0.00  0.00    +0.177 C 
ATOM     59  C   UNL     1       2.301 -10.468  -2.181  0.00  0.00    +0.180 C 
ATOM     60  C   UNL     1       2.253  -9.757  -0.820  0.00  0.00    +0.214 C 
BRANCH  60  61
ATOM     61  O   UNL     1       2.024 -10.682   0.246  0.00  0.00    -0.383 OA
ATOM     62  H   UNL     1       1.543 -11.445  -0.128  0.00  0.00    +0.210 HD
ENDBRANCH  60  61
BRANCH  59  63
ATOM     63  O   UNL     1       1.231 -11.415  -2.293  0.00  0.00    -0.386 OA
ATOM     64  H   UNL     1       0.394 -10.985  -2.044  0.00  0.00    +0.210 HD
ENDBRANCH  59  63
BRANCH  58  65
ATOM     65  O   UNL     1       3.535  -8.731  -3.388  0.00  0.00    -0.386 OA
ATOM     66  H   UNL     1       4.286  -9.341  -3.296  0.00  0.00    +0.210 HD
ENDBRANCH  58  65
BRANCH  57  67
ATOM     67  C   UNL     1       0.988  -7.496  -4.312  0.00  0.00    +0.190 C 
BRANCH  67  68
ATOM     68  O   UNL     1      -0.206  -6.717  -4.165  0.00  0.00    -0.392 OA
ATOM     69  H   UNL     1      -0.969  -7.319  -4.116  0.00  0.00    +0.210 HD
ENDBRANCH  67  68
ENDBRANCH  57  67
ENDBRANCH  54  55
ENDBRANCH   7  54
TORSDOF 24
