REMARK  Name = 
REMARK  15 active torsions:
REMARK  status: ('A' for Active; 'I' for Inactive)
REMARK    1  A    between atoms: C_2  and  O_45
REMARK    2  A    between atoms: C_4  and  O_44
REMARK    3  A    between atoms: C_5  and  O_32
REMARK    4  A    between atoms: C_7  and  O_10
REMARK    5  A    between atoms: O_10  and  C_11
REMARK    6  A    between atoms: C_12  and  C_24
REMARK    7  A    between atoms: C_16  and  O_23
REMARK    8  A    between atoms: C_18  and  O_22
REMARK    9  A    between atoms: C_26  and  O_31
REMARK   10  A    between atoms: C_27  and  O_30
REMARK   11  A    between atoms: O_32  and  C_33
REMARK   12  A    between atoms: C_33  and  C_35
REMARK   13  A    between atoms: C_37  and  O_43
REMARK   14  A    between atoms: C_38  and  O_42
REMARK   15  A    between atoms: C_39  and  O_41
REMARK                            x       y       z     vdW  Elec       q    Type
REMARK                         _______ _______ _______ _____ _____    ______ ____
ROOT
ATOM      1  O   UNL     1       1.264  -2.370   0.237  0.00  0.00    -0.452 OA
ENDROOT
BRANCH   1   2
ATOM      2  C   UNL     1       2.383  -2.841  -0.436  0.00  0.00    +0.214 A 
ATOM      3  C   UNL     1       3.289  -1.917  -1.206  0.00  0.00    +0.238 A 
ATOM      4  O   UNL     1       2.977  -0.760  -1.461  0.00  0.00    -0.283 OA
ATOM      5  C   UNL     1       4.558  -2.473  -1.706  0.00  0.00    +0.109 A 
ATOM      6  C   UNL     1       4.733  -3.851  -1.631  0.00  0.00    +0.147 A 
ATOM      7  C   UNL     1       5.882  -4.450  -2.160  0.00  0.00    +0.092 A 
ATOM      8  C   UNL     1       6.856  -3.653  -2.755  0.00  0.00    +0.124 A 
ATOM      9  C   UNL     1       6.710  -2.273  -2.814  0.00  0.00    +0.091 A 
ATOM     10  O   UNL     1       3.814  -4.690  -1.058  0.00  0.00    -0.451 OA
ATOM     11  C   UNL     1       5.564  -1.682  -2.284  0.00  0.00    +0.135 A 
ATOM     12  C   UNL     1       2.698  -4.157  -0.416  0.00  0.00    +0.181 A 
BRANCH  12  13
ATOM     13  C   UNL     1       1.870  -5.222   0.242  0.00  0.00    +0.025 A 
ATOM     14  C   UNL     1       1.889  -6.536  -0.277  0.00  0.00    +0.015 A 
ATOM     15  C   UNL     1       1.138  -7.571   0.294  0.00  0.00    +0.050 A 
ATOM     16  C   UNL     1       0.353  -7.301   1.400  0.00  0.00    +0.158 A 
ATOM     17  C   UNL     1       0.313  -6.022   1.938  0.00  0.00    +0.159 A 
ATOM     18  C   UNL     1       1.070  -4.992   1.380  0.00  0.00    +0.060 A 
BRANCH  16  19
ATOM     19  O   UNL     1      -0.421  -8.291   1.934  0.00  0.00    -0.503 OA
ATOM     20  H   UNL     1      -0.761  -7.921   2.775  0.00  0.00    +0.292 HD
ENDBRANCH  16  19
BRANCH  17  21
ATOM     21  O   UNL     1      -0.522  -5.817   3.002  0.00  0.00    -0.503 OA
ATOM     22  H   UNL     1      -0.432  -4.891   3.292  0.00  0.00    +0.292 HD
ENDBRANCH  17  21
ENDBRANCH  12  13
BRANCH   8  23
ATOM     23  O   UNL     1       7.987  -4.185  -3.299  0.00  0.00    -0.507 OA
ATOM     24  H   UNL     1       7.953  -5.154  -3.231  0.00  0.00    +0.292 HD
ENDBRANCH   8  23
BRANCH  11  25
ATOM     25  O   UNL     1       5.455  -0.321  -2.326  0.00  0.00    -0.506 OA
ATOM     26  H   UNL     1       6.209   0.066  -2.800  0.00  0.00    +0.292 HD
ENDBRANCH  11  25
ENDBRANCH   1   2
BRANCH   1  29
ATOM     27  C   UNL     1       0.614   1.172  -0.187  0.00  0.00    +0.198 C 
ATOM     28  O   UNL     1       1.156  -0.027   0.382  0.00  0.00    -0.336 OA
ATOM     29  C   UNL     1       0.607  -1.196  -0.251  0.00  0.00    +0.352 C 
ATOM     30  C   UNL     1      -0.880  -1.290   0.165  0.00  0.00    +0.276 C 
ATOM     31  C   UNL     1      -1.616  -0.012  -0.290  0.00  0.00    +0.192 C 
ATOM     32  C   UNL     1      -0.868   1.248   0.181  0.00  0.00    +0.172 C 
BRANCH  31  33
ATOM     33  O   UNL     1      -2.948   0.000   0.244  0.00  0.00    -0.385 OA
ATOM     34  H   UNL     1      -2.870   0.400   1.134  0.00  0.00    +0.210 HD
ENDBRANCH  31  33
BRANCH  32  35
ATOM     35  O   UNL     1      -1.006   1.329   1.616  0.00  0.00    -0.387 OA
ATOM     36  H   UNL     1      -0.166   1.006   2.000  0.00  0.00    +0.210 HD
ENDBRANCH  32  35
BRANCH  30  37
ATOM     37  O   UNL     1      -1.527  -2.528  -0.235  0.00  0.00    -0.449 OA
BRANCH  37  38
ATOM     38  C   UNL     1      -1.649  -2.787  -1.556  0.00  0.00    +0.340 C 
ATOM     39  O   UNL     1      -1.275  -2.057  -2.461  0.00  0.00    -0.245 OA
BRANCH  38  40
ATOM     40  C   UNL     1      -2.279  -4.111  -1.793  0.00  0.00    +0.066 A 
ATOM     41  C   UNL     1      -2.935  -4.307  -3.017  0.00  0.00    +0.064 A 
ATOM     42  C   UNL     1      -3.430  -5.564  -3.332  0.00  0.00    +0.163 A 
ATOM     43  C   UNL     1      -3.289  -6.618  -2.441  0.00  0.00    +0.201 A 
ATOM     44  C   UNL     1      -2.674  -6.420  -1.209  0.00  0.00    +0.163 A 
ATOM     45  C   UNL     1      -2.170  -5.167  -0.870  0.00  0.00    +0.064 A 
BRANCH  42  46
ATOM     46  O   UNL     1      -4.033  -5.767  -4.538  0.00  0.00    -0.503 OA
ATOM     47  H   UNL     1      -4.256  -6.720  -4.548  0.00  0.00    +0.292 HD
ENDBRANCH  42  46
BRANCH  43  48
ATOM     48  O   UNL     1      -3.746  -7.858  -2.798  0.00  0.00    -0.501 OA
ATOM     49  H   UNL     1      -3.511  -8.428  -2.035  0.00  0.00    +0.292 HD
ENDBRANCH  43  48
BRANCH  44  50
ATOM     50  O   UNL     1      -2.581  -7.506  -0.384  0.00  0.00    -0.503 OA
ATOM     51  H   UNL     1      -2.059  -7.274   0.406  0.00  0.00    +0.292 HD
ENDBRANCH  44  50
ENDBRANCH  38  40
ENDBRANCH  37  38
ENDBRANCH  30  37
ENDBRANCH   1  29
TORSDOF 15
