REMARK  Name = 
REMARK  19 active torsions:
REMARK  status: ('A' for Active; 'I' for Inactive)
REMARK    1  A    between atoms: C_1  and  C_2
REMARK    2  A    between atoms: C_3  and  O_51
REMARK    3  A    between atoms: C_5  and  O_50
REMARK    4  A    between atoms: C_6  and  O_49
REMARK    5  A    between atoms: C_8  and  O_11
REMARK    6  A    between atoms: O_11  and  C_12
REMARK    7  A    between atoms: C_12  and  C_13
REMARK    8  A    between atoms: C_14  and  O_48
REMARK    9  A    between atoms: C_16  and  O_47
REMARK   10  A    between atoms: C_18  and  O_46
REMARK   11  A    between atoms: C_19  and  O_22
REMARK   12  A    between atoms: O_22  and  C_23
REMARK   13  A    between atoms: C_25  and  O_45
REMARK   14  A    between atoms: C_30  and  C_36
REMARK   15  A    between atoms: C_31  and  O_34
REMARK   16  A    between atoms: O_34  and  C_35
REMARK   17  A    between atoms: C_38  and  O_43
REMARK   18  A    between atoms: C_39  and  O_42
REMARK   19  A    between atoms: O_43  and  C_44
REMARK                            x       y       z     vdW  Elec       q    Type
REMARK                         _______ _______ _______ _____ _____    ______ ____
ROOT
ATOM      1  C   UNL     1       3.096   4.006  -4.057  0.00  0.00    +0.179 C 
ATOM      2  O   UNL     1       3.623   5.157  -3.379  0.00  0.00    -0.331 OA
ATOM      3  C   UNL     1       2.632   5.988  -2.749  0.00  0.00    +0.339 C 
ATOM      4  C   UNL     1       1.675   6.549  -3.827  0.00  0.00    +0.214 C 
ATOM      5  C   UNL     1       1.020   5.352  -4.541  0.00  0.00    +0.180 C 
ATOM      6  C   UNL     1       2.095   4.440  -5.148  0.00  0.00    +0.177 C 
ENDROOT
BRANCH   6   7
ATOM      7  O   UNL     1       1.446   3.355  -5.816  0.00  0.00    -0.386 OA
ATOM      8  H   UNL     1       2.130   2.690  -6.024  0.00  0.00    +0.210 HD
ENDBRANCH   6   7
BRANCH   5   9
ATOM      9  O   UNL     1       0.105   5.765  -5.559  0.00  0.00    -0.386 OA
ATOM     10  H   UNL     1      -0.024   4.977  -6.124  0.00  0.00    +0.210 HD
ENDBRANCH   5   9
BRANCH   4  11
ATOM     11  O   UNL     1       2.389   7.365  -4.774  0.00  0.00    -0.383 OA
ATOM     12  H   UNL     1       3.324   7.089  -4.756  0.00  0.00    +0.210 HD
ENDBRANCH   4  11
BRANCH   3  13
ATOM     13  O   UNL     1       3.274   7.064  -2.048  0.00  0.00    -0.461 OA
BRANCH  13  14
ATOM     14  C   UNL     1       4.096   6.693  -1.014  0.00  0.00    +0.131 A 
ATOM     15  C   UNL     1       3.959   5.533  -0.254  0.00  0.00    +0.093 A 
ATOM     16  C   UNL     1       4.860   5.246   0.777  0.00  0.00    +0.147 A 
ATOM     17  O   UNL     1       4.629   4.076   1.451  0.00  0.00    -0.451 OA
ATOM     18  C   UNL     1       5.514   3.696   2.436  0.00  0.00    +0.181 A 
ATOM     19  C   UNL     1       6.580   4.409   2.846  0.00  0.00    +0.211 A 
ATOM     20  C   UNL     1       6.827   5.733   2.174  0.00  0.00    +0.238 A 
ATOM     21  O   UNL     1       7.747   6.465   2.514  0.00  0.00    -0.283 OA
ATOM     22  C   UNL     1       5.906   6.112   1.074  0.00  0.00    +0.109 A 
ATOM     23  C   UNL     1       6.027   7.293   0.327  0.00  0.00    +0.135 A 
ATOM     24  C   UNL     1       5.127   7.585  -0.707  0.00  0.00    +0.092 A 
BRANCH  18  25
ATOM     25  C   UNL     1       5.157   2.395   3.033  0.00  0.00    +0.025 A 
ATOM     26  C   UNL     1       4.283   2.347   4.130  0.00  0.00    +0.015 A 
ATOM     27  C   UNL     1       3.916   1.122   4.685  0.00  0.00    +0.050 A 
ATOM     28  C   UNL     1       4.418  -0.049   4.135  0.00  0.00    +0.158 A 
ATOM     29  C   UNL     1       5.287  -0.032   3.038  0.00  0.00    +0.162 A 
ATOM     30  C   UNL     1       5.659   1.198   2.490  0.00  0.00    +0.061 A 
BRANCH  29  31
ATOM     31  O   UNL     1       5.681  -1.271   2.602  0.00  0.00    -0.491 OA
ATOM     32  C   UNL     1       6.547  -1.307   1.474  0.00  0.00    +0.277 C 
ENDBRANCH  29  31
BRANCH  28  33
ATOM     33  O   UNL     1       4.037  -1.240   4.693  0.00  0.00    -0.503 OA
ATOM     34  H   UNL     1       4.518  -1.922   4.184  0.00  0.00    +0.292 HD
ENDBRANCH  28  33
ENDBRANCH  18  25
BRANCH  23  35
ATOM     35  O   UNL     1       7.032   8.183   0.582  0.00  0.00    -0.506 OA
ATOM     36  H   UNL     1       6.937   8.979   0.035  0.00  0.00    +0.292 HD
ENDBRANCH  23  35
BRANCH  19  37
ATOM     37  O   UNL     1       7.419   3.893   3.826  0.00  0.00    -0.488 OA
ATOM     38  C   UNL     1       8.105   4.832   4.645  0.00  0.00    +0.277 C 
ENDBRANCH  19  37
ENDBRANCH  13  14
ENDBRANCH   3  13
BRANCH   1  39
ATOM     39  C   UNL     1       2.568   2.968  -3.051  0.00  0.00    +0.197 C 
BRANCH  39  40
ATOM     40  O   UNL     1       2.245   1.752  -3.711  0.00  0.00    -0.346 OA
BRANCH  40  44
ATOM     41  C   UNL     1       1.061   0.020   0.074  0.00  0.00    +0.041 C 
ATOM     42  C   UNL     1       2.151  -0.526  -0.846  0.00  0.00    +0.149 C 
ATOM     43  O   UNL     1       2.592   0.472  -1.779  0.00  0.00    -0.343 OA
ATOM     44  C   UNL     1       1.666   0.793  -2.819  0.00  0.00    +0.282 C 
ATOM     45  C   UNL     1       1.268  -0.451  -3.639  0.00  0.00    +0.201 C 
ATOM     46  C   UNL     1       0.737  -1.535  -2.698  0.00  0.00    +0.179 C 
ATOM     47  C   UNL     1       1.740  -1.817  -1.569  0.00  0.00    +0.174 C 
BRANCH  47  48
ATOM     48  O   UNL     1       2.903  -2.443  -2.144  0.00  0.00    -0.387 OA
ATOM     49  H   UNL     1       3.286  -1.788  -2.776  0.00  0.00    +0.210 HD
ENDBRANCH  47  48
BRANCH  46  50
ATOM     50  O   UNL     1       0.510  -2.736  -3.452  0.00  0.00    -0.386 OA
ATOM     51  H   UNL     1       1.317  -3.280  -3.332  0.00  0.00    +0.210 HD
ENDBRANCH  46  50
BRANCH  45  52
ATOM     52  O   UNL     1       2.404  -0.984  -4.357  0.00  0.00    -0.384 OA
ATOM     53  H   UNL     1       2.038  -1.694  -4.919  0.00  0.00    +0.210 HD
ENDBRANCH  45  52
ENDBRANCH  40  44
ENDBRANCH  39  40
ENDBRANCH   1  39
TORSDOF 16
