REMARK  Name = 
REMARK  19 active torsions:
REMARK  status: ('A' for Active; 'I' for Inactive)
REMARK    1  A    between atoms: C_1  and  C_2
REMARK    2  A    between atoms: C_3  and  O_51
REMARK    3  A    between atoms: C_5  and  O_50
REMARK    4  A    between atoms: C_6  and  O_49
REMARK    5  A    between atoms: C_8  and  O_11
REMARK    6  A    between atoms: O_11  and  C_12
REMARK    7  A    between atoms: C_13  and  O_48
REMARK    8  A    between atoms: C_15  and  O_47
REMARK    9  A    between atoms: C_17  and  C_45
REMARK   10  A    between atoms: C_19  and  O_21
REMARK   11  A    between atoms: O_21  and  C_22
REMARK   12  A    between atoms: C_23  and  O_44
REMARK   13  A    between atoms: C_26  and  C_28
REMARK   14  A    between atoms: C_29  and  O_42
REMARK   15  A    between atoms: C_33  and  O_41
REMARK   16  A    between atoms: C_35  and  O_39
REMARK   17  A    between atoms: O_39  and  C_40
REMARK   18  A    between atoms: O_42  and  C_43
REMARK   19  A    between atoms: C_45  and  O_46
REMARK                            x       y       z     vdW  Elec       q    Type
REMARK                         _______ _______ _______ _____ _____    ______ ____
ROOT
ATOM      1  C   UNL     1       2.683   2.987  -3.121  0.00  0.00    +0.221 C 
ATOM      2  C   UNL     1       1.204   2.611  -3.655  0.00  0.00    +0.340 C 
ATOM      3  O   UNL     1       1.286   2.493  -5.095  0.00  0.00    -0.331 OA
ATOM      4  C   UNL     1       1.709   3.700  -5.787  0.00  0.00    +0.179 C 
ATOM      5  C   UNL     1       2.997   4.335  -5.206  0.00  0.00    +0.177 C 
ATOM      6  C   UNL     1       2.912   4.412  -3.675  0.00  0.00    +0.180 C 
ENDROOT
BRANCH   6   7
ATOM      7  O   UNL     1       4.089   5.059  -3.159  0.00  0.00    -0.386 OA
ATOM      8  H   UNL     1       3.916   5.284  -2.225  0.00  0.00    +0.210 HD
ENDBRANCH   6   7
BRANCH   5   9
ATOM      9  O   UNL     1       3.252   5.654  -5.714  0.00  0.00    -0.386 OA
ATOM     10  H   UNL     1       4.025   5.979  -5.206  0.00  0.00    +0.210 HD
ENDBRANCH   5   9
BRANCH   4  11
ATOM     11  C   UNL     1       0.554   4.716  -5.899  0.00  0.00    +0.190 C 
BRANCH  11  12
ATOM     12  O   UNL     1       0.869   5.825  -6.733  0.00  0.00    -0.392 OA
ATOM     13  H   UNL     1       1.783   6.108  -6.509  0.00  0.00    +0.210 HD
ENDBRANCH  11  12
ENDBRANCH   4  11
BRANCH   2  14
ATOM     14  O   UNL     1       0.579   1.450  -3.002  0.00  0.00    -0.457 OA
BRANCH  14  15
ATOM     15  C   UNL     1      -0.806   1.274  -3.040  0.00  0.00    +0.166 A 
ATOM     16  C   UNL     1      -1.479   0.814  -1.857  0.00  0.00    +0.061 A 
ATOM     17  C   UNL     1      -2.904   0.508  -1.763  0.00  0.00    +0.025 A 
ATOM     18  C   UNL     1      -3.620   0.720  -2.934  0.00  0.00    +0.015 A 
ATOM     19  C   UNL     1      -2.982   1.136  -4.125  0.00  0.00    +0.050 A 
ATOM     20  C   UNL     1      -1.603   1.395  -4.179  0.00  0.00    +0.159 A 
BRANCH  17  21
ATOM     21  C   UNL     1      -3.565   0.109  -0.428  0.00  0.00    +0.181 A 
ATOM     22  O   UNL     1      -2.714   0.541   0.626  0.00  0.00    -0.451 OA
ATOM     23  C   UNL     1      -3.021   0.365   1.946  0.00  0.00    +0.147 A 
ATOM     24  C   UNL     1      -4.205  -0.234   2.364  0.00  0.00    +0.109 A 
ATOM     25  C   UNL     1      -4.478  -0.392   3.727  0.00  0.00    +0.135 A 
ATOM     26  C   UNL     1      -3.569   0.040   4.691  0.00  0.00    +0.092 A 
ATOM     27  C   UNL     1      -2.377   0.636   4.283  0.00  0.00    +0.127 A 
ATOM     28  C   UNL     1      -5.116  -0.684   1.339  0.00  0.00    +0.238 A 
ATOM     29  O   UNL     1      -6.166  -1.213   1.704  0.00  0.00    -0.283 OA
ATOM     30  C   UNL     1      -2.120   0.794   2.904  0.00  0.00    +0.092 A 
ATOM     31  C   UNL     1      -4.764  -0.513  -0.118  0.00  0.00    +0.211 A 
BRANCH  31  32
ATOM     32  O   UNL     1      -5.784  -1.044  -0.825  0.00  0.00    -0.488 OA
ATOM     33  C   UNL     1      -6.037  -1.402  -2.151  0.00  0.00    +0.277 C 
ENDBRANCH  31  32
BRANCH  27  34
ATOM     34  O   UNL     1      -1.401   1.094   5.128  0.00  0.00    -0.495 OA
ATOM     35  C   UNL     1      -1.650   0.960   6.526  0.00  0.00    +0.277 C 
ENDBRANCH  27  34
BRANCH  25  36
ATOM     36  O   UNL     1      -5.621  -0.977   4.205  0.00  0.00    -0.506 OA
ATOM     37  H   UNL     1      -6.169  -1.247   3.435  0.00  0.00    +0.292 HD
ENDBRANCH  25  36
ENDBRANCH  17  21
BRANCH  20  38
ATOM     38  O   UNL     1      -1.125   1.708  -5.421  0.00  0.00    -0.503 OA
ATOM     39  H   UNL     1      -0.146   1.632  -5.398  0.00  0.00    +0.292 HD
ENDBRANCH  20  38
ENDBRANCH  14  15
ENDBRANCH   2  14
BRANCH   1  40
ATOM     40  O   UNL     1       3.729   2.082  -3.601  0.00  0.00    -0.337 OA
BRANCH  40  44
ATOM     41  C   UNL     1       7.929   2.792  -5.043  0.00  0.00    +0.041 C 
ATOM     42  C   UNL     1       7.396   1.728  -4.075  0.00  0.00    +0.149 C 
ATOM     43  O   UNL     1       5.968   1.524  -4.138  0.00  0.00    -0.343 OA
ATOM     44  C   UNL     1       5.130   2.465  -3.430  0.00  0.00    +0.282 C 
ATOM     45  C   UNL     1       5.542   2.599  -1.943  0.00  0.00    +0.201 C 
ATOM     46  C   UNL     1       7.043   2.905  -1.837  0.00  0.00    +0.179 C 
ATOM     47  C   UNL     1       7.878   1.892  -2.628  0.00  0.00    +0.174 C 
BRANCH  47  48
ATOM     48  O   UNL     1       7.760   0.621  -1.961  0.00  0.00    -0.387 OA
ATOM     49  H   UNL     1       6.832   0.325  -2.108  0.00  0.00    +0.210 HD
ENDBRANCH  47  48
BRANCH  46  50
ATOM     50  O   UNL     1       7.421   2.862  -0.446  0.00  0.00    -0.386 OA
ATOM     51  H   UNL     1       7.910   2.020  -0.325  0.00  0.00    +0.210 HD
ENDBRANCH  46  50
BRANCH  45  52
ATOM     52  O   UNL     1       5.246   1.399  -1.206  0.00  0.00    -0.384 OA
ATOM     53  H   UNL     1       5.587   1.560  -0.304  0.00  0.00    +0.210 HD
ENDBRANCH  45  52
ENDBRANCH  40  44
ENDBRANCH   1  40
TORSDOF 16
