REMARK  Name = 
REMARK  18 active torsions:
REMARK  status: ('A' for Active; 'I' for Inactive)
REMARK    1  A    between atoms: C_1  and  O_2
REMARK    2  A    between atoms: O_2  and  C_3
REMARK    3  A    between atoms: C_4  and  O_49
REMARK    4  A    between atoms: C_7  and  C_9
REMARK    5  A    between atoms: C_10  and  C_11
REMARK    6  A    between atoms: C_11  and  O_13
REMARK    7  A    between atoms: O_13  and  C_14
REMARK    8  A    between atoms: C_14  and  C_15
REMARK    9  A    between atoms: C_16  and  O_48
REMARK   10  A    between atoms: C_18  and  O_47
REMARK   11  A    between atoms: C_20  and  O_46
REMARK   12  A    between atoms: C_21  and  O_24
REMARK   13  A    between atoms: O_24  and  C_25
REMARK   14  A    between atoms: C_26  and  C_38
REMARK   15  A    between atoms: C_30  and  O_37
REMARK   16  A    between atoms: C_32  and  O_36
REMARK   17  A    between atoms: C_40  and  O_45
REMARK   18  A    between atoms: C_41  and  O_44
REMARK                            x       y       z     vdW  Elec       q    Type
REMARK                         _______ _______ _______ _____ _____    ______ ____
ROOT
ATOM      1  C   UNL     1       6.676  -4.818  -6.767  0.00  0.00    +0.191 C 
ATOM      2  O   UNL     1       7.711  -5.033  -7.759  0.00  0.00    -0.330 OA
ATOM      3  C   UNL     1       7.216  -4.916  -9.103  0.00  0.00    +0.340 C 
ATOM      4  C   UNL     1       6.269  -6.095  -9.402  0.00  0.00    +0.214 C 
ATOM      5  C   UNL     1       5.091  -5.973  -8.413  0.00  0.00    +0.180 C 
ATOM      6  C   UNL     1       5.560  -5.867  -6.946  0.00  0.00    +0.178 C 
ENDROOT
BRANCH   6   7
ATOM      7  O   UNL     1       6.023  -7.154  -6.502  0.00  0.00    -0.386 OA
ATOM      8  H   UNL     1       6.973  -7.224  -6.708  0.00  0.00    +0.210 HD
ENDBRANCH   6   7
BRANCH   5   9
ATOM      9  O   UNL     1       4.137  -7.024  -8.580  0.00  0.00    -0.386 OA
ATOM     10  H   UNL     1       4.195  -7.591  -7.787  0.00  0.00    +0.210 HD
ENDBRANCH   5   9
BRANCH   4  11
ATOM     11  O   UNL     1       6.947  -7.360  -9.278  0.00  0.00    -0.383 OA
ATOM     12  H   UNL     1       7.737  -7.217  -8.730  0.00  0.00    +0.210 HD
ENDBRANCH   4  11
BRANCH   3  13
ATOM     13  O   UNL     1       8.291  -4.905 -10.039  0.00  0.00    -0.453 OA
BRANCH  13  14
ATOM     14  C   UNL     1       8.782  -3.659 -10.416  0.00  0.00    +0.214 A 
ATOM     15  C   UNL     1       7.859  -2.500 -10.627  0.00  0.00    +0.238 A 
ATOM     16  O   UNL     1       6.646  -2.660 -10.718  0.00  0.00    -0.283 OA
ATOM     17  C   UNL     1       8.465  -1.177 -10.821  0.00  0.00    +0.109 A 
ATOM     18  C   UNL     1       9.822  -1.136 -11.133  0.00  0.00    +0.147 A 
ATOM     19  C   UNL     1      10.421   0.082 -11.472  0.00  0.00    +0.092 A 
ATOM     20  C   UNL     1       9.651   1.243 -11.486  0.00  0.00    +0.124 A 
ATOM     21  C   UNL     1       8.305   1.219 -11.138  0.00  0.00    +0.091 A 
ATOM     22  O   UNL     1      10.619  -2.255 -11.145  0.00  0.00    -0.451 OA
ATOM     23  C   UNL     1       7.715   0.008 -10.792  0.00  0.00    +0.135 A 
ATOM     24  C   UNL     1      10.082  -3.477 -10.745  0.00  0.00    +0.181 A 
BRANCH  24  25
ATOM     25  C   UNL     1      11.084  -4.585 -10.715  0.00  0.00    +0.025 A 
ATOM     26  C   UNL     1      12.418  -4.339 -10.334  0.00  0.00    +0.015 A 
ATOM     27  C   UNL     1      13.348  -5.383 -10.234  0.00  0.00    +0.050 A 
ATOM     28  C   UNL     1      12.951  -6.680 -10.516  0.00  0.00    +0.158 A 
ATOM     29  C   UNL     1      11.658  -6.942 -10.942  0.00  0.00    +0.159 A 
ATOM     30  C   UNL     1      10.737  -5.906 -11.070  0.00  0.00    +0.060 A 
BRANCH  29  31
ATOM     31  O   UNL     1      11.321  -8.240 -11.214  0.00  0.00    -0.503 OA
ATOM     32  H   UNL     1      10.379  -8.267 -11.461  0.00  0.00    +0.292 HD
ENDBRANCH  29  31
BRANCH  28  33
ATOM     33  O   UNL     1      13.840  -7.704 -10.363  0.00  0.00    -0.503 OA
ATOM     34  H   UNL     1      13.325  -8.510 -10.573  0.00  0.00    +0.292 HD
ENDBRANCH  28  33
ENDBRANCH  24  25
BRANCH  23  35
ATOM     35  O   UNL     1       6.407   0.002 -10.396  0.00  0.00    -0.506 OA
ATOM     36  H   UNL     1       6.007   0.875 -10.543  0.00  0.00    +0.292 HD
ENDBRANCH  23  35
BRANCH  20  37
ATOM     37  O   UNL     1      10.179   2.452 -11.831  0.00  0.00    -0.507 OA
ATOM     38  H   UNL     1      11.091   2.329 -12.140  0.00  0.00    +0.292 HD
ENDBRANCH  20  37
ENDBRANCH  13  14
ENDBRANCH   3  13
BRANCH   1  39
ATOM     39  C   UNL     1       6.143  -3.367  -6.763  0.00  0.00    +0.266 C 
BRANCH  39  40
ATOM     40  O   UNL     1       7.226  -2.439  -6.542  0.00  0.00    -0.459 OA
BRANCH  40  41
ATOM     41  C   UNL     1       7.539  -2.237  -5.246  0.00  0.00    +0.332 C 
ATOM     42  O   UNL     1       6.985  -2.757  -4.291  0.00  0.00    -0.246 OA
BRANCH  41  44
ATOM     43  C   UNL     1       9.148  -0.976  -3.950  0.00  0.00    +0.015 C 
ATOM     44  C   UNL     1       8.677  -1.292  -5.162  0.00  0.00    +0.092 C 
BRANCH  43  47
ATOM     45  C   UNL     1      11.714   1.798  -4.306  0.00  0.00    +0.162 A 
ATOM     46  C   UNL     1      10.625   0.965  -4.573  0.00  0.00    +0.057 A 
ATOM     47  C   UNL     1      10.295  -0.085  -3.702  0.00  0.00    -0.021 A 
ATOM     48  C   UNL     1      11.057  -0.264  -2.536  0.00  0.00    +0.012 A 
ATOM     49  C   UNL     1      12.159   0.551  -2.273  0.00  0.00    +0.050 A 
ATOM     50  C   UNL     1      12.484   1.564  -3.164  0.00  0.00    +0.158 A 
BRANCH  50  51
ATOM     51  O   UNL     1      13.570   2.346  -2.885  0.00  0.00    -0.503 OA
ATOM     52  H   UNL     1      13.624   2.983  -3.624  0.00  0.00    +0.292 HD
ENDBRANCH  50  51
BRANCH  45  54
ATOM     53  C   UNL     1      11.104   3.402  -5.926  0.00  0.00    +0.277 C 
ATOM     54  O   UNL     1      12.123   2.837  -5.104  0.00  0.00    -0.491 OA
ENDBRANCH  45  54
ENDBRANCH  43  47
ENDBRANCH  41  44
ENDBRANCH  40  41
ENDBRANCH  39  40
ENDBRANCH   1  39
TORSDOF 17
