REMARK  Name = 
REMARK  23 active torsions:
REMARK  status: ('A' for Active; 'I' for Inactive)
REMARK    1  A    between atoms: C_1  and  C_2
REMARK    2  A    between atoms: C_3  and  O_62
REMARK    3  A    between atoms: C_5  and  O_61
REMARK    4  A    between atoms: C_7  and  O_60
REMARK    5  A    between atoms: C_8  and  O_11
REMARK    6  A    between atoms: O_11  and  C_12
REMARK    7  A    between atoms: C_14  and  O_59
REMARK    8  A    between atoms: C_19  and  C_51
REMARK    9  A    between atoms: C_20  and  O_23
REMARK   10  A    between atoms: O_23  and  C_24
REMARK   11  A    between atoms: C_26  and  O_36
REMARK   12  A    between atoms: C_27  and  O_35
REMARK   13  A    between atoms: C_28  and  O_34
REMARK   14  A    between atoms: C_30  and  C_32
REMARK   15  A    between atoms: C_32  and  O_33
REMARK   16  A    between atoms: O_36  and  C_37
REMARK   17  A    between atoms: C_39  and  O_50
REMARK   18  A    between atoms: C_41  and  O_49
REMARK   19  A    between atoms: C_42  and  O_48
REMARK   20  A    between atoms: C_44  and  C_46
REMARK   21  A    between atoms: C_46  and  O_47
REMARK   22  A    between atoms: C_53  and  O_58
REMARK   23  A    between atoms: C_54  and  O_57
REMARK                            x       y       z     vdW  Elec       q    Type
REMARK                         _______ _______ _______ _____ _____    ______ ____
ROOT
ATOM      1  C   UNL     1       2.520   2.790  -3.005  0.00  0.00    +0.131 A 
ATOM      2  C   UNL     1       1.279   3.356  -2.699  0.00  0.00    +0.093 A 
ATOM      3  C   UNL     1       1.162   4.687  -2.271  0.00  0.00    +0.147 A 
ATOM      4  O   UNL     1      -0.116   5.135  -2.078  0.00  0.00    -0.451 OA
ATOM      5  C   UNL     1      -0.317   6.461  -1.742  0.00  0.00    +0.181 A 
ATOM      6  C   UNL     1       0.649   7.352  -1.435  0.00  0.00    +0.214 A 
ATOM      7  C   UNL     1       2.070   6.827  -1.484  0.00  0.00    +0.238 A 
ATOM      8  O   UNL     1       2.982   7.484  -0.985  0.00  0.00    -0.283 OA
ATOM      9  C   UNL     1       2.279   5.486  -2.090  0.00  0.00    +0.109 A 
ATOM     10  C   UNL     1       3.522   4.950  -2.470  0.00  0.00    +0.135 A 
ATOM     11  C   UNL     1       3.641   3.617  -2.926  0.00  0.00    +0.092 A 
ENDROOT
BRANCH   5  12
ATOM     12  C   UNL     1      -1.730   6.812  -1.760  0.00  0.00    +0.025 A 
ATOM     13  C   UNL     1      -2.310   7.154  -3.002  0.00  0.00    +0.015 A 
ATOM     14  C   UNL     1      -3.643   7.555  -3.077  0.00  0.00    +0.050 A 
ATOM     15  C   UNL     1      -4.400   7.602  -1.913  0.00  0.00    +0.158 A 
ATOM     16  C   UNL     1      -3.842   7.246  -0.688  0.00  0.00    +0.159 A 
ATOM     17  C   UNL     1      -2.512   6.841  -0.597  0.00  0.00    +0.060 A 
BRANCH  16  18
ATOM     18  O   UNL     1      -4.647   7.338   0.415  0.00  0.00    -0.503 OA
ATOM     19  H   UNL     1      -4.121   7.087   1.195  0.00  0.00    +0.292 HD
ENDBRANCH  16  18
BRANCH  15  20
ATOM     20  O   UNL     1      -5.688   8.036  -1.983  0.00  0.00    -0.503 OA
ATOM     21  H   UNL     1      -6.037   7.920  -1.077  0.00  0.00    +0.292 HD
ENDBRANCH  15  20
ENDBRANCH   5  12
BRANCH  10  22
ATOM     22  O   UNL     1       4.645   5.731  -2.451  0.00  0.00    -0.506 OA
ATOM     23  H   UNL     1       5.397   5.247  -2.830  0.00  0.00    +0.292 HD
ENDBRANCH  10  22
BRANCH   6  24
ATOM     24  O   UNL     1       0.396   8.548  -0.790  0.00  0.00    -0.453 OA
BRANCH  24  25
ATOM     25  C   UNL     1       0.046   9.762  -1.489  0.00  0.00    +0.340 C 
ATOM     26  O   UNL     1       0.051   9.690  -2.932  0.00  0.00    -0.331 OA
ATOM     27  C   UNL     1      -0.243  10.964  -3.568  0.00  0.00    +0.179 C 
ATOM     28  C   UNL     1      -1.610  11.529  -3.179  0.00  0.00    +0.177 C 
ATOM     29  C   UNL     1      -1.731  11.582  -1.669  0.00  0.00    +0.180 C 
ATOM     30  C   UNL     1      -1.348  10.259  -0.982  0.00  0.00    +0.221 C 
BRANCH  29  31
ATOM     31  O   UNL     1      -3.075  11.975  -1.358  0.00  0.00    -0.386 OA
ATOM     32  H   UNL     1      -3.601  11.154  -1.279  0.00  0.00    +0.210 HD
ENDBRANCH  29  31
BRANCH  28  33
ATOM     33  O   UNL     1      -2.693  10.761  -3.709  0.00  0.00    -0.386 OA
ATOM     34  H   UNL     1      -3.506  11.259  -3.491  0.00  0.00    +0.210 HD
ENDBRANCH  28  33
BRANCH  30  35
ATOM     35  O   UNL     1      -1.620  10.244   0.438  0.00  0.00    -0.337 OA
BRANCH  35  36
ATOM     36  C   UNL     1      -0.861  11.015   1.373  0.00  0.00    +0.282 C 
ATOM     37  O   UNL     1      -1.194  10.579   2.720  0.00  0.00    -0.341 OA
ATOM     38  C   UNL     1      -2.565  10.806   3.106  0.00  0.00    +0.178 C 
ATOM     39  C   UNL     1      -3.025  12.266   2.926  0.00  0.00    +0.177 C 
ATOM     40  C   UNL     1      -2.616  12.771   1.556  0.00  0.00    +0.179 C 
ATOM     41  C   UNL     1      -1.116  12.539   1.315  0.00  0.00    +0.201 C 
BRANCH  41  42
ATOM     42  O   UNL     1      -0.279  13.243   2.247  0.00  0.00    -0.384 OA
ATOM     43  H   UNL     1      -0.767  13.304   3.092  0.00  0.00    +0.210 HD
ENDBRANCH  41  42
BRANCH  40  44
ATOM     44  O   UNL     1      -2.957  14.157   1.457  0.00  0.00    -0.386 OA
ATOM     45  H   UNL     1      -3.777  14.203   0.930  0.00  0.00    +0.210 HD
ENDBRANCH  40  44
BRANCH  39  46
ATOM     46  O   UNL     1      -2.464  13.155   3.907  0.00  0.00    -0.386 OA
ATOM     47  H   UNL     1      -2.692  14.055   3.584  0.00  0.00    +0.210 HD
ENDBRANCH  39  46
BRANCH  38  48
ATOM     48  C   UNL     1      -2.775  10.376   4.566  0.00  0.00    +0.190 C 
BRANCH  48  49
ATOM     49  O   UNL     1      -4.155  10.468   4.925  0.00  0.00    -0.392 OA
ATOM     50  H   UNL     1      -4.316  11.396   5.178  0.00  0.00    +0.210 HD
ENDBRANCH  48  49
ENDBRANCH  38  48
ENDBRANCH  35  36
ENDBRANCH  30  35
BRANCH  27  51
ATOM     51  C   UNL     1      -0.189  10.799  -5.092  0.00  0.00    +0.190 C 
BRANCH  51  52
ATOM     52  O   UNL     1       1.142  10.508  -5.506  0.00  0.00    -0.392 OA
ATOM     53  H   UNL     1       1.538   9.960  -4.803  0.00  0.00    +0.210 HD
ENDBRANCH  51  52
ENDBRANCH  27  51
ENDBRANCH  24  25
ENDBRANCH   6  24
BRANCH   1  54
ATOM     54  O   UNL     1       2.740   1.482  -3.380  0.00  0.00    -0.461 OA
BRANCH  54  58
ATOM     55  C   UNL     1      -1.374   0.606  -2.739  0.00  0.00    +0.041 C 
ATOM     56  C   UNL     1      -0.253  -0.212  -2.094  0.00  0.00    +0.150 C 
ATOM     57  O   UNL     1       0.990   0.502  -2.134  0.00  0.00    -0.334 OA
ATOM     58  C   UNL     1       1.574   0.637  -3.438  0.00  0.00    +0.339 C 
ATOM     59  C   UNL     1       1.940  -0.783  -3.939  0.00  0.00    +0.214 C 
ATOM     60  C   UNL     1       0.619  -1.579  -4.050  0.00  0.00    +0.180 C 
ATOM     61  C   UNL     1      -0.118  -1.621  -2.695  0.00  0.00    +0.174 C 
BRANCH  61  62
ATOM     62  O   UNL     1       0.576  -2.466  -1.767  0.00  0.00    -0.387 OA
ATOM     63  H   UNL     1       1.502  -2.145  -1.727  0.00  0.00    +0.210 HD
ENDBRANCH  61  62
BRANCH  60  64
ATOM     64  O   UNL     1       0.840  -2.889  -4.579  0.00  0.00    -0.386 OA
ATOM     65  H   UNL     1       0.298  -3.515  -4.065  0.00  0.00    +0.210 HD
ENDBRANCH  60  64
BRANCH  59  66
ATOM     66  O   UNL     1       2.820  -1.436  -2.997  0.00  0.00    -0.383 OA
ATOM     67  H   UNL     1       3.248  -0.731  -2.475  0.00  0.00    +0.210 HD
ENDBRANCH  59  66
ENDBRANCH  54  58
ENDBRANCH   1  54
TORSDOF 22
