REMARK  Name = 
REMARK  18 active torsions:
REMARK  status: ('A' for Active; 'I' for Inactive)
REMARK    1  A    between atoms: C_1  and  C_2
REMARK    2  A    between atoms: C_3  and  O_51
REMARK    3  A    between atoms: C_5  and  O_50
REMARK    4  A    between atoms: C_7  and  O_49
REMARK    5  A    between atoms: C_8  and  O_11
REMARK    6  A    between atoms: O_11  and  C_12
REMARK    7  A    between atoms: C_14  and  O_48
REMARK    8  A    between atoms: C_19  and  C_40
REMARK    9  A    between atoms: C_20  and  O_23
REMARK   10  A    between atoms: O_23  and  C_24
REMARK   11  A    between atoms: C_26  and  O_39
REMARK   12  A    between atoms: C_28  and  O_38
REMARK   13  A    between atoms: C_29  and  O_34
REMARK   14  A    between atoms: C_31  and  C_33
REMARK   15  A    between atoms: O_34  and  C_35
REMARK   16  A    between atoms: C_35  and  C_37
REMARK   17  A    between atoms: C_42  and  O_47
REMARK   18  A    between atoms: C_43  and  O_46
REMARK                            x       y       z     vdW  Elec       q    Type
REMARK                         _______ _______ _______ _____ _____    ______ ____
ROOT
ATOM      1  C   UNL     1       0.174   2.828  -4.590  0.00  0.00    +0.131 A 
ATOM      2  C   UNL     1      -0.304   3.764  -3.680  0.00  0.00    +0.093 A 
ATOM      3  C   UNL     1       0.269   5.046  -3.625  0.00  0.00    +0.147 A 
ATOM      4  O   UNL     1      -0.264   5.889  -2.695  0.00  0.00    -0.451 OA
ATOM      5  C   UNL     1       0.248   7.169  -2.529  0.00  0.00    +0.181 A 
ATOM      6  C   UNL     1       1.264   7.686  -3.273  0.00  0.00    +0.214 A 
ATOM      7  C   UNL     1       1.818   6.790  -4.359  0.00  0.00    +0.238 A 
ATOM      8  O   UNL     1       2.653   7.236  -5.136  0.00  0.00    -0.283 OA
ATOM      9  C   UNL     1       1.311   5.411  -4.461  0.00  0.00    +0.109 A 
ATOM     10  C   UNL     1       1.807   4.456  -5.359  0.00  0.00    +0.135 A 
ATOM     11  C   UNL     1       1.250   3.168  -5.413  0.00  0.00    +0.092 A 
ENDROOT
BRANCH   5  12
ATOM     12  C   UNL     1      -0.556   7.833  -1.485  0.00  0.00    +0.025 A 
ATOM     13  C   UNL     1      -1.760   8.467  -1.845  0.00  0.00    +0.015 A 
ATOM     14  C   UNL     1      -2.680   8.854  -0.862  0.00  0.00    +0.050 A 
ATOM     15  C   UNL     1      -2.402   8.597   0.471  0.00  0.00    +0.158 A 
ATOM     16  C   UNL     1      -1.199   8.010   0.842  0.00  0.00    +0.159 A 
ATOM     17  C   UNL     1      -0.286   7.602  -0.129  0.00  0.00    +0.060 A 
BRANCH  15  18
ATOM     18  O   UNL     1      -3.346   8.881   1.415  0.00  0.00    -0.503 OA
ATOM     19  H   UNL     1      -3.007   8.471   2.236  0.00  0.00    +0.292 HD
ENDBRANCH  15  18
BRANCH  16  20
ATOM     20  O   UNL     1      -0.975   7.808   2.176  0.00  0.00    -0.503 OA
ATOM     21  H   UNL     1      -0.020   7.922   2.327  0.00  0.00    +0.292 HD
ENDBRANCH  16  20
ENDBRANCH   5  12
BRANCH  10  22
ATOM     22  O   UNL     1       2.845   4.742  -6.196  0.00  0.00    -0.506 OA
ATOM     23  H   UNL     1       3.060   3.983  -6.764  0.00  0.00    +0.292 HD
ENDBRANCH  10  22
BRANCH   1  24
ATOM     24  O   UNL     1      -0.289   1.548  -4.725  0.00  0.00    -0.461 OA
BRANCH  24  28
ATOM     25  C   UNL     1      -4.068   1.961  -2.641  0.00  0.00    +0.041 C 
ATOM     26  C   UNL     1      -3.190   0.713  -2.628  0.00  0.00    +0.150 C 
ATOM     27  O   UNL     1      -1.847   1.042  -3.027  0.00  0.00    -0.334 OA
ATOM     28  C   UNL     1      -1.678   1.331  -4.430  0.00  0.00    +0.339 C 
ATOM     29  C   UNL     1      -2.116   0.101  -5.257  0.00  0.00    +0.214 C 
ATOM     30  C   UNL     1      -3.597  -0.177  -4.966  0.00  0.00    +0.180 C 
ATOM     31  C   UNL     1      -3.801  -0.432  -3.461  0.00  0.00    +0.174 C 
BRANCH  29  32
ATOM     32  O   UNL     1      -1.318  -1.047  -4.877  0.00  0.00    -0.383 OA
ATOM     33  H   UNL     1      -0.440  -0.696  -4.629  0.00  0.00    +0.210 HD
ENDBRANCH  29  32
BRANCH  30  34
ATOM     34  O   UNL     1      -4.083  -1.257  -5.768  0.00  0.00    -0.386 OA
ATOM     35  H   UNL     1      -4.561  -1.875  -5.185  0.00  0.00    +0.210 HD
ENDBRANCH  30  34
BRANCH  31  36
ATOM     36  O   UNL     1      -3.210  -1.682  -3.077  0.00  0.00    -0.387 OA
ATOM     37  H   UNL     1      -2.306  -1.700  -3.462  0.00  0.00    +0.210 HD
ENDBRANCH  31  36
ENDBRANCH  24  28
ENDBRANCH   1  24
BRANCH   6  38
ATOM     38  O   UNL     1       1.840   8.944  -3.232  0.00  0.00    -0.453 OA
BRANCH  38  39
ATOM     39  C   UNL     1       2.120   9.509  -1.954  0.00  0.00    +0.340 C 
ATOM     40  O   UNL     1       2.809   8.584  -1.107  0.00  0.00    -0.333 OA
ATOM     41  C   UNL     1       2.815   9.049   0.243  0.00  0.00    +0.163 C 
ATOM     42  C   UNL     1       3.411   7.947   1.106  0.00  0.00    +0.042 C 
ATOM     43  C   UNL     1       3.551  10.394   0.393  0.00  0.00    +0.236 C 
ATOM     44  C   UNL     1       3.131  11.413  -0.690  0.00  0.00    +0.192 C 
ATOM     45  C   UNL     1       3.036  10.746  -2.086  0.00  0.00    +0.215 C 
BRANCH  44  46
ATOM     46  O   UNL     1       4.080  12.496  -0.670  0.00  0.00    -0.385 OA
ATOM     47  H   UNL     1       4.389  12.644  -1.582  0.00  0.00    +0.210 HD
ENDBRANCH  44  46
BRANCH  45  48
ATOM     48  O   UNL     1       2.549  11.703  -3.037  0.00  0.00    -0.383 OA
ATOM     49  H   UNL     1       2.437  11.217  -3.878  0.00  0.00    +0.210 HD
ENDBRANCH  45  48
BRANCH  43  50
ATOM     50  O   UNL     1       3.457  10.956   1.732  0.00  0.00    -0.456 OA
BRANCH  50  51
ATOM     51  C   UNL     1       2.231  11.235   2.245  0.00  0.00    +0.304 C 
ATOM     52  C   UNL     1       2.335  11.927   3.569  0.00  0.00    +0.136 C 
ATOM     53  O   UNL     1       1.164  10.919   1.735  0.00  0.00    -0.251 OA
ENDBRANCH  50  51
ENDBRANCH  43  50
ENDBRANCH  38  39
ENDBRANCH   6  38
TORSDOF 15
