REMARK  Name = 
REMARK  22 active torsions:
REMARK  status: ('A' for Active; 'I' for Inactive)
REMARK    1  A    between atoms: C_1  and  C_2
REMARK    2  A    between atoms: C_3  and  O_60
REMARK    3  A    between atoms: C_5  and  O_59
REMARK    4  A    between atoms: C_6  and  O_58
REMARK    5  A    between atoms: C_8  and  O_11
REMARK    6  A    between atoms: O_11  and  C_12
REMARK    7  A    between atoms: C_12  and  C_13
REMARK    8  A    between atoms: C_14  and  O_57
REMARK    9  A    between atoms: C_16  and  O_56
REMARK   10  A    between atoms: C_18  and  O_44
REMARK   11  A    between atoms: C_19  and  O_22
REMARK   12  A    between atoms: O_22  and  C_23
REMARK   13  A    between atoms: C_24  and  C_36
REMARK   14  A    between atoms: C_28  and  O_35
REMARK   15  A    between atoms: C_30  and  O_34
REMARK   16  A    between atoms: C_38  and  O_43
REMARK   17  A    between atoms: C_39  and  O_42
REMARK   18  A    between atoms: O_44  and  C_45
REMARK   19  A    between atoms: C_45  and  C_47
REMARK   20  A    between atoms: C_49  and  O_55
REMARK   21  A    between atoms: C_50  and  O_54
REMARK   22  A    between atoms: C_51  and  O_53
REMARK                            x       y       z     vdW  Elec       q    Type
REMARK                         _______ _______ _______ _____ _____    ______ ____
ROOT
ATOM      1  C   UNL     1       3.013   3.704  -4.536  0.00  0.00    +0.179 C 
ATOM      2  O   UNL     1       3.617   4.636  -3.616  0.00  0.00    -0.330 OA
ATOM      3  C   UNL     1       2.808   5.663  -3.020  0.00  0.00    +0.352 C 
ATOM      4  C   UNL     1       1.822   6.374  -4.001  0.00  0.00    +0.276 C 
ATOM      5  C   UNL     1       1.075   5.299  -4.801  0.00  0.00    +0.192 C 
ATOM      6  C   UNL     1       2.068   4.397  -5.529  0.00  0.00    +0.178 C 
ENDROOT
BRANCH   6   7
ATOM      7  O   UNL     1       1.372   3.483  -6.381  0.00  0.00    -0.386 OA
ATOM      8  H   UNL     1       2.042   3.068  -6.955  0.00  0.00    +0.210 HD
ENDBRANCH   6   7
BRANCH   5   9
ATOM      9  O   UNL     1       0.185   5.892  -5.760  0.00  0.00    -0.385 OA
ATOM     10  H   UNL     1      -0.091   5.150  -6.336  0.00  0.00    +0.210 HD
ENDBRANCH   5   9
BRANCH   4  11
ATOM     11  O   UNL     1       2.486   7.306  -4.924  0.00  0.00    -0.449 OA
BRANCH  11  12
ATOM     12  C   UNL     1       1.990   8.581  -4.944  0.00  0.00    +0.340 C 
ATOM     13  O   UNL     1       1.147   9.031  -4.177  0.00  0.00    -0.245 OA
BRANCH  12  14
ATOM     14  C   UNL     1       2.546   9.425  -6.051  0.00  0.00    +0.066 A 
ATOM     15  C   UNL     1       3.577   8.996  -6.887  0.00  0.00    +0.064 A 
ATOM     16  C   UNL     1       4.010   9.835  -7.908  0.00  0.00    +0.163 A 
ATOM     17  C   UNL     1       3.444  11.085  -8.117  0.00  0.00    +0.201 A 
ATOM     18  C   UNL     1       2.429  11.523  -7.286  0.00  0.00    +0.163 A 
ATOM     19  C   UNL     1       1.974  10.708  -6.251  0.00  0.00    +0.064 A 
BRANCH  18  20
ATOM     20  O   UNL     1       1.903  12.767  -7.532  0.00  0.00    -0.503 OA
ATOM     21  H   UNL     1       1.211  12.944  -6.868  0.00  0.00    +0.292 HD
ENDBRANCH  18  20
BRANCH  17  22
ATOM     22  O   UNL     1       3.899  11.865  -9.146  0.00  0.00    -0.501 OA
ATOM     23  H   UNL     1       3.350  12.675  -9.097  0.00  0.00    +0.292 HD
ENDBRANCH  17  22
BRANCH  16  24
ATOM     24  O   UNL     1       5.026   9.410  -8.740  0.00  0.00    -0.503 OA
ATOM     25  H   UNL     1       5.126  10.139  -9.388  0.00  0.00    +0.292 HD
ENDBRANCH  16  24
ENDBRANCH  12  14
ENDBRANCH  11  12
ENDBRANCH   4  11
BRANCH   3  26
ATOM     26  O   UNL     1       3.645   6.699  -2.450  0.00  0.00    -0.452 OA
BRANCH  26  27
ATOM     27  C   UNL     1       4.372   6.515  -1.278  0.00  0.00    +0.214 A 
ATOM     28  C   UNL     1       4.310   5.269  -0.449  0.00  0.00    +0.238 A 
ATOM     29  O   UNL     1       3.444   4.426  -0.624  0.00  0.00    -0.283 OA
ATOM     30  C   UNL     1       5.333   5.106   0.614  0.00  0.00    +0.109 A 
ATOM     31  C   UNL     1       6.100   6.216   0.961  0.00  0.00    +0.147 A 
ATOM     32  C   UNL     1       7.050   6.146   1.991  0.00  0.00    +0.092 A 
ATOM     33  C   UNL     1       7.242   4.942   2.660  0.00  0.00    +0.124 A 
ATOM     34  C   UNL     1       6.509   3.815   2.312  0.00  0.00    +0.091 A 
ATOM     35  O   UNL     1       5.987   7.416   0.312  0.00  0.00    -0.451 OA
ATOM     36  C   UNL     1       5.557   3.896   1.292  0.00  0.00    +0.135 A 
ATOM     37  C   UNL     1       5.241   7.460  -0.853  0.00  0.00    +0.181 A 
BRANCH  37  38
ATOM     38  C   UNL     1       5.688   8.540  -1.752  0.00  0.00    +0.025 A 
ATOM     39  C   UNL     1       6.548   8.132  -2.787  0.00  0.00    +0.015 A 
ATOM     40  C   UNL     1       7.113   9.054  -3.655  0.00  0.00    +0.050 A 
ATOM     41  C   UNL     1       6.732  10.381  -3.555  0.00  0.00    +0.158 A 
ATOM     42  C   UNL     1       5.857  10.808  -2.555  0.00  0.00    +0.159 A 
ATOM     43  C   UNL     1       5.373   9.900  -1.607  0.00  0.00    +0.060 A 
BRANCH  41  44
ATOM     44  O   UNL     1       7.190  11.250  -4.501  0.00  0.00    -0.503 OA
ATOM     45  H   UNL     1       6.712  11.000  -5.312  0.00  0.00    +0.292 HD
ENDBRANCH  41  44
BRANCH  42  46
ATOM     46  O   UNL     1       5.453  12.114  -2.572  0.00  0.00    -0.503 OA
ATOM     47  H   UNL     1       4.935  12.306  -1.777  0.00  0.00    +0.292 HD
ENDBRANCH  42  46
ENDBRANCH  37  38
BRANCH  36  48
ATOM     48  O   UNL     1       4.865   2.769   0.957  0.00  0.00    -0.506 OA
ATOM     49  H   UNL     1       5.173   2.014   1.483  0.00  0.00    +0.292 HD
ENDBRANCH  36  48
BRANCH  33  50
ATOM     50  O   UNL     1       8.150   4.810   3.667  0.00  0.00    -0.507 OA
ATOM     51  H   UNL     1       8.571   5.669   3.838  0.00  0.00    +0.292 HD
ENDBRANCH  33  50
ENDBRANCH  26  27
ENDBRANCH   3  26
BRANCH   1  52
ATOM     52  C   UNL     1       2.622   2.262  -3.985  0.00  0.00    +0.197 C 
BRANCH  52  53
ATOM     53  O   UNL     1       1.309   2.061  -3.440  0.00  0.00    -0.346 OA
BRANCH  53  57
ATOM     54  C   UNL     1       0.667  -0.989  -0.307  0.00  0.00    +0.041 C 
ATOM     55  C   UNL     1       1.715  -1.086  -1.421  0.00  0.00    +0.149 C 
ATOM     56  O   UNL     1       2.001   0.186  -2.046  0.00  0.00    -0.343 OA
ATOM     57  C   UNL     1       1.012   0.705  -2.950  0.00  0.00    +0.282 C 
ATOM     58  C   UNL     1       0.650  -0.342  -4.053  0.00  0.00    +0.201 C 
ATOM     59  C   UNL     1       0.256  -1.686  -3.396  0.00  0.00    +0.179 C 
ATOM     60  C   UNL     1       1.349  -2.180  -2.438  0.00  0.00    +0.174 C 
BRANCH  58  61
ATOM     61  O   UNL     1       1.758  -0.591  -4.944  0.00  0.00    -0.384 OA
ATOM     62  H   UNL     1       1.354  -0.890  -5.781  0.00  0.00    +0.210 HD
ENDBRANCH  58  61
BRANCH  59  63
ATOM     63  O   UNL     1       0.027  -2.678  -4.411  0.00  0.00    -0.386 OA
ATOM     64  H   UNL     1       0.904  -3.076  -4.593  0.00  0.00    +0.210 HD
ENDBRANCH  59  63
BRANCH  60  65
ATOM     65  O   UNL     1       2.507  -2.556  -3.205  0.00  0.00    -0.387 OA
ATOM     66  H   UNL     1       2.801  -1.745  -3.673  0.00  0.00    +0.210 HD
ENDBRANCH  60  65
ENDBRANCH  53  57
ENDBRANCH  52  53
ENDBRANCH   1  52
TORSDOF 21
