REMARK  Name = 
REMARK  24 active torsions:
REMARK  status: ('A' for Active; 'I' for Inactive)
REMARK    1  A    between atoms: C_3  and  O_50
REMARK    2  A    between atoms: C_4  and  O_35
REMARK    3  A    between atoms: C_6  and  C_7
REMARK    4  A    between atoms: C_8  and  O_20
REMARK    5  A    between atoms: C_12  and  O_19
REMARK    6  A    between atoms: C_14  and  O_18
REMARK    7  A    between atoms: O_20  and  C_21
REMARK    8  A    between atoms: C_23  and  O_34
REMARK    9  A    between atoms: C_24  and  O_33
REMARK   10  A    between atoms: C_26  and  O_32
REMARK   11  A    between atoms: C_28  and  C_30
REMARK   12  A    between atoms: C_30  and  O_31
REMARK   13  A    between atoms: O_35  and  C_36
REMARK   14  A    between atoms: C_38  and  O_49
REMARK   15  A    between atoms: C_39  and  O_48
REMARK   16  A    between atoms: C_41  and  O_47
REMARK   17  A    between atoms: C_43  and  C_45
REMARK   18  A    between atoms: C_45  and  O_46
REMARK   19  A    between atoms: O_50  and  C_51
REMARK   20  A    between atoms: C_53  and  O_64
REMARK   21  A    between atoms: C_54  and  O_63
REMARK   22  A    between atoms: C_55  and  O_62
REMARK   23  A    between atoms: C_57  and  C_60
REMARK   24  A    between atoms: C_60  and  O_61
REMARK                            x       y       z     vdW  Elec       q    Type
REMARK                         _______ _______ _______ _____ _____    ______ ____
ROOT
ATOM      1  C   UNL     1       4.364   3.352   2.019  0.00  0.00    +0.015 A 
ATOM      2  C   UNL     1       2.989   3.118   2.118  0.00  0.00    +0.025 A 
ATOM      3  C   UNL     1       2.485   2.020   1.412  0.00  0.00    +0.061 A 
ATOM      4  C   UNL     1       3.304   1.215   0.564  0.00  0.00    +0.166 A 
ATOM      5  C   UNL     1       4.647   1.541   0.368  0.00  0.00    +0.166 A 
ATOM      6  C   UNL     1       5.176   2.572   1.166  0.00  0.00    +0.050 A 
ENDROOT
BRANCH   2   7
ATOM      7  C   UNL     1       2.088   4.114   2.778  0.00  0.00    +0.181 A 
ATOM      8  O   UNL     1       1.645   3.793   4.055  0.00  0.00    -0.451 OA
ATOM      9  C   UNL     1       0.898   4.723   4.754  0.00  0.00    +0.147 A 
ATOM     10  C   UNL     1       0.562   5.982   4.242  0.00  0.00    +0.109 A 
ATOM     11  C   UNL     1      -0.208   6.871   5.020  0.00  0.00    +0.135 A 
ATOM     12  C   UNL     1      -0.663   6.498   6.289  0.00  0.00    +0.091 A 
ATOM     13  C   UNL     1      -0.332   5.241   6.783  0.00  0.00    +0.124 A 
ATOM     14  C   UNL     1       1.016   6.306   2.879  0.00  0.00    +0.238 A 
ATOM     15  O   UNL     1       0.760   7.403   2.368  0.00  0.00    -0.283 OA
ATOM     16  C   UNL     1       0.458   4.365   6.036  0.00  0.00    +0.092 A 
ATOM     17  C   UNL     1       1.795   5.259   2.131  0.00  0.00    +0.214 A 
BRANCH  11  18
ATOM     18  O   UNL     1      -0.537   8.144   4.629  0.00  0.00    -0.506 OA
ATOM     19  H   UNL     1      -0.104   8.324   3.769  0.00  0.00    +0.292 HD
ENDBRANCH  11  18
BRANCH  13  20
ATOM     20  O   UNL     1      -0.770   4.815   8.004  0.00  0.00    -0.507 OA
ATOM     21  H   UNL     1      -1.343   5.497   8.393  0.00  0.00    +0.292 HD
ENDBRANCH  13  20
BRANCH  17  22
ATOM     22  O   UNL     1       2.461   5.596   0.976  0.00  0.00    -0.453 OA
BRANCH  22  23
ATOM     23  C   UNL     1       1.783   5.671  -0.286  0.00  0.00    +0.340 C 
ATOM     24  O   UNL     1       2.401   4.754  -1.190  0.00  0.00    -0.331 OA
ATOM     25  C   UNL     1       3.532   5.160  -1.998  0.00  0.00    +0.179 C 
ATOM     26  C   UNL     1       4.087   6.622  -1.907  0.00  0.00    +0.177 C 
ATOM     27  C   UNL     1       3.411   7.469  -0.834  0.00  0.00    +0.180 C 
ATOM     28  C   UNL     1       1.915   7.095  -0.834  0.00  0.00    +0.214 C 
BRANCH  28  29
ATOM     29  O   UNL     1       1.125   8.072  -0.165  0.00  0.00    -0.383 OA
ATOM     30  H   UNL     1       0.936   7.771   0.747  0.00  0.00    +0.210 HD
ENDBRANCH  28  29
BRANCH  27  31
ATOM     31  O   UNL     1       4.115   7.290   0.405  0.00  0.00    -0.386 OA
ATOM     32  H   UNL     1       3.912   6.397   0.752  0.00  0.00    +0.210 HD
ENDBRANCH  27  31
BRANCH  26  33
ATOM     33  O   UNL     1       3.966   7.316  -3.169  0.00  0.00    -0.386 OA
ATOM     34  H   UNL     1       4.430   8.171  -3.067  0.00  0.00    +0.210 HD
ENDBRANCH  26  33
BRANCH  25  35
ATOM     35  C   UNL     1       3.192   4.757  -3.449  0.00  0.00    +0.190 C 
BRANCH  35  36
ATOM     36  O   UNL     1       2.204   5.613  -4.028  0.00  0.00    -0.392 OA
ATOM     37  H   UNL     1       2.626   6.499  -4.054  0.00  0.00    +0.210 HD
ENDBRANCH  35  36
ENDBRANCH  25  35
ENDBRANCH  22  23
ENDBRANCH  17  22
ENDBRANCH   2   7
BRANCH   4  38
ATOM     38  O   UNL     1       2.602   0.255  -0.098  0.00  0.00    -0.457 OA
BRANCH  38  39
ATOM     39  C   UNL     1       3.110  -1.021  -0.500  0.00  0.00    +0.339 C 
ATOM     40  O   UNL     1       3.713  -1.067  -1.808  0.00  0.00    -0.331 OA
ATOM     41  C   UNL     1       3.644  -2.393  -2.380  0.00  0.00    +0.179 C 
ATOM     42  C   UNL     1       4.311  -3.468  -1.476  0.00  0.00    +0.177 C 
ATOM     43  C   UNL     1       3.877  -3.338  -0.005  0.00  0.00    +0.180 C 
ATOM     44  C   UNL     1       3.952  -1.867   0.483  0.00  0.00    +0.214 C 
BRANCH  42  45
ATOM     45  O   UNL     1       5.741  -3.370  -1.548  0.00  0.00    -0.386 OA
ATOM     46  H   UNL     1       6.115  -4.122  -1.046  0.00  0.00    +0.210 HD
ENDBRANCH  42  45
BRANCH  44  47
ATOM     47  O   UNL     1       3.512  -1.795   1.840  0.00  0.00    -0.383 OA
ATOM     48  H   UNL     1       2.649  -2.243   1.890  0.00  0.00    +0.210 HD
ENDBRANCH  44  47
BRANCH  43  49
ATOM     49  O   UNL     1       2.556  -3.872   0.203  0.00  0.00    -0.386 OA
ATOM     50  H   UNL     1       1.952  -3.602  -0.510  0.00  0.00    +0.210 HD
ENDBRANCH  43  49
BRANCH  41  51
ATOM     51  C   UNL     1       4.246  -2.381  -3.800  0.00  0.00    +0.190 C 
BRANCH  51  52
ATOM     52  O   UNL     1       5.654  -2.176  -3.814  0.00  0.00    -0.392 OA
ATOM     53  H   UNL     1       6.035  -2.718  -3.092  0.00  0.00    +0.210 HD
ENDBRANCH  51  52
ENDBRANCH  41  51
ENDBRANCH  38  39
ENDBRANCH   4  38
BRANCH   5  54
ATOM     54  O   UNL     1       5.365   0.850  -0.587  0.00  0.00    -0.457 OA
BRANCH  54  55
ATOM     55  C   UNL     1       6.370   1.584  -1.325  0.00  0.00    +0.339 C 
ATOM     56  O   UNL     1       5.795   2.546  -2.213  0.00  0.00    -0.331 OA
ATOM     57  C   UNL     1       5.894   2.360  -3.624  0.00  0.00    +0.179 C 
ATOM     58  C   UNL     1       7.257   1.861  -4.087  0.00  0.00    +0.177 C 
ATOM     59  C   UNL     1       7.580   0.543  -3.418  0.00  0.00    +0.180 C 
ATOM     60  C   UNL     1       7.498   0.661  -1.891  0.00  0.00    +0.214 C 
BRANCH  60  61
ATOM     61  O   UNL     1       7.523  -0.647  -1.296  0.00  0.00    -0.383 OA
ATOM     62  H   UNL     1       6.686  -1.088  -1.547  0.00  0.00    +0.210 HD
ENDBRANCH  60  61
BRANCH  59  63
ATOM     63  O   UNL     1       8.900   0.157  -3.860  0.00  0.00    -0.386 OA
ATOM     64  H   UNL     1       9.469   0.070  -3.077  0.00  0.00    +0.210 HD
ENDBRANCH  59  63
BRANCH  58  65
ATOM     65  O   UNL     1       8.272   2.821  -3.748  0.00  0.00    -0.386 OA
ATOM     66  H   UNL     1       9.090   2.464  -4.148  0.00  0.00    +0.210 HD
ENDBRANCH  58  65
BRANCH  57  67
ATOM     67  C   UNL     1       4.744   1.517  -4.194  0.00  0.00    +0.190 C 
BRANCH  67  68
ATOM     68  O   UNL     1       4.782   1.489  -5.620  0.00  0.00    -0.392 OA
ATOM     69  H   UNL     1       4.915   2.397  -5.947  0.00  0.00    +0.210 HD
ENDBRANCH  67  68
ENDBRANCH  57  67
ENDBRANCH  54  55
ENDBRANCH   5  54
TORSDOF 24
