REMARK  Name = 
REMARK  18 active torsions:
REMARK  status: ('A' for Active; 'I' for Inactive)
REMARK    1  A    between atoms: C_3  and  O_36
REMARK    2  A    between atoms: C_4  and  O_35
REMARK    3  A    between atoms: C_6  and  C_7
REMARK    4  A    between atoms: C_8  and  O_34
REMARK    5  A    between atoms: C_12  and  O_33
REMARK    6  A    between atoms: C_14  and  O_18
REMARK    7  A    between atoms: O_18  and  C_19
REMARK    8  A    between atoms: C_21  and  O_32
REMARK    9  A    between atoms: C_22  and  O_31
REMARK   10  A    between atoms: C_24  and  O_30
REMARK   11  A    between atoms: C_26  and  C_28
REMARK   12  A    between atoms: C_28  and  O_29
REMARK   13  A    between atoms: O_36  and  C_37
REMARK   14  A    between atoms: C_39  and  O_50
REMARK   15  A    between atoms: C_40  and  O_49
REMARK   16  A    between atoms: C_42  and  O_48
REMARK   17  A    between atoms: C_44  and  C_46
REMARK   18  A    between atoms: C_46  and  O_47
REMARK                            x       y       z     vdW  Elec       q    Type
REMARK                         _______ _______ _______ _____ _____    ______ ____
ROOT
ATOM      1  C   UNL     1      -1.331  -2.618  -0.239  0.00  0.00    +0.181 A 
ATOM      2  O   UNL     1      -0.598  -3.799  -0.034  0.00  0.00    -0.451 OA
ATOM      3  C   UNL     1      -1.238  -5.019  -0.200  0.00  0.00    +0.147 A 
ATOM      4  C   UNL     1      -2.598  -5.096  -0.511  0.00  0.00    +0.109 A 
ATOM      5  C   UNL     1      -3.219  -6.329  -0.642  0.00  0.00    +0.135 A 
ATOM      6  C   UNL     1      -2.503  -7.490  -0.476  0.00  0.00    +0.092 A 
ATOM      7  C   UNL     1      -1.140  -7.467  -0.146  0.00  0.00    +0.131 A 
ATOM      8  C   UNL     1      -3.362  -3.878  -0.707  0.00  0.00    +0.238 A 
ATOM      9  O   UNL     1      -4.566  -3.939  -0.937  0.00  0.00    -0.283 OA
ATOM     10  C   UNL     1      -0.499  -6.215  -0.037  0.00  0.00    +0.093 A 
ATOM     11  C   UNL     1      -2.629  -2.603  -0.631  0.00  0.00    +0.208 A 
ENDROOT
BRANCH   1  13
ATOM     12  C   UNL     1      -1.298  -0.241   0.536  0.00  0.00    +0.015 A 
ATOM     13  C   UNL     1      -0.601  -1.334  -0.007  0.00  0.00    +0.025 A 
ATOM     14  C   UNL     1       0.738  -1.115  -0.355  0.00  0.00    +0.060 A 
ATOM     15  C   UNL     1       1.274   0.191  -0.334  0.00  0.00    +0.159 A 
ATOM     16  C   UNL     1       0.496   1.305   0.006  0.00  0.00    +0.165 A 
ATOM     17  C   UNL     1      -0.777   1.053   0.512  0.00  0.00    +0.050 A 
BRANCH  15  18
ATOM     18  O   UNL     1       2.586   0.348  -0.693  0.00  0.00    -0.503 OA
ATOM     19  H   UNL     1       2.813   1.268  -0.462  0.00  0.00    +0.292 HD
ENDBRANCH  15  18
BRANCH  16  20
ATOM     20  O   UNL     1       1.017   2.575  -0.223  0.00  0.00    -0.457 OA
BRANCH  20  21
ATOM     21  C   UNL     1       0.005   3.615  -0.217  0.00  0.00    +0.339 C 
ATOM     22  O   UNL     1      -0.990   3.366  -1.214  0.00  0.00    -0.331 OA
ATOM     23  C   UNL     1      -0.580   3.716  -2.545  0.00  0.00    +0.179 C 
ATOM     24  C   UNL     1      -0.462   5.244  -2.617  0.00  0.00    +0.177 C 
ATOM     25  C   UNL     1       0.663   5.688  -1.673  0.00  0.00    +0.180 C 
ATOM     26  C   UNL     1       0.523   5.080  -0.269  0.00  0.00    +0.214 C 
BRANCH  26  27
ATOM     27  O   UNL     1       1.719   5.266   0.496  0.00  0.00    -0.383 OA
ATOM     28  H   UNL     1       2.386   5.662  -0.097  0.00  0.00    +0.210 HD
ENDBRANCH  26  27
BRANCH  25  29
ATOM     29  O   UNL     1       1.955   5.403  -2.220  0.00  0.00    -0.386 OA
ATOM     30  H   UNL     1       2.162   4.463  -2.068  0.00  0.00    +0.210 HD
ENDBRANCH  25  29
BRANCH  24  31
ATOM     31  O   UNL     1      -1.705   5.832  -2.216  0.00  0.00    -0.386 OA
ATOM     32  H   UNL     1      -1.631   6.800  -2.265  0.00  0.00    +0.210 HD
ENDBRANCH  24  31
BRANCH  23  33
ATOM     33  C   UNL     1      -1.618   3.168  -3.534  0.00  0.00    +0.190 C 
BRANCH  33  34
ATOM     34  O   UNL     1      -1.566   1.737  -3.591  0.00  0.00    -0.392 OA
ATOM     35  H   UNL     1      -0.652   1.476  -3.794  0.00  0.00    +0.210 HD
ENDBRANCH  33  34
ENDBRANCH  23  33
ENDBRANCH  20  21
ENDBRANCH  16  20
ENDBRANCH   1  13
BRANCH  11  36
ATOM     36  O   UNL     1      -3.370  -1.483  -0.965  0.00  0.00    -0.501 OA
ATOM     37  H   UNL     1      -2.781  -0.812  -1.349  0.00  0.00    +0.292 HD
ENDBRANCH  11  36
BRANCH   5  38
ATOM     38  O   UNL     1      -4.554  -6.477  -0.922  0.00  0.00    -0.506 OA
ATOM     39  H   UNL     1      -4.959  -5.580  -0.977  0.00  0.00    +0.292 HD
ENDBRANCH   5  38
BRANCH   7  40
ATOM     40  O   UNL     1      -0.406  -8.624   0.113  0.00  0.00    -0.461 OA
BRANCH  40  41
ATOM     41  C   UNL     1      -1.251  -9.773   0.385  0.00  0.00    +0.339 C 
ATOM     42  O   UNL     1      -2.049  -9.516   1.549  0.00  0.00    -0.331 OA
ATOM     43  C   UNL     1      -1.270  -9.589   2.757  0.00  0.00    +0.179 C 
ATOM     44  C   UNL     1      -0.917 -11.064   2.985  0.00  0.00    +0.177 C 
ATOM     45  C   UNL     1       0.019 -11.508   1.850  0.00  0.00    +0.180 C 
ATOM     46  C   UNL     1      -0.552 -11.156   0.469  0.00  0.00    +0.214 C 
BRANCH  46  47
ATOM     47  O   UNL     1       0.420 -11.341  -0.564  0.00  0.00    -0.383 OA
ATOM     48  H   UNL     1       1.277 -11.515  -0.132  0.00  0.00    +0.210 HD
ENDBRANCH  46  47
BRANCH  45  49
ATOM     49  O   UNL     1       1.336 -10.967   2.003  0.00  0.00    -0.386 OA
ATOM     50  H   UNL     1       1.350 -10.059   1.642  0.00  0.00    +0.210 HD
ENDBRANCH  45  49
BRANCH  44  51
ATOM     51  O   UNL     1      -2.105 -11.862   2.939  0.00  0.00    -0.386 OA
ATOM     52  H   UNL     1      -1.906 -12.733   3.322  0.00  0.00    +0.210 HD
ENDBRANCH  44  51
BRANCH  43  53
ATOM     53  C   UNL     1      -2.073  -8.938   3.888  0.00  0.00    +0.190 C 
BRANCH  53  54
ATOM     54  O   UNL     1      -3.380  -9.480   4.012  0.00  0.00    -0.392 OA
ATOM     55  H   UNL     1      -3.662  -9.692   3.100  0.00  0.00    +0.210 HD
ENDBRANCH  53  54
ENDBRANCH  43  53
ENDBRANCH  40  41
ENDBRANCH   7  40
TORSDOF 18
