REMARK  Name = 
REMARK  24 active torsions:
REMARK  status: ('A' for Active; 'I' for Inactive)
REMARK    1  A    between atoms: C_3  and  O_64
REMARK    2  A    between atoms: C_4  and  O_63
REMARK    3  A    between atoms: C_6  and  C_7
REMARK    4  A    between atoms: C_8  and  O_34
REMARK    5  A    between atoms: C_12  and  O_33
REMARK    6  A    between atoms: C_14  and  O_18
REMARK    7  A    between atoms: O_18  and  C_19
REMARK    8  A    between atoms: C_21  and  O_32
REMARK    9  A    between atoms: C_22  and  O_31
REMARK   10  A    between atoms: C_24  and  O_30
REMARK   11  A    between atoms: C_26  and  C_28
REMARK   12  A    between atoms: C_28  and  O_29
REMARK   13  A    between atoms: O_34  and  C_35
REMARK   14  A    between atoms: C_37  and  O_48
REMARK   15  A    between atoms: C_38  and  O_47
REMARK   16  A    between atoms: C_40  and  O_46
REMARK   17  A    between atoms: C_42  and  C_44
REMARK   18  A    between atoms: C_44  and  O_45
REMARK   19  A    between atoms: O_48  and  C_49
REMARK   20  A    between atoms: C_51  and  O_62
REMARK   21  A    between atoms: C_52  and  O_61
REMARK   22  A    between atoms: C_54  and  O_60
REMARK   23  A    between atoms: C_56  and  C_58
REMARK   24  A    between atoms: C_58  and  O_59
REMARK                            x       y       z     vdW  Elec       q    Type
REMARK                         _______ _______ _______ _____ _____    ______ ____
ROOT
ATOM      1  C   UNL     1      -1.160  -2.641  -0.864  0.00  0.00    +0.181 A 
ATOM      2  O   UNL     1      -0.422  -3.814  -0.686  0.00  0.00    -0.451 OA
ATOM      3  C   UNL     1      -1.063  -5.020  -0.552  0.00  0.00    +0.147 A 
ATOM      4  C   UNL     1      -2.427  -5.151  -0.612  0.00  0.00    +0.109 A 
ATOM      5  C   UNL     1      -3.004  -6.433  -0.616  0.00  0.00    +0.135 A 
ATOM      6  C   UNL     1      -2.199  -7.574  -0.557  0.00  0.00    +0.092 A 
ATOM      7  C   UNL     1      -0.807  -7.449  -0.452  0.00  0.00    +0.131 A 
ATOM      8  C   UNL     1      -3.214  -3.905  -0.576  0.00  0.00    +0.238 A 
ATOM      9  O   UNL     1      -4.414  -4.000  -0.358  0.00  0.00    -0.283 OA
ATOM     10  C   UNL     1      -0.266  -6.154  -0.396  0.00  0.00    +0.093 A 
ATOM     11  C   UNL     1      -2.510  -2.606  -0.769  0.00  0.00    +0.214 A 
ENDROOT
BRANCH   1  13
ATOM     12  C   UNL     1       0.925  -1.708  -1.882  0.00  0.00    +0.015 A 
ATOM     13  C   UNL     1      -0.304  -1.462  -1.229  0.00  0.00    +0.025 A 
ATOM     14  C   UNL     1      -0.682  -0.116  -1.079  0.00  0.00    +0.060 A 
ATOM     15  C   UNL     1       0.066   0.905  -1.666  0.00  0.00    +0.159 A 
ATOM     16  C   UNL     1       1.237   0.629  -2.356  0.00  0.00    +0.158 A 
ATOM     17  C   UNL     1       1.695  -0.675  -2.436  0.00  0.00    +0.050 A 
BRANCH  16  18
ATOM     18  O   UNL     1       1.891   1.668  -2.952  0.00  0.00    -0.503 OA
ATOM     19  H   UNL     1       2.605   1.302  -3.502  0.00  0.00    +0.292 HD
ENDBRANCH  16  18
BRANCH  15  20
ATOM     20  O   UNL     1      -0.393   2.191  -1.592  0.00  0.00    -0.503 OA
ATOM     21  H   UNL     1       0.226   2.707  -2.146  0.00  0.00    +0.292 HD
ENDBRANCH  15  20
ENDBRANCH   1  13
BRANCH   5  22
ATOM     22  O   UNL     1      -4.353  -6.646  -0.714  0.00  0.00    -0.506 OA
ATOM     23  H   UNL     1      -4.808  -5.772  -0.726  0.00  0.00    +0.292 HD
ENDBRANCH   5  22
BRANCH  11  24
ATOM     24  O   UNL     1      -3.190  -1.428  -0.491  0.00  0.00    -0.453 OA
BRANCH  24  25
ATOM     25  C   UNL     1      -4.072  -0.823  -1.445  0.00  0.00    +0.340 C 
ATOM     26  O   UNL     1      -4.132   0.622  -1.214  0.00  0.00    -0.331 OA
ATOM     27  C   UNL     1      -4.736   1.084   0.021  0.00  0.00    +0.179 C 
ATOM     28  C   UNL     1      -5.961   0.295   0.545  0.00  0.00    +0.177 C 
ATOM     29  C   UNL     1      -5.947  -1.176   0.164  0.00  0.00    +0.180 C 
ATOM     30  C   UNL     1      -5.525  -1.282  -1.322  0.00  0.00    +0.221 C 
BRANCH  29  31
ATOM     31  O   UNL     1      -5.146  -1.831   1.160  0.00  0.00    -0.386 OA
ATOM     32  H   UNL     1      -4.280  -2.038   0.770  0.00  0.00    +0.210 HD
ENDBRANCH  29  31
BRANCH  28  33
ATOM     33  O   UNL     1      -6.038   0.428   1.971  0.00  0.00    -0.386 OA
ATOM     34  H   UNL     1      -5.552  -0.352   2.321  0.00  0.00    +0.210 HD
ENDBRANCH  28  33
BRANCH  27  35
ATOM     35  C   UNL     1      -5.255   2.539  -0.165  0.00  0.00    +0.190 C 
BRANCH  35  36
ATOM     36  O   UNL     1      -4.295   3.445  -0.693  0.00  0.00    -0.392 OA
ATOM     37  H   UNL     1      -3.420   3.182  -0.343  0.00  0.00    +0.210 HD
ENDBRANCH  35  36
ENDBRANCH  27  35
BRANCH  30  38
ATOM     38  O   UNL     1      -5.955  -2.539  -1.826  0.00  0.00    -0.337 OA
BRANCH  38  39
ATOM     39  C   UNL     1      -5.925  -2.814  -3.227  0.00  0.00    +0.282 C 
ATOM     40  O   UNL     1      -6.381  -1.771  -4.078  0.00  0.00    -0.341 OA
ATOM     41  C   UNL     1      -7.701  -1.298  -3.772  0.00  0.00    +0.178 C 
ATOM     42  C   UNL     1      -8.795  -2.382  -3.682  0.00  0.00    +0.177 C 
ATOM     43  C   UNL     1      -8.292  -3.771  -3.232  0.00  0.00    +0.179 C 
ATOM     44  C   UNL     1      -6.800  -4.059  -3.498  0.00  0.00    +0.201 C 
BRANCH  44  45
ATOM     45  O   UNL     1      -6.374  -5.177  -2.695  0.00  0.00    -0.384 OA
ATOM     46  H   UNL     1      -7.041  -5.883  -2.784  0.00  0.00    +0.210 HD
ENDBRANCH  44  45
BRANCH  43  47
ATOM     47  O   UNL     1      -8.606  -3.954  -1.841  0.00  0.00    -0.386 OA
ATOM     48  H   UNL     1      -7.780  -4.237  -1.395  0.00  0.00    +0.210 HD
ENDBRANCH  43  47
BRANCH  42  49
ATOM     49  O   UNL     1      -9.534  -2.517  -4.899  0.00  0.00    -0.386 OA
ATOM     50  H   UNL     1     -10.379  -2.946  -4.656  0.00  0.00    +0.210 HD
ENDBRANCH  42  49
BRANCH  41  51
ATOM     51  C   UNL     1      -7.986  -0.098  -4.692  0.00  0.00    +0.190 C 
BRANCH  51  52
ATOM     52  O   UNL     1      -8.572   0.972  -3.945  0.00  0.00    -0.392 OA
ATOM     53  H   UNL     1      -9.525   0.799  -3.886  0.00  0.00    +0.210 HD
ENDBRANCH  51  52
ENDBRANCH  41  51
ENDBRANCH  38  39
ENDBRANCH  30  38
ENDBRANCH  24  25
ENDBRANCH  11  24
BRANCH   7  54
ATOM     54  O   UNL     1      -0.075  -8.626  -0.480  0.00  0.00    -0.461 OA
BRANCH  54  55
ATOM     55  C   UNL     1       1.338  -8.417  -0.669  0.00  0.00    +0.339 C 
ATOM     56  O   UNL     1       1.576  -7.640  -1.848  0.00  0.00    -0.331 OA
ATOM     57  C   UNL     1       1.314  -8.365  -3.060  0.00  0.00    +0.179 C 
ATOM     58  C   UNL     1       2.425  -9.410  -3.206  0.00  0.00    +0.177 C 
ATOM     59  C   UNL     1       2.302 -10.408  -2.042  0.00  0.00    +0.180 C 
ATOM     60  C   UNL     1       2.214  -9.699  -0.679  0.00  0.00    +0.214 C 
BRANCH  60  61
ATOM     61  O   UNL     1       1.872 -10.621   0.360  0.00  0.00    -0.383 OA
ATOM     62  H   UNL     1       1.430 -11.385  -0.058  0.00  0.00    +0.210 HD
ENDBRANCH  60  61
BRANCH  59  63
ATOM     63  O   UNL     1       1.192 -11.298  -2.226  0.00  0.00    -0.386 OA
ATOM     64  H   UNL     1       0.368 -10.838  -1.988  0.00  0.00    +0.210 HD
ENDBRANCH  59  63
BRANCH  58  65
ATOM     65  O   UNL     1       3.692  -8.741  -3.170  0.00  0.00    -0.386 OA
ATOM     66  H   UNL     1       4.403  -9.400  -3.099  0.00  0.00    +0.210 HD
ENDBRANCH  58  65
BRANCH  57  67
ATOM     67  C   UNL     1       1.271  -7.362  -4.218  0.00  0.00    +0.190 C 
BRANCH  67  68
ATOM     68  O   UNL     1       0.097  -6.541  -4.148  0.00  0.00    -0.392 OA
ATOM     69  H   UNL     1      -0.677  -7.121  -4.039  0.00  0.00    +0.210 HD
ENDBRANCH  67  68
ENDBRANCH  57  67
ENDBRANCH  54  55
ENDBRANCH   7  54
TORSDOF 24
