REMARK  Name = 
REMARK  24 active torsions:
REMARK  status: ('A' for Active; 'I' for Inactive)
REMARK    1  A    between atoms: C_3  and  O_64
REMARK    2  A    between atoms: C_4  and  O_63
REMARK    3  A    between atoms: C_6  and  C_7
REMARK    4  A    between atoms: C_8  and  O_35
REMARK    5  A    between atoms: C_12  and  O_34
REMARK    6  A    between atoms: C_14  and  O_18
REMARK    7  A    between atoms: O_18  and  C_19
REMARK    8  A    between atoms: C_21  and  O_33
REMARK    9  A    between atoms: C_22  and  O_32
REMARK   10  A    between atoms: C_24  and  O_31
REMARK   11  A    between atoms: C_26  and  C_28
REMARK   12  A    between atoms: C_28  and  O_30
REMARK   13  A    between atoms: O_35  and  C_36
REMARK   14  A    between atoms: C_38  and  O_62
REMARK   15  A    between atoms: C_39  and  O_61
REMARK   16  A    between atoms: C_40  and  O_60
REMARK   17  A    between atoms: C_42  and  C_44
REMARK   18  A    between atoms: C_44  and  O_45
REMARK   19  A    between atoms: O_45  and  C_46
REMARK   20  A    between atoms: C_48  and  O_59
REMARK   21  A    between atoms: C_49  and  O_58
REMARK   22  A    between atoms: C_51  and  O_57
REMARK   23  A    between atoms: C_53  and  C_55
REMARK   24  A    between atoms: C_55  and  O_56
REMARK                            x       y       z     vdW  Elec       q    Type
REMARK                         _______ _______ _______ _____ _____    ______ ____
ROOT
ATOM      1  C   UNL     1      -1.197  -2.822   0.329  0.00  0.00    +0.181 A 
ATOM      2  O   UNL     1      -0.577  -4.026   0.566  0.00  0.00    -0.451 OA
ATOM      3  C   UNL     1      -1.209  -5.179   0.219  0.00  0.00    +0.147 A 
ATOM      4  C   UNL     1      -2.522  -5.235  -0.224  0.00  0.00    +0.109 A 
ATOM      5  C   UNL     1      -3.075  -6.489  -0.510  0.00  0.00    +0.135 A 
ATOM      6  C   UNL     1      -2.279  -7.647  -0.471  0.00  0.00    +0.092 A 
ATOM      7  C   UNL     1      -0.922  -7.557  -0.119  0.00  0.00    +0.131 A 
ATOM      8  C   UNL     1      -3.231  -3.943  -0.410  0.00  0.00    +0.238 A 
ATOM      9  O   UNL     1      -4.426  -3.921  -0.694  0.00  0.00    -0.283 OA
ATOM     10  C   UNL     1      -0.435  -6.335   0.331  0.00  0.00    +0.093 A 
ATOM     11  C   UNL     1      -2.416  -2.690  -0.221  0.00  0.00    +0.214 A 
ENDROOT
BRANCH   1  13
ATOM     12  C   UNL     1       0.805  -1.505  -0.168  0.00  0.00    +0.015 A 
ATOM     13  C   UNL     1      -0.284  -1.712   0.700  0.00  0.00    +0.025 A 
ATOM     14  C   UNL     1      -0.288  -1.067   1.949  0.00  0.00    +0.060 A 
ATOM     15  C   UNL     1       0.845  -0.344   2.340  0.00  0.00    +0.159 A 
ATOM     16  C   UNL     1       1.967  -0.263   1.518  0.00  0.00    +0.158 A 
ATOM     17  C   UNL     1       1.937  -0.800   0.242  0.00  0.00    +0.050 A 
BRANCH  16  18
ATOM     18  O   UNL     1       3.100   0.308   2.026  0.00  0.00    -0.503 OA
ATOM     19  H   UNL     1       3.855  -0.011   1.499  0.00  0.00    +0.292 HD
ENDBRANCH  16  18
BRANCH  15  20
ATOM     20  O   UNL     1       0.893   0.235   3.579  0.00  0.00    -0.503 OA
ATOM     21  H   UNL     1       1.772   0.666   3.633  0.00  0.00    +0.292 HD
ENDBRANCH  15  20
ENDBRANCH   1  13
BRANCH   5  22
ATOM     22  O   UNL     1      -4.383  -6.655  -0.876  0.00  0.00    -0.506 OA
ATOM     23  H   UNL     1      -4.832  -5.783  -0.838  0.00  0.00    +0.292 HD
ENDBRANCH   5  22
BRANCH  11  24
ATOM     24  O   UNL     1      -2.985  -1.466  -0.220  0.00  0.00    -0.453 OA
BRANCH  24  25
ATOM     25  C   UNL     1      -3.546  -0.699  -1.271  0.00  0.00    +0.340 C 
ATOM     26  O   UNL     1      -2.720   0.429  -1.538  0.00  0.00    -0.331 OA
ATOM     27  C   UNL     1      -2.582   1.402  -0.476  0.00  0.00    +0.179 C 
ATOM     28  C   UNL     1      -3.616   1.458   0.693  0.00  0.00    +0.177 C 
ATOM     29  C   UNL     1      -4.538   0.251   0.757  0.00  0.00    +0.180 C 
ATOM     30  C   UNL     1      -4.870  -0.142  -0.711  0.00  0.00    +0.214 C 
BRANCH  30  31
ATOM     31  O   UNL     1      -5.956  -1.057  -0.788  0.00  0.00    -0.383 OA
ATOM     32  H   UNL     1      -5.611  -1.929  -1.060  0.00  0.00    +0.210 HD
ENDBRANCH  30  31
BRANCH  29  33
ATOM     33  O   UNL     1      -5.668   0.560   1.576  0.00  0.00    -0.386 OA
ATOM     34  H   UNL     1      -6.427   0.640   0.973  0.00  0.00    +0.210 HD
ENDBRANCH  29  33
BRANCH  28  35
ATOM     35  O   UNL     1      -4.485   2.606   0.605  0.00  0.00    -0.386 OA
ATOM     36  H   UNL     1      -5.012   2.579   1.430  0.00  0.00    +0.210 HD
ENDBRANCH  28  35
BRANCH  27  37
ATOM     37  C   UNL     1      -2.543   2.769  -1.177  0.00  0.00    +0.197 C 
BRANCH  37  38
ATOM     38  O   UNL     1      -1.927   3.815  -0.421  0.00  0.00    -0.346 OA
BRANCH  38  39
ATOM     39  C   UNL     1      -0.570   3.563  -0.036  0.00  0.00    +0.282 C 
ATOM     40  O   UNL     1      -0.175   4.534   0.939  0.00  0.00    -0.341 OA
ATOM     41  C   UNL     1      -0.129   5.885   0.452  0.00  0.00    +0.178 C 
ATOM     42  C   UNL     1       0.766   6.013  -0.802  0.00  0.00    +0.177 C 
ATOM     43  C   UNL     1       0.363   4.987  -1.866  0.00  0.00    +0.179 C 
ATOM     44  C   UNL     1       0.392   3.583  -1.243  0.00  0.00    +0.201 C 
BRANCH  44  45
ATOM     45  O   UNL     1       0.116   2.592  -2.239  0.00  0.00    -0.384 OA
ATOM     46  H   UNL     1      -0.357   3.043  -2.968  0.00  0.00    +0.210 HD
ENDBRANCH  44  45
BRANCH  43  47
ATOM     47  O   UNL     1      -0.917   5.290  -2.442  0.00  0.00    -0.386 OA
ATOM     48  H   UNL     1      -1.611   5.100  -1.764  0.00  0.00    +0.210 HD
ENDBRANCH  43  47
BRANCH  42  49
ATOM     49  O   UNL     1       2.138   5.786  -0.445  0.00  0.00    -0.386 OA
ATOM     50  H   UNL     1       2.661   5.698  -1.262  0.00  0.00    +0.210 HD
ENDBRANCH  42  49
BRANCH  41  51
ATOM     51  C   UNL     1       0.394   6.782   1.588  0.00  0.00    +0.190 C 
BRANCH  51  52
ATOM     52  O   UNL     1      -0.464   6.790   2.731  0.00  0.00    -0.392 OA
ATOM     53  H   UNL     1      -1.379   6.665   2.430  0.00  0.00    +0.210 HD
ENDBRANCH  51  52
ENDBRANCH  41  51
ENDBRANCH  38  39
ENDBRANCH  37  38
ENDBRANCH  27  37
ENDBRANCH  24  25
ENDBRANCH  11  24
BRANCH   7  54
ATOM     54  O   UNL     1      -0.147  -8.692  -0.291  0.00  0.00    -0.461 OA
BRANCH  54  55
ATOM     55  C   UNL     1       1.253  -8.391  -0.470  0.00  0.00    +0.340 C 
ATOM     56  O   UNL     1       1.426  -7.491  -1.580  0.00  0.00    -0.322 OA
ATOM     57  C   UNL     1       1.284  -8.168  -2.845  0.00  0.00    +0.261 C 
ATOM     58  C   UNL     1       2.468  -9.112  -3.021  0.00  0.00    +0.185 C 
ATOM     59  C   UNL     1       2.333 -10.223  -1.972  0.00  0.00    +0.180 C 
ATOM     60  C   UNL     1       2.185  -9.631  -0.559  0.00  0.00    +0.214 C 
BRANCH  60  61
ATOM     61  O   UNL     1       1.846 -10.635   0.401  0.00  0.00    -0.383 OA
ATOM     62  H   UNL     1       1.557 -11.430  -0.087  0.00  0.00    +0.210 HD
ENDBRANCH  60  61
BRANCH  59  63
ATOM     63  O   UNL     1       1.256 -11.114  -2.265  0.00  0.00    -0.386 OA
ATOM     64  H   UNL     1       0.412 -10.737  -1.954  0.00  0.00    +0.210 HD
ENDBRANCH  59  63
BRANCH  58  65
ATOM     65  O   UNL     1       3.679  -8.381  -2.769  0.00  0.00    -0.386 OA
ATOM     66  H   UNL     1       4.427  -8.889  -3.129  0.00  0.00    +0.210 HD
ENDBRANCH  58  65
BRANCH  57  67
ATOM     67  C   UNL     1       1.216  -7.140  -3.966  0.00  0.00    +0.337 C 
ATOM     68  O   UNL     1       1.219  -7.403  -5.158  0.00  0.00    -0.248 OA
BRANCH  67  69
ATOM     69  O   UNL     1       1.078  -5.877  -3.485  0.00  0.00    -0.479 OA
ATOM     70  H   UNL     1       1.145  -5.926  -2.503  0.00  0.00    +0.295 HD
ENDBRANCH  67  69
ENDBRANCH  57  67
ENDBRANCH  54  55
ENDBRANCH   7  54
TORSDOF 24
