REMARK  Name = 
REMARK  12 active torsions:
REMARK  status: ('A' for Active; 'I' for Inactive)
REMARK    1  A    between atoms: C_3  and  O_37
REMARK    2  A    between atoms: C_4  and  O_36
REMARK    3  A    between atoms: C_6  and  C_7
REMARK    4  A    between atoms: C_8  and  O_35
REMARK    5  A    between atoms: C_15  and  O_34
REMARK    6  A    between atoms: C_17  and  O_18
REMARK    7  A    between atoms: O_18  and  C_19
REMARK    8  A    between atoms: C_21  and  O_33
REMARK    9  A    between atoms: C_22  and  O_32
REMARK   10  A    between atoms: C_24  and  O_31
REMARK   11  A    between atoms: C_26  and  C_28
REMARK   12  A    between atoms: C_28  and  O_30
REMARK                            x       y       z     vdW  Elec       q    Type
REMARK                         _______ _______ _______ _____ _____    ______ ____
ROOT
ATOM      1  C   UNL     1      -1.131  -2.556  -0.469  0.00  0.00    +0.181 A 
ATOM      2  O   UNL     1      -0.509  -3.750  -0.111  0.00  0.00    -0.451 OA
ATOM      3  C   UNL     1      -1.150  -4.942  -0.351  0.00  0.00    +0.147 A 
ATOM      4  C   UNL     1      -0.496  -6.079   0.124  0.00  0.00    +0.092 A 
ATOM      5  C   UNL     1      -1.095  -7.321  -0.055  0.00  0.00    +0.124 A 
ATOM      6  C   UNL     1      -2.354  -7.441  -0.639  0.00  0.00    +0.092 A 
ATOM      7  C   UNL     1      -3.019  -6.311  -1.130  0.00  0.00    +0.142 A 
ATOM      8  C   UNL     1      -2.374  -5.053  -1.030  0.00  0.00    +0.110 A 
ATOM      9  C   UNL     1      -2.880  -3.815  -1.656  0.00  0.00    +0.238 A 
ATOM     10  O   UNL     1      -3.734  -3.858  -2.532  0.00  0.00    -0.283 OA
ATOM     11  C   UNL     1      -2.267  -2.523  -1.200  0.00  0.00    +0.208 A 
ENDROOT
BRANCH   1  13
ATOM     12  C   UNL     1      -0.038  -0.325  -0.946  0.00  0.00    +0.015 A 
ATOM     13  C   UNL     1      -0.341  -1.364  -0.040  0.00  0.00    +0.025 A 
ATOM     14  C   UNL     1       0.235  -1.300   1.244  0.00  0.00    +0.060 A 
ATOM     15  C   UNL     1       1.119  -0.270   1.564  0.00  0.00    +0.159 A 
ATOM     16  C   UNL     1       1.445   0.714   0.641  0.00  0.00    +0.158 A 
ATOM     17  C   UNL     1       0.848   0.711  -0.608  0.00  0.00    +0.050 A 
BRANCH  15  18
ATOM     18  O   UNL     1       1.710  -0.250   2.803  0.00  0.00    -0.503 OA
ATOM     19  H   UNL     1       2.292   0.543   2.789  0.00  0.00    +0.292 HD
ENDBRANCH  15  18
BRANCH  16  20
ATOM     20  O   UNL     1       2.382   1.645   0.995  0.00  0.00    -0.503 OA
ATOM     21  H   UNL     1       2.663   2.118   0.191  0.00  0.00    +0.292 HD
ENDBRANCH  16  20
ENDBRANCH   1  13
BRANCH   5  22
ATOM     22  O   UNL     1      -0.468  -8.471   0.322  0.00  0.00    -0.507 OA
ATOM     23  H   UNL     1       0.480  -8.291   0.444  0.00  0.00    +0.292 HD
ENDBRANCH   5  22
BRANCH  11  24
ATOM     24  O   UNL     1      -2.915  -1.358  -1.577  0.00  0.00    -0.501 OA
ATOM     25  H   UNL     1      -2.657  -0.643  -0.972  0.00  0.00    +0.292 HD
ENDBRANCH  11  24
BRANCH   7  26
ATOM     26  O   UNL     1      -4.240  -6.482  -1.762  0.00  0.00    -0.460 OA
BRANCH  26  27
ATOM     27  C   UNL     1      -5.251  -7.109  -0.925  0.00  0.00    +0.340 C 
ATOM     28  O   UNL     1      -5.303  -8.547  -1.060  0.00  0.00    -0.322 OA
ATOM     29  C   UNL     1      -5.960  -9.034  -2.250  0.00  0.00    +0.261 C 
ATOM     30  C   UNL     1      -7.386  -8.491  -2.408  0.00  0.00    +0.185 C 
ATOM     31  C   UNL     1      -7.332  -6.963  -2.435  0.00  0.00    +0.180 C 
ATOM     32  C   UNL     1      -6.633  -6.450  -1.165  0.00  0.00    +0.214 C 
BRANCH  29  33
ATOM     33  C   UNL     1      -6.027 -10.565  -2.214  0.00  0.00    +0.337 C 
ATOM     34  O   UNL     1      -6.531 -11.260  -3.087  0.00  0.00    -0.248 OA
BRANCH  33  35
ATOM     35  O   UNL     1      -5.439 -11.084  -1.111  0.00  0.00    -0.479 OA
ATOM     36  H   UNL     1      -5.145 -10.340  -0.540  0.00  0.00    +0.295 HD
ENDBRANCH  33  35
ENDBRANCH  29  33
BRANCH  30  37
ATOM     37  O   UNL     1      -8.197  -8.903  -1.297  0.00  0.00    -0.386 OA
ATOM     38  H   UNL     1      -9.130  -8.804  -1.562  0.00  0.00    +0.210 HD
ENDBRANCH  30  37
BRANCH  31  39
ATOM     39  O   UNL     1      -6.720  -6.496  -3.639  0.00  0.00    -0.386 OA
ATOM     40  H   UNL     1      -5.760  -6.661  -3.625  0.00  0.00    +0.210 HD
ENDBRANCH  31  39
BRANCH  32  41
ATOM     41  O   UNL     1      -6.556  -5.023  -1.164  0.00  0.00    -0.383 OA
ATOM     42  H   UNL     1      -6.060  -4.757  -1.967  0.00  0.00    +0.210 HD
ENDBRANCH  32  41
ENDBRANCH  26  27
ENDBRANCH   7  26
TORSDOF 12
