REMARK  Name = 
REMARK  17 active torsions:
REMARK  status: ('A' for Active; 'I' for Inactive)
REMARK    1  A    between atoms: C_3  and  O_47
REMARK    2  A    between atoms: C_4  and  O_46
REMARK    3  A    between atoms: C_6  and  C_7
REMARK    4  A    between atoms: C_8  and  O_20
REMARK    5  A    between atoms: C_12  and  O_19
REMARK    6  A    between atoms: C_14  and  O_18
REMARK    7  A    between atoms: O_20  and  C_21
REMARK    8  A    between atoms: C_23  and  O_34
REMARK    9  A    between atoms: C_25  and  O_33
REMARK   10  A    between atoms: C_26  and  O_32
REMARK   11  A    between atoms: C_28  and  C_30
REMARK   12  A    between atoms: C_30  and  O_31
REMARK   13  A    between atoms: O_34  and  C_35
REMARK   14  A    between atoms: C_35  and  C_37
REMARK   15  A    between atoms: C_39  and  O_45
REMARK   16  A    between atoms: C_40  and  O_44
REMARK   17  A    between atoms: C_41  and  O_43
REMARK                            x       y       z     vdW  Elec       q    Type
REMARK                         _______ _______ _______ _____ _____    ______ ____
ROOT
ATOM      1  C   UNL     1      -2.615  -0.548  -0.926  0.00  0.00    +0.352 C 
ATOM      2  O   UNL     1      -2.880   0.314  -2.063  0.00  0.00    -0.330 OA
ATOM      3  C   UNL     1      -2.753  -0.166  -3.402  0.00  0.00    +0.179 C 
ATOM      4  C   UNL     1      -1.584  -1.139  -3.608  0.00  0.00    +0.178 C 
ATOM      5  C   UNL     1      -1.282  -1.985  -2.367  0.00  0.00    +0.192 C 
ATOM      6  C   UNL     1      -1.226  -1.249  -0.988  0.00  0.00    +0.276 C 
ENDROOT
BRANCH   5   7
ATOM      7  O   UNL     1      -0.200  -2.880  -2.590  0.00  0.00    -0.385 OA
ATOM      8  H   UNL     1       0.595  -2.487  -2.201  0.00  0.00    +0.210 HD
ENDBRANCH   5   7
BRANCH   4   9
ATOM      9  O   UNL     1      -1.912  -1.978  -4.740  0.00  0.00    -0.386 OA
ATOM     10  H   UNL     1      -2.534  -2.674  -4.450  0.00  0.00    +0.210 HD
ENDBRANCH   4   9
BRANCH   6  11
ATOM     11  O   UNL     1      -0.046  -0.418  -0.526  0.00  0.00    -0.449 OA
BRANCH  11  12
ATOM     12  C   UNL     1       0.528  -0.786   0.714  0.00  0.00    +0.340 C 
ATOM     13  O   UNL     1       0.182  -1.820   1.286  0.00  0.00    -0.245 OA
BRANCH  12  14
ATOM     14  C   UNL     1       1.613   0.054   1.455  0.00  0.00    +0.066 A 
ATOM     15  C   UNL     1       2.000   1.355   1.099  0.00  0.00    +0.064 A 
ATOM     16  C   UNL     1       2.947   2.058   1.884  0.00  0.00    +0.163 A 
ATOM     17  C   UNL     1       3.525   1.511   3.021  0.00  0.00    +0.201 A 
ATOM     18  C   UNL     1       3.183   0.232   3.403  0.00  0.00    +0.163 A 
ATOM     19  C   UNL     1       2.247  -0.499   2.629  0.00  0.00    +0.064 A 
BRANCH  18  20
ATOM     20  O   UNL     1       3.783  -0.238   4.542  0.00  0.00    -0.503 OA
ATOM     21  H   UNL     1       3.301  -1.010   4.881  0.00  0.00    +0.292 HD
ENDBRANCH  18  20
BRANCH  17  22
ATOM     22  O   UNL     1       4.413   2.266   3.754  0.00  0.00    -0.501 OA
ATOM     23  H   UNL     1       4.673   1.709   4.516  0.00  0.00    +0.292 HD
ENDBRANCH  17  22
BRANCH  16  24
ATOM     24  O   UNL     1       3.306   3.335   1.539  0.00  0.00    -0.503 OA
ATOM     25  H   UNL     1       3.951   3.611   2.231  0.00  0.00    +0.292 HD
ENDBRANCH  16  24
ENDBRANCH  12  14
ENDBRANCH  11  12
ENDBRANCH   6  11
BRANCH   3  26
ATOM     26  C   UNL     1      -2.504   1.041  -4.364  0.00  0.00    +0.190 C 
BRANCH  26  27
ATOM     27  O   UNL     1      -3.520   2.040  -4.328  0.00  0.00    -0.392 OA
ATOM     28  H   UNL     1      -4.380   1.608  -4.451  0.00  0.00    +0.210 HD
ENDBRANCH  26  27
ENDBRANCH   3  26
BRANCH   1  29
ATOM     29  O   UNL     1      -3.636  -1.589  -0.726  0.00  0.00    -0.452 OA
BRANCH  29  40
ATOM     30  C   UNL     1      -3.511  -3.688   0.556  0.00  0.00    +0.181 A 
ATOM     31  O   UNL     1      -3.369  -4.400   1.757  0.00  0.00    -0.451 OA
ATOM     32  C   UNL     1      -3.140  -3.727   2.930  0.00  0.00    +0.147 A 
ATOM     33  C   UNL     1      -3.009  -2.350   2.978  0.00  0.00    +0.109 A 
ATOM     34  C   UNL     1      -2.696  -1.705   4.184  0.00  0.00    +0.135 A 
ATOM     35  C   UNL     1      -2.555  -2.436   5.347  0.00  0.00    +0.091 A 
ATOM     36  C   UNL     1      -2.736  -3.811   5.325  0.00  0.00    +0.124 A 
ATOM     37  C   UNL     1      -3.226  -1.592   1.753  0.00  0.00    +0.238 A 
ATOM     38  O   UNL     1      -3.134  -0.369   1.822  0.00  0.00    -0.283 OA
ATOM     39  C   UNL     1      -3.013  -4.476   4.113  0.00  0.00    +0.092 A 
ATOM     40  C   UNL     1      -3.506  -2.328   0.475  0.00  0.00    +0.214 A 
BRANCH  30  42
ATOM     41  C   UNL     1      -2.671  -5.736  -0.671  0.00  0.00    +0.015 A 
ATOM     42  C   UNL     1      -3.553  -4.625  -0.616  0.00  0.00    +0.025 A 
ATOM     43  C   UNL     1      -4.444  -4.458  -1.683  0.00  0.00    +0.060 A 
ATOM     44  C   UNL     1      -4.393  -5.317  -2.784  0.00  0.00    +0.159 A 
ATOM     45  C   UNL     1      -3.477  -6.362  -2.852  0.00  0.00    +0.158 A 
ATOM     46  C   UNL     1      -2.624  -6.592  -1.785  0.00  0.00    +0.050 A 
BRANCH  45  47
ATOM     47  O   UNL     1      -3.457  -7.120  -3.990  0.00  0.00    -0.503 OA
ATOM     48  H   UNL     1      -2.647  -7.660  -3.989  0.00  0.00    +0.292 HD
ENDBRANCH  45  47
BRANCH  44  49
ATOM     49  O   UNL     1      -5.250  -5.112  -3.830  0.00  0.00    -0.503 OA
ATOM     50  H   UNL     1      -5.062  -5.845  -4.451  0.00  0.00    +0.292 HD
ENDBRANCH  44  49
ENDBRANCH  30  42
BRANCH  36  51
ATOM     51  O   UNL     1      -2.649  -4.550   6.469  0.00  0.00    -0.507 OA
ATOM     52  H   UNL     1      -2.513  -3.952   7.228  0.00  0.00    +0.292 HD
ENDBRANCH  36  51
BRANCH  34  53
ATOM     53  O   UNL     1      -2.488  -0.354   4.282  0.00  0.00    -0.506 OA
ATOM     54  H   UNL     1      -2.622   0.038   3.389  0.00  0.00    +0.292 HD
ENDBRANCH  34  53
ENDBRANCH  29  40
ENDBRANCH   1  29
TORSDOF 17
