REMARK  Name = 
REMARK  17 active torsions:
REMARK  status: ('A' for Active; 'I' for Inactive)
REMARK    1  A    between atoms: C_1  and  C_2
REMARK    2  A    between atoms: C_3  and  O_48
REMARK    3  A    between atoms: C_5  and  O_47
REMARK    4  A    between atoms: C_7  and  O_46
REMARK    5  A    between atoms: C_8  and  O_11
REMARK    6  A    between atoms: O_11  and  C_12
REMARK    7  A    between atoms: C_14  and  O_45
REMARK    8  A    between atoms: C_19  and  C_37
REMARK    9  A    between atoms: C_20  and  O_23
REMARK   10  A    between atoms: O_23  and  C_24
REMARK   11  A    between atoms: C_26  and  O_36
REMARK   12  A    between atoms: C_27  and  O_35
REMARK   13  A    between atoms: C_28  and  O_34
REMARK   14  A    between atoms: C_30  and  C_32
REMARK   15  A    between atoms: C_32  and  O_33
REMARK   16  A    between atoms: C_39  and  O_44
REMARK   17  A    between atoms: C_40  and  O_43
REMARK                            x       y       z     vdW  Elec       q    Type
REMARK                         _______ _______ _______ _____ _____    ______ ____
ROOT
ATOM      1  C   UNL     1       2.647   2.967  -3.287  0.00  0.00    +0.131 A 
ATOM      2  C   UNL     1       1.399   3.480  -2.904  0.00  0.00    +0.093 A 
ATOM      3  C   UNL     1       1.208   4.869  -2.802  0.00  0.00    +0.147 A 
ATOM      4  O   UNL     1      -0.018   5.343  -2.390  0.00  0.00    -0.451 OA
ATOM      5  C   UNL     1      -0.278   6.727  -2.453  0.00  0.00    +0.181 A 
ATOM      6  C   UNL     1       0.678   7.662  -2.667  0.00  0.00    +0.214 A 
ATOM      7  C   UNL     1       2.081   7.126  -2.702  0.00  0.00    +0.238 A 
ATOM      8  O   UNL     1       3.057   7.763  -2.323  0.00  0.00    -0.283 OA
ATOM      9  C   UNL     1       2.263   5.724  -3.070  0.00  0.00    +0.109 A 
ATOM     10  C   UNL     1       3.485   5.219  -3.529  0.00  0.00    +0.135 A 
ATOM     11  C   UNL     1       3.675   3.846  -3.629  0.00  0.00    +0.092 A 
ENDROOT
BRANCH   5  12
ATOM     12  C   UNL     1      -1.720   7.034  -2.206  0.00  0.00    +0.025 A 
ATOM     13  C   UNL     1      -2.728   6.122  -2.579  0.00  0.00    +0.015 A 
ATOM     14  C   UNL     1      -4.075   6.365  -2.281  0.00  0.00    +0.050 A 
ATOM     15  C   UNL     1      -4.427   7.527  -1.616  0.00  0.00    +0.158 A 
ATOM     16  C   UNL     1      -3.453   8.440  -1.236  0.00  0.00    +0.159 A 
ATOM     17  C   UNL     1      -2.109   8.192  -1.513  0.00  0.00    +0.060 A 
BRANCH  15  18
ATOM     18  O   UNL     1      -5.736   7.760  -1.313  0.00  0.00    -0.503 OA
ATOM     19  H   UNL     1      -5.731   8.607  -0.822  0.00  0.00    +0.292 HD
ENDBRANCH  15  18
BRANCH  16  20
ATOM     20  O   UNL     1      -3.864   9.567  -0.579  0.00  0.00    -0.503 OA
ATOM     21  H   UNL     1      -3.082  10.094  -0.339  0.00  0.00    +0.292 HD
ENDBRANCH  16  20
ENDBRANCH   5  12
BRANCH  10  22
ATOM     22  O   UNL     1       4.494   6.061  -3.899  0.00  0.00    -0.506 OA
ATOM     23  H   UNL     1       5.330   5.571  -3.968  0.00  0.00    +0.292 HD
ENDBRANCH  10  22
BRANCH   6  24
ATOM     24  O   UNL     1       0.387   9.029  -2.815  0.00  0.00    -0.453 OA
BRANCH  24  25
ATOM     25  C   UNL     1       1.443   9.982  -2.587  0.00  0.00    +0.340 C 
ATOM     26  O   UNL     1       1.579  10.298  -1.198  0.00  0.00    -0.331 OA
ATOM     27  C   UNL     1       0.599  11.193  -0.668  0.00  0.00    +0.179 C 
ATOM     28  C   UNL     1       0.616  12.526  -1.422  0.00  0.00    +0.177 C 
ATOM     29  C   UNL     1       0.309  12.264  -2.898  0.00  0.00    +0.180 C 
ATOM     30  C   UNL     1       1.298  11.248  -3.470  0.00  0.00    +0.214 C 
BRANCH  28  31
ATOM     31  O   UNL     1      -0.340  13.436  -0.863  0.00  0.00    -0.386 OA
ATOM     32  H   UNL     1      -0.887  13.776  -1.599  0.00  0.00    +0.210 HD
ENDBRANCH  28  31
BRANCH  29  33
ATOM     33  O   UNL     1       0.352  13.510  -3.605  0.00  0.00    -0.386 OA
ATOM     34  H   UNL     1       1.280  13.720  -3.801  0.00  0.00    +0.210 HD
ENDBRANCH  29  33
BRANCH  30  35
ATOM     35  O   UNL     1       0.981  10.933  -4.829  0.00  0.00    -0.383 OA
ATOM     36  H   UNL     1       0.120  10.476  -4.835  0.00  0.00    +0.210 HD
ENDBRANCH  30  35
BRANCH  27  37
ATOM     37  C   UNL     1       0.874  11.389   0.833  0.00  0.00    +0.190 C 
BRANCH  37  38
ATOM     38  O   UNL     1      -0.080  12.236   1.464  0.00  0.00    -0.392 OA
ATOM     39  H   UNL     1      -0.143  13.051   0.918  0.00  0.00    +0.210 HD
ENDBRANCH  37  38
ENDBRANCH  27  37
ENDBRANCH  24  25
ENDBRANCH   6  24
BRANCH   1  40
ATOM     40  O   UNL     1       3.023   1.655  -3.357  0.00  0.00    -0.461 OA
BRANCH  40  44
ATOM     41  C   UNL     1      -0.647  -0.066  -1.912  0.00  0.00    +0.041 C 
ATOM     42  C   UNL     1       0.717  -0.290  -1.261  0.00  0.00    +0.150 C 
ATOM     43  O   UNL     1       1.640   0.729  -1.679  0.00  0.00    -0.334 OA
ATOM     44  C   UNL     1       2.069   0.635  -3.041  0.00  0.00    +0.339 C 
ATOM     45  C   UNL     1       2.791  -0.717  -3.247  0.00  0.00    +0.214 C 
ATOM     46  C   UNL     1       1.796  -1.847  -2.944  0.00  0.00    +0.180 C 
ATOM     47  C   UNL     1       1.258  -1.712  -1.508  0.00  0.00    +0.174 C 
BRANCH  47  48
ATOM     48  O   UNL     1       2.292  -2.008  -0.557  0.00  0.00    -0.387 OA
ATOM     49  H   UNL     1       3.090  -1.507  -0.839  0.00  0.00    +0.210 HD
ENDBRANCH  47  48
BRANCH  46  50
ATOM     50  O   UNL     1       2.385  -3.130  -3.180  0.00  0.00    -0.386 OA
ATOM     51  H   UNL     1       2.200  -3.693  -2.405  0.00  0.00    +0.210 HD
ENDBRANCH  46  50
BRANCH  45  52
ATOM     52  O   UNL     1       3.916  -0.804  -2.336  0.00  0.00    -0.383 OA
ATOM     53  H   UNL     1       4.258   0.107  -2.239  0.00  0.00    +0.210 HD
ENDBRANCH  45  52
ENDBRANCH  40  44
ENDBRANCH   1  40
TORSDOF 16
