REMARK  Name = 
REMARK  23 active torsions:
REMARK  status: ('A' for Active; 'I' for Inactive)
REMARK    1  A    between atoms: C_1  and  C_2
REMARK    2  A    between atoms: C_3  and  O_62
REMARK    3  A    between atoms: C_5  and  O_61
REMARK    4  A    between atoms: C_7  and  O_60
REMARK    5  A    between atoms: C_8  and  O_11
REMARK    6  A    between atoms: O_11  and  C_12
REMARK    7  A    between atoms: C_13  and  O_59
REMARK    8  A    between atoms: C_15  and  O_58
REMARK    9  A    between atoms: C_17  and  C_56
REMARK   10  A    between atoms: C_19  and  O_21
REMARK   11  A    between atoms: O_21  and  C_22
REMARK   12  A    between atoms: C_24  and  O_55
REMARK   13  A    between atoms: C_29  and  C_47
REMARK   14  A    between atoms: C_30  and  O_33
REMARK   15  A    between atoms: O_33  and  C_34
REMARK   16  A    between atoms: C_36  and  O_46
REMARK   17  A    between atoms: C_37  and  O_45
REMARK   18  A    between atoms: C_38  and  O_44
REMARK   19  A    between atoms: C_40  and  C_42
REMARK   20  A    between atoms: C_42  and  O_43
REMARK   21  A    between atoms: C_49  and  O_54
REMARK   22  A    between atoms: C_50  and  O_53
REMARK   23  A    between atoms: C_56  and  O_57
REMARK                            x       y       z     vdW  Elec       q    Type
REMARK                         _______ _______ _______ _____ _____    ______ ____
ROOT
ATOM      1  C   UNL     1       0.251   0.447  -2.873  0.00  0.00    +0.131 A 
ATOM      2  C   UNL     1      -0.030  -0.844  -2.372  0.00  0.00    +0.093 A 
ATOM      3  C   UNL     1      -0.629  -1.016  -1.100  0.00  0.00    +0.147 A 
ATOM      4  O   UNL     1      -0.870  -2.287  -0.601  0.00  0.00    -0.451 OA
ATOM      5  C   UNL     1      -1.311  -2.434   0.737  0.00  0.00    +0.181 A 
ATOM      6  C   UNL     1      -1.744  -1.399   1.512  0.00  0.00    +0.214 A 
ATOM      7  C   UNL     1      -1.800  -0.084   0.817  0.00  0.00    +0.238 A 
ATOM      8  O   UNL     1      -2.619   0.779   1.117  0.00  0.00    -0.283 OA
ATOM      9  C   UNL     1      -0.973   0.108  -0.366  0.00  0.00    +0.109 A 
ATOM     10  C   UNL     1      -0.647   1.388  -0.836  0.00  0.00    +0.135 A 
ATOM     11  C   UNL     1      -0.045   1.555  -2.078  0.00  0.00    +0.092 A 
ENDROOT
BRANCH   5  12
ATOM     12  C   UNL     1      -1.366  -3.867   1.209  0.00  0.00    +0.025 A 
ATOM     13  C   UNL     1      -1.152  -4.203   2.565  0.00  0.00    +0.015 A 
ATOM     14  C   UNL     1      -1.338  -5.504   3.051  0.00  0.00    +0.050 A 
ATOM     15  C   UNL     1      -1.695  -6.507   2.173  0.00  0.00    +0.158 A 
ATOM     16  C   UNL     1      -1.838  -6.232   0.818  0.00  0.00    +0.159 A 
ATOM     17  C   UNL     1      -1.673  -4.927   0.328  0.00  0.00    +0.060 A 
BRANCH  16  18
ATOM     18  O   UNL     1      -2.165  -7.287   0.008  0.00  0.00    -0.503 OA
ATOM     19  H   UNL     1      -2.228  -6.968  -0.906  0.00  0.00    +0.292 HD
ENDBRANCH  16  18
BRANCH  15  20
ATOM     20  O   UNL     1      -1.908  -7.766   2.656  0.00  0.00    -0.503 OA
ATOM     21  H   UNL     1      -2.177  -8.293   1.878  0.00  0.00    +0.292 HD
ENDBRANCH  15  20
ENDBRANCH   5  12
BRANCH  10  22
ATOM     22  O   UNL     1      -0.867   2.481  -0.049  0.00  0.00    -0.506 OA
ATOM     23  H   UNL     1      -0.720   3.297  -0.554  0.00  0.00    +0.292 HD
ENDBRANCH  10  22
BRANCH   6  24
ATOM     24  O   UNL     1      -2.245  -1.574   2.807  0.00  0.00    -0.453 OA
BRANCH  24  25
ATOM     25  C   UNL     1      -2.621  -0.438   3.626  0.00  0.00    +0.340 C 
ATOM     26  O   UNL     1      -1.502   0.227   4.236  0.00  0.00    -0.331 OA
ATOM     27  C   UNL     1      -0.816  -0.564   5.227  0.00  0.00    +0.179 C 
ATOM     28  C   UNL     1      -1.756  -1.019   6.364  0.00  0.00    +0.177 C 
ATOM     29  C   UNL     1      -2.963  -1.753   5.778  0.00  0.00    +0.180 C 
ATOM     30  C   UNL     1      -3.641  -0.886   4.702  0.00  0.00    +0.214 C 
BRANCH  30  31
ATOM     31  O   UNL     1      -4.759  -1.579   4.129  0.00  0.00    -0.383 OA
ATOM     32  H   UNL     1      -4.408  -2.345   3.641  0.00  0.00    +0.210 HD
ENDBRANCH  30  31
BRANCH  29  33
ATOM     33  O   UNL     1      -3.878  -2.055   6.844  0.00  0.00    -0.386 OA
ATOM     34  H   UNL     1      -4.390  -1.242   7.015  0.00  0.00    +0.210 HD
ENDBRANCH  29  33
BRANCH  28  35
ATOM     35  O   UNL     1      -2.251   0.079   7.133  0.00  0.00    -0.386 OA
ATOM     36  H   UNL     1      -2.468  -0.284   8.020  0.00  0.00    +0.210 HD
ENDBRANCH  28  35
BRANCH  27  37
ATOM     37  C   UNL     1       0.428   0.210   5.723  0.00  0.00    +0.190 C 
BRANCH  37  38
ATOM     38  O   UNL     1       0.176   1.234   6.677  0.00  0.00    -0.392 OA
ATOM     39  H   UNL     1      -0.558   1.775   6.332  0.00  0.00    +0.210 HD
ENDBRANCH  37  38
ENDBRANCH  27  37
ENDBRANCH  24  25
ENDBRANCH   6  24
BRANCH   1  40
ATOM     40  O   UNL     1       0.856   0.799  -4.060  0.00  0.00    -0.461 OA
BRANCH  40  42
ATOM     41  C   UNL     1       1.096   0.619  -6.544  0.00  0.00    +0.221 C 
ATOM     42  C   UNL     1       0.783  -0.109  -5.162  0.00  0.00    +0.340 C 
ATOM     43  O   UNL     1       1.631  -1.239  -4.954  0.00  0.00    -0.331 OA
ATOM     44  C   UNL     1       1.507  -2.255  -5.957  0.00  0.00    +0.179 C 
ATOM     45  C   UNL     1       1.906  -1.674  -7.318  0.00  0.00    +0.177 C 
ATOM     46  C   UNL     1       1.004  -0.475  -7.652  0.00  0.00    +0.180 C 
BRANCH  46  47
ATOM     47  O   UNL     1       1.287  -0.048  -8.992  0.00  0.00    -0.386 OA
ATOM     48  H   UNL     1       0.543   0.495  -9.306  0.00  0.00    +0.210 HD
ENDBRANCH  46  47
BRANCH  45  49
ATOM     49  O   UNL     1       1.783  -2.664  -8.340  0.00  0.00    -0.386 OA
ATOM     50  H   UNL     1       1.962  -2.193  -9.179  0.00  0.00    +0.210 HD
ENDBRANCH  45  49
BRANCH  44  51
ATOM     51  C   UNL     1       0.106  -2.920  -5.983  0.00  0.00    +0.190 C 
BRANCH  51  52
ATOM     52  O   UNL     1      -0.273  -3.410  -4.702  0.00  0.00    -0.392 OA
ATOM     53  H   UNL     1       0.442  -3.977  -4.383  0.00  0.00    +0.210 HD
ENDBRANCH  51  52
ENDBRANCH  44  51
BRANCH  41  54
ATOM     54  O   UNL     1       2.347   1.374  -6.553  0.00  0.00    -0.337 OA
BRANCH  54  58
ATOM     55  C   UNL     1       4.564   2.216 -10.094  0.00  0.00    +0.041 C 
ATOM     56  C   UNL     1       4.282   3.310  -9.055  0.00  0.00    +0.149 C 
ATOM     57  O   UNL     1       3.901   2.757  -7.763  0.00  0.00    -0.343 OA
ATOM     58  C   UNL     1       2.621   2.092  -7.783  0.00  0.00    +0.282 C 
ATOM     59  C   UNL     1       1.545   3.156  -8.112  0.00  0.00    +0.201 C 
ATOM     60  C   UNL     1       1.828   3.721  -9.512  0.00  0.00    +0.179 C 
ATOM     61  C   UNL     1       3.240   4.322  -9.587  0.00  0.00    +0.174 C 
BRANCH  61  62
ATOM     62  O   UNL     1       3.322   5.539  -8.839  0.00  0.00    -0.387 OA
ATOM     63  H   UNL     1       3.037   5.331  -7.924  0.00  0.00    +0.210 HD
ENDBRANCH  61  62
BRANCH  60  64
ATOM     64  O   UNL     1       0.802   4.636  -9.903  0.00  0.00    -0.386 OA
ATOM     65  H   UNL     1       1.216   5.355 -10.414  0.00  0.00    +0.210 HD
ENDBRANCH  60  64
BRANCH  59  66
ATOM     66  O   UNL     1       1.581   4.205  -7.121  0.00  0.00    -0.384 OA
ATOM     67  H   UNL     1       2.042   3.840  -6.339  0.00  0.00    +0.210 HD
ENDBRANCH  59  66
ENDBRANCH  54  58
ENDBRANCH  41  54
ENDBRANCH  40  42
ENDBRANCH   1  40
TORSDOF 22
