REMARK  Name = 
REMARK  17 active torsions:
REMARK  status: ('A' for Active; 'I' for Inactive)
REMARK    1  A    between atoms: C_1  and  O_2
REMARK    2  A    between atoms: O_2  and  C_3
REMARK    3  A    between atoms: C_5  and  O_48
REMARK    4  A    between atoms: C_10  and  C_40
REMARK    5  A    between atoms: C_11  and  O_14
REMARK    6  A    between atoms: O_14  and  C_15
REMARK    7  A    between atoms: C_17  and  O_39
REMARK    8  A    between atoms: C_18  and  O_27
REMARK    9  A    between atoms: C_20  and  O_26
REMARK   10  A    between atoms: C_22  and  C_24
REMARK   11  A    between atoms: C_24  and  O_25
REMARK   12  A    between atoms: O_27  and  C_28
REMARK   13  A    between atoms: C_30  and  O_38
REMARK   14  A    between atoms: C_31  and  O_37
REMARK   15  A    between atoms: C_33  and  O_36
REMARK   16  A    between atoms: C_42  and  O_47
REMARK   17  A    between atoms: C_43  and  O_46
REMARK                            x       y       z     vdW  Elec       q    Type
REMARK                         _______ _______ _______ _____ _____    ______ ____
ROOT
ATOM      1  O   UNL     1       5.087   7.061   0.708  0.00  0.00    -0.453 OA
ENDROOT
BRANCH   1   7
ATOM      2  C   UNL     1       0.935   2.834   3.062  0.00  0.00    +0.127 A 
ATOM      3  C   UNL     1       0.748   4.086   2.458  0.00  0.00    +0.092 A 
ATOM      4  C   UNL     1       1.840   4.960   2.310  0.00  0.00    +0.147 A 
ATOM      5  O   UNL     1       1.644   6.171   1.688  0.00  0.00    -0.451 OA
ATOM      6  C   UNL     1       2.755   6.882   1.212  0.00  0.00    +0.181 A 
ATOM      7  C   UNL     1       4.040   6.524   1.442  0.00  0.00    +0.214 A 
ATOM      8  C   UNL     1       4.245   5.367   2.342  0.00  0.00    +0.238 A 
ATOM      9  O   UNL     1       5.371   4.994   2.631  0.00  0.00    -0.283 OA
ATOM     10  C   UNL     1       3.091   4.577   2.768  0.00  0.00    +0.109 A 
ATOM     11  C   UNL     1       3.244   3.374   3.465  0.00  0.00    +0.135 A 
ATOM     12  C   UNL     1       2.179   2.497   3.592  0.00  0.00    +0.092 A 
BRANCH   6  13
ATOM     13  C   UNL     1       2.388   8.039   0.339  0.00  0.00    +0.025 A 
ATOM     14  C   UNL     1       1.178   8.027  -0.387  0.00  0.00    +0.015 A 
ATOM     15  C   UNL     1       0.832   9.083  -1.236  0.00  0.00    +0.050 A 
ATOM     16  C   UNL     1       1.693  10.159  -1.370  0.00  0.00    +0.158 A 
ATOM     17  C   UNL     1       2.878  10.212  -0.647  0.00  0.00    +0.159 A 
ATOM     18  C   UNL     1       3.211   9.180   0.224  0.00  0.00    +0.060 A 
BRANCH  17  19
ATOM     19  O   UNL     1       3.696  11.293  -0.832  0.00  0.00    -0.503 OA
ATOM     20  H   UNL     1       4.513  11.149  -0.324  0.00  0.00    +0.292 HD
ENDBRANCH  17  19
BRANCH  16  21
ATOM     21  O   UNL     1       1.367  11.170  -2.227  0.00  0.00    -0.503 OA
ATOM     22  H   UNL     1       2.111  11.801  -2.162  0.00  0.00    +0.292 HD
ENDBRANCH  16  21
ENDBRANCH   6  13
BRANCH  11  23
ATOM     23  O   UNL     1       4.423   3.021   4.052  0.00  0.00    -0.506 OA
ATOM     24  H   UNL     1       4.760   2.230   3.596  0.00  0.00    +0.292 HD
ENDBRANCH  11  23
BRANCH   2  26
ATOM     25  C   UNL     1      -1.350   2.175   3.102  0.00  0.00    +0.277 C 
ATOM     26  O   UNL     1       0.022   1.824   3.161  0.00  0.00    -0.495 OA
ENDBRANCH   2  26
ENDBRANCH   1   7
BRANCH   1  27
ATOM     27  C   UNL     1       6.418   7.293   1.193  0.00  0.00    +0.340 C 
ATOM     28  O   UNL     1       6.956   8.429   0.423  0.00  0.00    -0.331 OA
ATOM     29  C   UNL     1       7.199   8.136  -0.992  0.00  0.00    +0.179 C 
ATOM     30  C   UNL     1       8.055   6.866  -1.234  0.00  0.00    +0.177 C 
ATOM     31  C   UNL     1       7.470   5.690  -0.450  0.00  0.00    +0.187 C 
ATOM     32  C   UNL     1       7.493   6.184   1.004  0.00  0.00    +0.214 C 
BRANCH  32  33
ATOM     33  O   UNL     1       7.610   5.090   1.897  0.00  0.00    -0.383 OA
ATOM     34  H   UNL     1       6.715   4.836   2.198  0.00  0.00    +0.210 HD
ENDBRANCH  32  33
BRANCH  30  35
ATOM     35  O   UNL     1       8.234   6.561  -2.615  0.00  0.00    -0.386 OA
ATOM     36  H   UNL     1       8.650   5.676  -2.671  0.00  0.00    +0.210 HD
ENDBRANCH  30  35
BRANCH  31  37
ATOM     37  O   UNL     1       6.133   5.279  -0.832  0.00  0.00    -0.340 OA
BRANCH  37  38
ATOM     38  C   UNL     1       5.908   4.915  -2.204  0.00  0.00    +0.282 C 
ATOM     39  O   UNL     1       4.501   4.911  -2.512  0.00  0.00    -0.346 OA
ATOM     40  C   UNL     1       3.732   3.953  -1.785  0.00  0.00    +0.197 C 
ATOM     41  C   UNL     1       4.269   2.529  -1.963  0.00  0.00    +0.171 C 
ATOM     42  C   UNL     1       5.781   2.463  -1.712  0.00  0.00    +0.178 C 
ATOM     43  C   UNL     1       6.507   3.536  -2.543  0.00  0.00    +0.201 C 
BRANCH  43  44
ATOM     44  O   UNL     1       7.923   3.483  -2.324  0.00  0.00    -0.384 OA
ATOM     45  H   UNL     1       8.051   2.958  -1.507  0.00  0.00    +0.210 HD
ENDBRANCH  43  44
BRANCH  42  46
ATOM     46  O   UNL     1       6.083   2.616  -0.313  0.00  0.00    -0.386 OA
ATOM     47  H   UNL     1       5.929   3.550  -0.058  0.00  0.00    +0.210 HD
ENDBRANCH  42  46
BRANCH  41  48
ATOM     48  O   UNL     1       3.991   2.064  -3.292  0.00  0.00    -0.387 OA
ATOM     49  H   UNL     1       4.069   2.817  -3.906  0.00  0.00    +0.210 HD
ENDBRANCH  41  48
ENDBRANCH  37  38
ENDBRANCH  31  37
BRANCH  29  50
ATOM     50  C   UNL     1       7.930   9.347  -1.599  0.00  0.00    +0.190 C 
BRANCH  50  51
ATOM     51  O   UNL     1       9.212   9.531  -0.990  0.00  0.00    -0.392 OA
ATOM     52  H   UNL     1       9.062   9.565  -0.029  0.00  0.00    +0.210 HD
ENDBRANCH  50  51
ENDBRANCH  29  50
ENDBRANCH   1  27
TORSDOF 16
