REMARK  Name = 
REMARK  22 active torsions:
REMARK  status: ('A' for Active; 'I' for Inactive)
REMARK    1  A    between atoms: C_1  and  C_2
REMARK    2  A    between atoms: C_3  and  O_61
REMARK    3  A    between atoms: C_5  and  O_60
REMARK    4  A    between atoms: C_7  and  O_59
REMARK    5  A    between atoms: C_8  and  O_11
REMARK    6  A    between atoms: O_11  and  C_12
REMARK    7  A    between atoms: C_14  and  O_58
REMARK    8  A    between atoms: C_16  and  C_57
REMARK    9  A    between atoms: C_18  and  O_22
REMARK   10  A    between atoms: C_20  and  O_21
REMARK   11  A    between atoms: O_22  and  C_23
REMARK   12  A    between atoms: C_23  and  C_24
REMARK   13  A    between atoms: C_25  and  O_56
REMARK   14  A    between atoms: C_27  and  O_55
REMARK   15  A    between atoms: C_28  and  O_54
REMARK   16  A    between atoms: C_29  and  O_32
REMARK   17  A    between atoms: O_32  and  C_33
REMARK   18  A    between atoms: C_34  and  C_46
REMARK   19  A    between atoms: C_38  and  O_45
REMARK   20  A    between atoms: C_40  and  O_44
REMARK   21  A    between atoms: C_48  and  O_53
REMARK   22  A    between atoms: C_49  and  O_52
REMARK                            x       y       z     vdW  Elec       q    Type
REMARK                         _______ _______ _______ _____ _____    ______ ____
ROOT
ATOM      1  C   UNL     1       5.397   1.341  -5.771  0.00  0.00    +0.179 C 
ATOM      2  O   UNL     1       6.277   1.899  -4.745  0.00  0.00    -0.331 OA
ATOM      3  C   UNL     1       7.019   3.142  -4.981  0.00  0.00    +0.340 C 
ATOM      4  C   UNL     1       7.736   3.120  -6.365  0.00  0.00    +0.214 C 
ATOM      5  C   UNL     1       6.744   2.695  -7.453  0.00  0.00    +0.180 C 
ATOM      6  C   UNL     1       6.120   1.320  -7.144  0.00  0.00    +0.177 C 
ENDROOT
BRANCH   6   7
ATOM      7  O   UNL     1       7.110   0.276  -7.170  0.00  0.00    -0.386 OA
ATOM      8  H   UNL     1       7.624   0.333  -6.344  0.00  0.00    +0.210 HD
ENDBRANCH   6   7
BRANCH   5   9
ATOM      9  O   UNL     1       7.384   2.654  -8.736  0.00  0.00    -0.386 OA
ATOM     10  H   UNL     1       8.054   1.943  -8.668  0.00  0.00    +0.210 HD
ENDBRANCH   5   9
BRANCH   4  11
ATOM     11  O   UNL     1       8.857   2.201  -6.405  0.00  0.00    -0.383 OA
ATOM     12  H   UNL     1       9.060   1.937  -5.491  0.00  0.00    +0.210 HD
ENDBRANCH   4  11
BRANCH   3  13
ATOM     13  O   UNL     1       8.050   3.277  -3.943  0.00  0.00    -0.453 OA
BRANCH  13  14
ATOM     14  C   UNL     1       8.430   4.480  -3.313  0.00  0.00    +0.214 A 
ATOM     15  C   UNL     1       7.968   5.861  -3.742  0.00  0.00    +0.238 A 
ATOM     16  O   UNL     1       7.170   5.973  -4.652  0.00  0.00    -0.283 OA
ATOM     17  C   UNL     1       8.559   7.065  -3.064  0.00  0.00    +0.109 A 
ATOM     18  C   UNL     1       9.424   6.855  -2.006  0.00  0.00    +0.147 A 
ATOM     19  C   UNL     1      10.082   7.884  -1.329  0.00  0.00    +0.092 A 
ATOM     20  C   UNL     1       9.853   9.202  -1.692  0.00  0.00    +0.124 A 
ATOM     21  C   UNL     1       8.959   9.460  -2.734  0.00  0.00    +0.091 A 
ATOM     22  O   UNL     1       9.694   5.603  -1.555  0.00  0.00    -0.451 OA
ATOM     23  C   UNL     1       8.320   8.415  -3.404  0.00  0.00    +0.135 A 
ATOM     24  C   UNL     1       9.299   4.492  -2.265  0.00  0.00    +0.181 A 
BRANCH  24  25
ATOM     25  C   UNL     1      10.084   3.377  -1.691  0.00  0.00    +0.025 A 
ATOM     26  C   UNL     1       9.799   3.027  -0.360  0.00  0.00    +0.015 A 
ATOM     27  C   UNL     1      10.841   2.800   0.546  0.00  0.00    +0.050 A 
ATOM     28  C   UNL     1      12.151   2.923   0.103  0.00  0.00    +0.158 A 
ATOM     29  C   UNL     1      12.432   3.158  -1.238  0.00  0.00    +0.159 A 
ATOM     30  C   UNL     1      11.412   3.317  -2.163  0.00  0.00    +0.060 A 
BRANCH  29  31
ATOM     31  O   UNL     1      13.711   3.414  -1.648  0.00  0.00    -0.503 OA
ATOM     32  H   UNL     1      14.162   3.771  -0.860  0.00  0.00    +0.292 HD
ENDBRANCH  29  31
BRANCH  28  33
ATOM     33  O   UNL     1      13.181   2.917   1.000  0.00  0.00    -0.503 OA
ATOM     34  H   UNL     1      13.378   1.978   1.167  0.00  0.00    +0.292 HD
ENDBRANCH  28  33
ENDBRANCH  24  25
BRANCH  23  35
ATOM     35  O   UNL     1       7.456   8.726  -4.414  0.00  0.00    -0.506 OA
ATOM     36  H   UNL     1       7.345   9.690  -4.456  0.00  0.00    +0.292 HD
ENDBRANCH  23  35
BRANCH  20  37
ATOM     37  O   UNL     1      10.465  10.245  -1.080  0.00  0.00    -0.507 OA
ATOM     38  H   UNL     1      11.078   9.909  -0.402  0.00  0.00    +0.292 HD
ENDBRANCH  20  37
ENDBRANCH  13  14
ENDBRANCH   3  13
BRANCH   1  39
ATOM     39  C   UNL     1       3.951   1.945  -5.972  0.00  0.00    +0.197 C 
BRANCH  39  40
ATOM     40  O   UNL     1       2.942   1.895  -4.953  0.00  0.00    -0.346 OA
BRANCH  40  43
ATOM     41  C   UNL     1      -0.145   1.357  -3.876  0.00  0.00    +0.186 C 
ATOM     42  C   UNL     1       1.276   0.910  -3.422  0.00  0.00    +0.202 C 
ATOM     43  C   UNL     1       2.296   0.664  -4.595  0.00  0.00    +0.282 C 
ATOM     44  O   UNL     1       1.712  -0.128  -5.645  0.00  0.00    -0.343 OA
ATOM     45  C   UNL     1       0.357   0.151  -6.053  0.00  0.00    +0.149 C 
ATOM     46  C   UNL     1      -0.092  -1.023  -6.945  0.00  0.00    +0.041 C 
ATOM     47  C   UNL     1      -0.632   0.283  -4.876  0.00  0.00    +0.174 C 
BRANCH  47  48
ATOM     48  O   UNL     1      -1.992   0.409  -5.292  0.00  0.00    -0.387 OA
ATOM     49  H   UNL     1      -2.262   1.334  -5.159  0.00  0.00    +0.210 HD
ENDBRANCH  47  48
BRANCH  42  50
ATOM     50  O   UNL     1       1.129  -0.298  -2.636  0.00  0.00    -0.384 OA
ATOM     51  H   UNL     1       1.100  -1.056  -3.250  0.00  0.00    +0.210 HD
ENDBRANCH  42  50
BRANCH  41  52
ATOM     52  O   UNL     1      -0.084   2.712  -4.360  0.00  0.00    -0.340 OA
BRANCH  52  56
ATOM     53  C   UNL     1      -4.344   3.389  -4.848  0.00  0.00    +0.041 C 
ATOM     54  C   UNL     1      -3.268   3.620  -5.903  0.00  0.00    +0.149 C 
ATOM     55  O   UNL     1      -2.052   2.946  -5.561  0.00  0.00    -0.343 OA
ATOM     56  C   UNL     1      -1.317   3.450  -4.443  0.00  0.00    +0.282 C 
ATOM     57  C   UNL     1      -1.036   4.981  -4.589  0.00  0.00    +0.201 C 
ATOM     58  C   UNL     1      -2.317   5.753  -4.982  0.00  0.00    +0.179 C 
ATOM     59  C   UNL     1      -3.005   5.098  -6.189  0.00  0.00    +0.174 C 
BRANCH  59  60
ATOM     60  O   UNL     1      -2.180   5.237  -7.356  0.00  0.00    -0.387 OA
ATOM     61  H   UNL     1      -1.553   4.482  -7.362  0.00  0.00    +0.210 HD
ENDBRANCH  59  60
BRANCH  58  62
ATOM     62  O   UNL     1      -1.983   7.120  -5.274  0.00  0.00    -0.386 OA
ATOM     63  H   UNL     1      -2.480   7.390  -6.070  0.00  0.00    +0.210 HD
ENDBRANCH  58  62
BRANCH  57  64
ATOM     64  O   UNL     1      -0.034   5.209  -5.599  0.00  0.00    -0.384 OA
ATOM     65  H   UNL     1      -0.294   6.032  -6.059  0.00  0.00    +0.210 HD
ENDBRANCH  57  64
ENDBRANCH  52  56
ENDBRANCH  41  52
ENDBRANCH  40  43
ENDBRANCH  39  40
ENDBRANCH   1  39
TORSDOF 20
