REMARK  Name = 
REMARK  31 active torsions:
REMARK  status: ('A' for Active; 'I' for Inactive)
REMARK    1  A    between atoms: C_1  and  C_2
REMARK    2  A    between atoms: C_3  and  O_86
REMARK    3  A    between atoms: C_5  and  O_85
REMARK    4  A    between atoms: C_6  and  O_84
REMARK    5  A    between atoms: C_8  and  O_11
REMARK    6  A    between atoms: O_11  and  C_12
REMARK    7  A    between atoms: C_12  and  C_13
REMARK    8  A    between atoms: C_14  and  O_83
REMARK    9  A    between atoms: C_16  and  O_71
REMARK   10  A    between atoms: C_18  and  O_57
REMARK   11  A    between atoms: C_19  and  O_22
REMARK   12  A    between atoms: O_22  and  C_23
REMARK   13  A    between atoms: C_24  and  C_49
REMARK   14  A    between atoms: C_28  and  O_35
REMARK   15  A    between atoms: C_30  and  O_34
REMARK   16  A    between atoms: O_35  and  C_36
REMARK   17  A    between atoms: C_38  and  O_48
REMARK   18  A    between atoms: C_40  and  O_47
REMARK   19  A    between atoms: C_41  and  O_46
REMARK   20  A    between atoms: C_43  and  C_45
REMARK   21  A    between atoms: C_51  and  O_56
REMARK   22  A    between atoms: C_52  and  O_55
REMARK   23  A    between atoms: O_57  and  C_58
REMARK   24  A    between atoms: C_60  and  O_70
REMARK   25  A    between atoms: C_62  and  O_69
REMARK   26  A    between atoms: C_63  and  O_68
REMARK   27  A    between atoms: C_65  and  C_67
REMARK   28  A    between atoms: O_71  and  C_72
REMARK   29  A    between atoms: C_72  and  C_74
REMARK   30  A    between atoms: C_75  and  C_76
REMARK   31  A    between atoms: C_79  and  O_82
REMARK                            x       y       z     vdW  Elec       q    Type
REMARK                         _______ _______ _______ _____ _____    ______ ____
ROOT
ATOM      1  C   UNL     1       3.201   3.817  -4.210  0.00  0.00    +0.180 C 
ATOM      2  O   UNL     1       3.610   4.796  -3.219  0.00  0.00    -0.331 OA
ATOM      3  C   UNL     1       2.617   5.696  -2.690  0.00  0.00    +0.341 C 
ATOM      4  C   UNL     1       1.750   6.377  -3.818  0.00  0.00    +0.233 C 
ATOM      5  C   UNL     1       1.111   5.218  -4.596  0.00  0.00    +0.242 C 
ATOM      6  C   UNL     1       2.217   4.389  -5.275  0.00  0.00    +0.189 C 
ENDROOT
BRANCH   6   7
ATOM      7  O   UNL     1       2.932   5.162  -6.250  0.00  0.00    -0.385 OA
ATOM      8  H   UNL     1       3.392   5.894  -5.793  0.00  0.00    +0.210 HD
ENDBRANCH   6   7
BRANCH   4   9
ATOM      9  O   UNL     1       2.521   7.280  -4.662  0.00  0.00    -0.335 OA
BRANCH   9  10
ATOM     10  C   UNL     1       1.820   8.002  -5.703  0.00  0.00    +0.282 C 
ATOM     11  O   UNL     1       2.747   8.791  -6.466  0.00  0.00    -0.343 OA
ATOM     12  C   UNL     1       3.360   9.848  -5.720  0.00  0.00    +0.149 C 
ATOM     13  C   UNL     1       4.219  10.657  -6.694  0.00  0.00    +0.041 C 
ATOM     14  C   UNL     1       2.342  10.776  -5.027  0.00  0.00    +0.174 C 
ATOM     15  C   UNL     1       1.260   9.976  -4.295  0.00  0.00    +0.179 C 
ATOM     16  C   UNL     1       0.674   8.935  -5.244  0.00  0.00    +0.201 C 
BRANCH  15  17
ATOM     17  O   UNL     1       0.217  10.853  -3.843  0.00  0.00    -0.386 OA
ATOM     18  H   UNL     1      -0.608  10.330  -3.875  0.00  0.00    +0.210 HD
ENDBRANCH  15  17
BRANCH  16  19
ATOM     19  O   UNL     1      -0.434   8.299  -4.593  0.00  0.00    -0.384 OA
ATOM     20  H   UNL     1      -0.519   7.403  -4.966  0.00  0.00    +0.210 HD
ENDBRANCH  16  19
BRANCH  14  21
ATOM     21  O   UNL     1       3.016  11.668  -4.135  0.00  0.00    -0.387 OA
ATOM     22  H   UNL     1       3.269  11.173  -3.337  0.00  0.00    +0.210 HD
ENDBRANCH  14  21
ENDBRANCH   9  10
ENDBRANCH   4   9
BRANCH   5  23
ATOM     23  O   UNL     1       0.128   5.728  -5.529  0.00  0.00    -0.453 OA
BRANCH  23  24
ATOM     24  C   UNL     1      -0.778   4.824  -5.980  0.00  0.00    +0.332 C 
ATOM     25  O   UNL     1      -0.846   3.658  -5.634  0.00  0.00    -0.246 OA
BRANCH  24  26
ATOM     26  C   UNL     1      -1.686   5.502  -6.924  0.00  0.00    +0.092 C 
ATOM     27  C   UNL     1      -2.738   4.841  -7.430  0.00  0.00    +0.015 C 
BRANCH  27  28
ATOM     28  C   UNL     1      -3.619   5.487  -8.402  0.00  0.00    -0.025 A 
ATOM     29  C   UNL     1      -4.714   6.243  -7.977  0.00  0.00    +0.011 A 
ATOM     30  C   UNL     1      -5.506   6.913  -8.912  0.00  0.00    +0.046 A 
ATOM     31  C   UNL     1      -5.203   6.823 -10.266  0.00  0.00    +0.117 A 
ATOM     32  C   UNL     1      -4.131   6.055 -10.705  0.00  0.00    +0.046 A 
ATOM     33  C   UNL     1      -3.336   5.388  -9.769  0.00  0.00    +0.011 A 
BRANCH  31  34
ATOM     34  O   UNL     1      -5.985   7.518 -11.140  0.00  0.00    -0.507 OA
ATOM     35  H   UNL     1      -5.578   7.475 -12.022  0.00  0.00    +0.292 HD
ENDBRANCH  31  34
ENDBRANCH  27  28
ENDBRANCH  24  26
ENDBRANCH  23  24
ENDBRANCH   5  23
BRANCH   3  36
ATOM     36  O   UNL     1       3.213   6.762  -1.918  0.00  0.00    -0.453 OA
BRANCH  36  37
ATOM     37  C   UNL     1       3.554   6.693  -0.572  0.00  0.00    +0.214 A 
ATOM     38  C   UNL     1       2.810   5.875   0.455  0.00  0.00    +0.238 A 
ATOM     39  O   UNL     1       1.929   5.101   0.111  0.00  0.00    -0.283 OA
ATOM     40  C   UNL     1       3.227   6.037   1.897  0.00  0.00    +0.109 A 
ATOM     41  C   UNL     1       4.351   6.802   2.176  0.00  0.00    +0.147 A 
ATOM     42  C   UNL     1       4.808   6.970   3.486  0.00  0.00    +0.093 A 
ATOM     43  C   UNL     1       4.086   6.458   4.564  0.00  0.00    +0.131 A 
ATOM     44  C   UNL     1       2.977   5.651   4.294  0.00  0.00    +0.092 A 
ATOM     45  O   UNL     1       5.038   7.463   1.202  0.00  0.00    -0.451 OA
ATOM     46  C   UNL     1       2.560   5.429   2.970  0.00  0.00    +0.135 A 
ATOM     47  C   UNL     1       4.581   7.423  -0.089  0.00  0.00    +0.181 A 
BRANCH  47  48
ATOM     48  C   UNL     1       5.453   8.163  -0.997  0.00  0.00    +0.025 A 
ATOM     49  C   UNL     1       6.372   7.398  -1.728  0.00  0.00    +0.015 A 
ATOM     50  C   UNL     1       7.352   8.017  -2.486  0.00  0.00    +0.050 A 
ATOM     51  C   UNL     1       7.303   9.394  -2.641  0.00  0.00    +0.158 A 
ATOM     52  C   UNL     1       6.316  10.151  -2.012  0.00  0.00    +0.159 A 
ATOM     53  C   UNL     1       5.436   9.556  -1.117  0.00  0.00    +0.060 A 
BRANCH  52  54
ATOM     54  O   UNL     1       6.086  11.444  -2.383  0.00  0.00    -0.503 OA
ATOM     55  H   UNL     1       6.647  12.014  -1.832  0.00  0.00    +0.292 HD
ENDBRANCH  52  54
BRANCH  51  56
ATOM     56  O   UNL     1       8.184   9.980  -3.497  0.00  0.00    -0.503 OA
ATOM     57  H   UNL     1       7.858   9.731  -4.380  0.00  0.00    +0.292 HD
ENDBRANCH  51  56
ENDBRANCH  47  48
BRANCH  46  58
ATOM     58  O   UNL     1       1.442   4.674   2.768  0.00  0.00    -0.506 OA
ATOM     59  H   UNL     1       1.526   3.847   3.275  0.00  0.00    +0.292 HD
ENDBRANCH  46  58
BRANCH  43  60
ATOM     60  O   UNL     1       4.529   6.842   5.811  0.00  0.00    -0.461 OA
BRANCH  60  61
ATOM     61  C   UNL     1       3.528   6.938   6.843  0.00  0.00    +0.339 C 
ATOM     62  O   UNL     1       2.434   7.786   6.477  0.00  0.00    -0.334 OA
ATOM     63  C   UNL     1       2.798   9.170   6.382  0.00  0.00    +0.150 C 
ATOM     64  C   UNL     1       1.591   9.920   5.832  0.00  0.00    +0.041 C 
ATOM     65  C   UNL     1       3.204   9.704   7.761  0.00  0.00    +0.174 C 
ATOM     66  C   UNL     1       4.385   8.886   8.305  0.00  0.00    +0.180 C 
ATOM     67  C   UNL     1       4.101   7.376   8.224  0.00  0.00    +0.214 C 
BRANCH  67  68
ATOM     68  O   UNL     1       5.273   6.641   8.591  0.00  0.00    -0.383 OA
ATOM     69  H   UNL     1       5.026   5.710   8.714  0.00  0.00    +0.210 HD
ENDBRANCH  67  68
BRANCH  66  70
ATOM     70  O   UNL     1       4.643   9.278   9.672  0.00  0.00    -0.386 OA
ATOM     71  H   UNL     1       3.819   9.187  10.182  0.00  0.00    +0.210 HD
ENDBRANCH  66  70
BRANCH  65  72
ATOM     72  O   UNL     1       3.511  11.099   7.705  0.00  0.00    -0.387 OA
ATOM     73  H   UNL     1       4.438  11.205   7.430  0.00  0.00    +0.210 HD
ENDBRANCH  65  72
ENDBRANCH  60  61
ENDBRANCH  43  60
ENDBRANCH  36  37
ENDBRANCH   3  36
BRANCH   1  74
ATOM     74  C   UNL     1       2.616   2.485  -3.644  0.00  0.00    +0.197 C 
BRANCH  74  75
ATOM     75  O   UNL     1       3.544   1.573  -3.074  0.00  0.00    -0.346 OA
BRANCH  75  79
ATOM     76  C   UNL     1       6.269   0.644   0.091  0.00  0.00    +0.041 C 
ATOM     77  C   UNL     1       4.928  -0.043  -0.140  0.00  0.00    +0.149 C 
ATOM     78  O   UNL     1       4.430   0.245  -1.451  0.00  0.00    -0.343 OA
ATOM     79  C   UNL     1       3.832   1.540  -1.677  0.00  0.00    +0.282 C 
ATOM     80  C   UNL     1       2.659   1.741  -0.679  0.00  0.00    +0.201 C 
ATOM     81  C   UNL     1       3.221   1.611   0.753  0.00  0.00    +0.179 C 
ATOM     82  C   UNL     1       3.903   0.251   0.963  0.00  0.00    +0.174 C 
BRANCH  80  83
ATOM     83  O   UNL     1       1.616   0.761  -0.870  0.00  0.00    -0.384 OA
ATOM     84  H   UNL     1       0.835   1.110  -0.399  0.00  0.00    +0.210 HD
ENDBRANCH  80  83
BRANCH  81  85
ATOM     85  O   UNL     1       2.171   1.753   1.727  0.00  0.00    -0.386 OA
ATOM     86  H   UNL     1       1.792   0.854   1.822  0.00  0.00    +0.210 HD
ENDBRANCH  81  85
BRANCH  82  87
ATOM     87  O   UNL     1       2.883  -0.767   0.983  0.00  0.00    -0.387 OA
ATOM     88  H   UNL     1       2.496  -0.783   0.079  0.00  0.00    +0.210 HD
ENDBRANCH  82  87
ENDBRANCH  75  79
ENDBRANCH  74  75
ENDBRANCH   1  74
TORSDOF 28
