REMARK  Name = 
REMARK  18 active torsions:
REMARK  status: ('A' for Active; 'I' for Inactive)
REMARK    1  A    between atoms: C_3  and  O_49
REMARK    2  A    between atoms: C_4  and  O_48
REMARK    3  A    between atoms: C_6  and  C_7
REMARK    4  A    between atoms: C_8  and  O_34
REMARK    5  A    between atoms: C_12  and  O_33
REMARK    6  A    between atoms: C_14  and  O_18
REMARK    7  A    between atoms: O_18  and  C_19
REMARK    8  A    between atoms: C_21  and  O_32
REMARK    9  A    between atoms: C_22  and  O_31
REMARK   10  A    between atoms: C_24  and  O_30
REMARK   11  A    between atoms: C_26  and  C_28
REMARK   12  A    between atoms: C_28  and  O_29
REMARK   13  A    between atoms: O_34  and  C_35
REMARK   14  A    between atoms: C_37  and  O_47
REMARK   15  A    between atoms: C_38  and  O_46
REMARK   16  A    between atoms: C_39  and  O_45
REMARK   17  A    between atoms: C_41  and  C_43
REMARK   18  A    between atoms: C_43  and  O_44
REMARK                            x       y       z     vdW  Elec       q    Type
REMARK                         _______ _______ _______ _____ _____    ______ ____
ROOT
ATOM      1  C   UNL     1      -1.235  -2.734   0.309  0.00  0.00    +0.181 A 
ATOM      2  O   UNL     1      -0.600  -3.953   0.506  0.00  0.00    -0.451 OA
ATOM      3  C   UNL     1      -1.246  -5.116   0.183  0.00  0.00    +0.147 A 
ATOM      4  C   UNL     1      -2.570  -5.178  -0.217  0.00  0.00    +0.109 A 
ATOM      5  C   UNL     1      -3.137  -6.428  -0.480  0.00  0.00    +0.135 A 
ATOM      6  C   UNL     1      -2.354  -7.597  -0.461  0.00  0.00    +0.092 A 
ATOM      7  C   UNL     1      -0.992  -7.522  -0.161  0.00  0.00    +0.131 A 
ATOM      8  C   UNL     1      -3.288  -3.880  -0.351  0.00  0.00    +0.238 A 
ATOM      9  O   UNL     1      -4.479  -3.871  -0.670  0.00  0.00    -0.283 OA
ATOM     10  C   UNL     1      -0.472  -6.280   0.232  0.00  0.00    +0.093 A 
ATOM     11  C   UNL     1      -2.511  -2.619  -0.127  0.00  0.00    +0.214 A 
ENDROOT
BRANCH   1  13
ATOM     12  C   UNL     1      -0.761  -0.256   0.679  0.00  0.00    +0.015 A 
ATOM     13  C   UNL     1      -0.311  -1.574   0.498  0.00  0.00    +0.025 A 
ATOM     14  C   UNL     1       1.074  -1.761   0.367  0.00  0.00    +0.060 A 
ATOM     15  C   UNL     1       1.912  -0.664   0.209  0.00  0.00    +0.159 A 
ATOM     16  C   UNL     1       1.399   0.625   0.161  0.00  0.00    +0.158 A 
ATOM     17  C   UNL     1       0.067   0.845   0.447  0.00  0.00    +0.050 A 
BRANCH  16  18
ATOM     18  O   UNL     1       2.233   1.645  -0.192  0.00  0.00    -0.503 OA
ATOM     19  H   UNL     1       1.677   2.362  -0.550  0.00  0.00    +0.292 HD
ENDBRANCH  16  18
BRANCH  15  20
ATOM     20  O   UNL     1       3.251  -0.866   0.042  0.00  0.00    -0.503 OA
ATOM     21  H   UNL     1       3.621   0.034  -0.056  0.00  0.00    +0.292 HD
ENDBRANCH  15  20
ENDBRANCH   1  13
BRANCH   5  22
ATOM     22  O   UNL     1      -4.459  -6.588  -0.802  0.00  0.00    -0.506 OA
ATOM     23  H   UNL     1      -4.902  -5.713  -0.765  0.00  0.00    +0.292 HD
ENDBRANCH   5  22
BRANCH  11  24
ATOM     24  O   UNL     1      -3.167  -1.393  -0.156  0.00  0.00    -0.453 OA
BRANCH  24  25
ATOM     25  C   UNL     1      -3.517  -0.764  -1.403  0.00  0.00    +0.340 C 
ATOM     26  O   UNL     1      -2.934   0.553  -1.514  0.00  0.00    -0.331 OA
ATOM     27  C   UNL     1      -3.462   1.629  -0.712  0.00  0.00    +0.179 C 
ATOM     28  C   UNL     1      -4.894   1.481  -0.129  0.00  0.00    +0.177 C 
ATOM     29  C   UNL     1      -5.426   0.041  -0.101  0.00  0.00    +0.180 C 
ATOM     30  C   UNL     1      -5.039  -0.588  -1.453  0.00  0.00    +0.214 C 
BRANCH  30  31
ATOM     31  O   UNL     1      -5.742  -1.784  -1.770  0.00  0.00    -0.383 OA
ATOM     32  H   UNL     1      -5.296  -2.545  -1.354  0.00  0.00    +0.210 HD
ENDBRANCH  30  31
BRANCH  29  33
ATOM     33  O   UNL     1      -6.837  -0.007   0.112  0.00  0.00    -0.386 OA
ATOM     34  H   UNL     1      -7.179   0.894   0.225  0.00  0.00    +0.210 HD
ENDBRANCH  29  33
BRANCH  28  35
ATOM     35  O   UNL     1      -4.961   2.099   1.166  0.00  0.00    -0.386 OA
ATOM     36  H   UNL     1      -4.423   1.576   1.790  0.00  0.00    +0.210 HD
ENDBRANCH  28  35
BRANCH  27  37
ATOM     37  C   UNL     1      -3.419   2.914  -1.578  0.00  0.00    +0.190 C 
BRANCH  37  38
ATOM     38  O   UNL     1      -3.604   4.104  -0.816  0.00  0.00    -0.392 OA
ATOM     39  H   UNL     1      -4.330   3.969  -0.178  0.00  0.00    +0.210 HD
ENDBRANCH  37  38
ENDBRANCH  27  37
ENDBRANCH  24  25
ENDBRANCH  11  24
BRANCH   7  40
ATOM     40  O   UNL     1      -0.231  -8.674  -0.328  0.00  0.00    -0.461 OA
BRANCH  40  41
ATOM     41  C   UNL     1       1.169  -8.395  -0.568  0.00  0.00    +0.339 C 
ATOM     42  O   UNL     1       1.316  -7.529  -1.697  0.00  0.00    -0.331 OA
ATOM     43  C   UNL     1       1.076  -8.197  -2.948  0.00  0.00    +0.179 C 
ATOM     44  C   UNL     1       2.236  -9.173  -3.188  0.00  0.00    +0.177 C 
ATOM     45  C   UNL     1       2.203 -10.247  -2.090  0.00  0.00    +0.180 C 
ATOM     46  C   UNL     1       2.103  -9.633  -0.684  0.00  0.00    +0.214 C 
BRANCH  46  47
ATOM     47  O   UNL     1       1.823 -10.638   0.296  0.00  0.00    -0.383 OA
ATOM     48  H   UNL     1       1.418 -11.394  -0.172  0.00  0.00    +0.210 HD
ENDBRANCH  46  47
BRANCH  45  49
ATOM     49  O   UNL     1       1.146 -11.192  -2.305  0.00  0.00    -0.386 OA
ATOM     50  H   UNL     1       0.296 -10.788  -2.049  0.00  0.00    +0.210 HD
ENDBRANCH  45  49
BRANCH  44  51
ATOM     51  O   UNL     1       3.471  -8.449  -3.144  0.00  0.00    -0.386 OA
ATOM     52  H   UNL     1       4.213  -9.076  -3.182  0.00  0.00    +0.210 HD
ENDBRANCH  44  51
BRANCH  43  53
ATOM     53  C   UNL     1       0.950  -7.139  -4.052  0.00  0.00    +0.190 C 
BRANCH  53  54
ATOM     54  O   UNL     1      -0.259  -6.383  -3.905  0.00  0.00    -0.392 OA
ATOM     55  H   UNL     1      -1.002  -7.004  -3.817  0.00  0.00    +0.210 HD
ENDBRANCH  53  54
ENDBRANCH  43  53
ENDBRANCH  40  41
ENDBRANCH   7  40
TORSDOF 18
