REMARK  Name = 
REMARK  22 active torsions:
REMARK  status: ('A' for Active; 'I' for Inactive)
REMARK    1  A    between atoms: C_1  and  C_2
REMARK    2  A    between atoms: C_3  and  O_61
REMARK    3  A    between atoms: C_5  and  O_60
REMARK    4  A    between atoms: C_7  and  O_59
REMARK    5  A    between atoms: C_8  and  O_11
REMARK    6  A    between atoms: O_11  and  C_12
REMARK    7  A    between atoms: C_12  and  C_13
REMARK    8  A    between atoms: C_14  and  O_58
REMARK    9  A    between atoms: C_16  and  O_57
REMARK   10  A    between atoms: C_17  and  O_43
REMARK   11  A    between atoms: C_18  and  O_21
REMARK   12  A    between atoms: O_21  and  C_22
REMARK   13  A    between atoms: C_23  and  C_35
REMARK   14  A    between atoms: C_27  and  O_34
REMARK   15  A    between atoms: C_29  and  O_33
REMARK   16  A    between atoms: C_37  and  O_42
REMARK   17  A    between atoms: C_38  and  O_41
REMARK   18  A    between atoms: O_43  and  C_44
REMARK   19  A    between atoms: C_46  and  O_56
REMARK   20  A    between atoms: C_48  and  O_55
REMARK   21  A    between atoms: C_49  and  O_54
REMARK   22  A    between atoms: C_51  and  C_53
REMARK                            x       y       z     vdW  Elec       q    Type
REMARK                         _______ _______ _______ _____ _____    ______ ____
ROOT
ATOM      1  C   UNL     1       2.844   3.624  -4.325  0.00  0.00    +0.179 C 
ATOM      2  O   UNL     1       3.345   4.514  -3.302  0.00  0.00    -0.331 OA
ATOM      3  C   UNL     1       2.501   5.529  -2.743  0.00  0.00    +0.340 C 
ATOM      4  C   UNL     1       1.621   6.295  -3.816  0.00  0.00    +0.221 C 
ATOM      5  C   UNL     1       0.879   5.196  -4.604  0.00  0.00    +0.180 C 
ATOM      6  C   UNL     1       1.874   4.274  -5.312  0.00  0.00    +0.177 C 
ENDROOT
BRANCH   6   7
ATOM      7  O   UNL     1       2.604   5.039  -6.276  0.00  0.00    -0.386 OA
ATOM      8  H   UNL     1       3.149   5.706  -5.803  0.00  0.00    +0.210 HD
ENDBRANCH   6   7
BRANCH   5   9
ATOM      9  O   UNL     1      -0.059   5.752  -5.543  0.00  0.00    -0.386 OA
ATOM     10  H   UNL     1       0.249   5.479  -6.434  0.00  0.00    +0.210 HD
ENDBRANCH   5   9
BRANCH   4  11
ATOM     11  O   UNL     1       2.402   7.200  -4.657  0.00  0.00    -0.337 OA
BRANCH  11  12
ATOM     12  C   UNL     1       1.695   7.967  -5.663  0.00  0.00    +0.282 C 
ATOM     13  O   UNL     1       2.614   8.772  -6.422  0.00  0.00    -0.343 OA
ATOM     14  C   UNL     1       3.181   9.865  -5.700  0.00  0.00    +0.149 C 
ATOM     15  C   UNL     1       4.021  10.672  -6.693  0.00  0.00    +0.041 C 
ATOM     16  C   UNL     1       2.129  10.781  -5.048  0.00  0.00    +0.174 C 
ATOM     17  C   UNL     1       1.082   9.965  -4.279  0.00  0.00    +0.179 C 
ATOM     18  C   UNL     1       0.530   8.872  -5.194  0.00  0.00    +0.201 C 
BRANCH  18  19
ATOM     19  O   UNL     1      -0.550   8.200  -4.535  0.00  0.00    -0.384 OA
ATOM     20  H   UNL     1      -0.697   7.355  -5.017  0.00  0.00    +0.210 HD
ENDBRANCH  18  19
BRANCH  17  21
ATOM     21  O   UNL     1       0.011  10.825  -3.855  0.00  0.00    -0.386 OA
ATOM     22  H   UNL     1      -0.791  10.265  -3.840  0.00  0.00    +0.210 HD
ENDBRANCH  17  21
BRANCH  16  23
ATOM     23  O   UNL     1       2.786  11.747  -4.221  0.00  0.00    -0.387 OA
ATOM     24  H   UNL     1       2.918  11.365  -3.336  0.00  0.00    +0.210 HD
ENDBRANCH  16  23
ENDBRANCH  11  12
ENDBRANCH   4  11
BRANCH   3  25
ATOM     25  O   UNL     1       3.280   6.523  -2.037  0.00  0.00    -0.453 OA
BRANCH  25  26
ATOM     26  C   UNL     1       3.874   6.358  -0.798  0.00  0.00    +0.214 A 
ATOM     27  C   UNL     1       3.704   5.141   0.063  0.00  0.00    +0.238 A 
ATOM     28  O   UNL     1       2.853   4.293  -0.184  0.00  0.00    -0.283 OA
ATOM     29  C   UNL     1       4.625   5.027   1.244  0.00  0.00    +0.109 A 
ATOM     30  C   UNL     1       5.344   6.162   1.632  0.00  0.00    +0.147 A 
ATOM     31  C   UNL     1       6.184   6.143   2.755  0.00  0.00    +0.092 A 
ATOM     32  C   UNL     1       6.306   4.972   3.488  0.00  0.00    +0.124 A 
ATOM     33  C   UNL     1       5.623   3.825   3.105  0.00  0.00    +0.091 A 
ATOM     34  O   UNL     1       5.282   7.335   0.934  0.00  0.00    -0.451 OA
ATOM     35  C   UNL     1       4.780   3.856   1.986  0.00  0.00    +0.135 A 
ATOM     36  C   UNL     1       4.673   7.330  -0.301  0.00  0.00    +0.181 A 
BRANCH  36  37
ATOM     37  C   UNL     1       5.095   8.454  -1.143  0.00  0.00    +0.025 A 
ATOM     38  C   UNL     1       5.938   8.132  -2.223  0.00  0.00    +0.015 A 
ATOM     39  C   UNL     1       6.408   9.114  -3.082  0.00  0.00    +0.050 A 
ATOM     40  C   UNL     1       5.967  10.415  -2.902  0.00  0.00    +0.158 A 
ATOM     41  C   UNL     1       5.113  10.755  -1.850  0.00  0.00    +0.159 A 
ATOM     42  C   UNL     1       4.710   9.788  -0.929  0.00  0.00    +0.060 A 
BRANCH  41  43
ATOM     43  O   UNL     1       4.627  12.030  -1.791  0.00  0.00    -0.503 OA
ATOM     44  H   UNL     1       4.132  12.163  -0.967  0.00  0.00    +0.292 HD
ENDBRANCH  41  43
BRANCH  40  45
ATOM     45  O   UNL     1       6.365  11.322  -3.837  0.00  0.00    -0.503 OA
ATOM     46  H   UNL     1       5.559  11.528  -4.342  0.00  0.00    +0.292 HD
ENDBRANCH  40  45
ENDBRANCH  36  37
BRANCH  35  47
ATOM     47  O   UNL     1       4.144   2.702   1.615  0.00  0.00    -0.506 OA
ATOM     48  H   UNL     1       4.318   2.004   2.272  0.00  0.00    +0.292 HD
ENDBRANCH  35  47
BRANCH  32  49
ATOM     49  O   UNL     1       7.107   4.885   4.589  0.00  0.00    -0.507 OA
ATOM     50  H   UNL     1       7.508   5.753   4.774  0.00  0.00    +0.292 HD
ENDBRANCH  32  49
ENDBRANCH  25  26
ENDBRANCH   3  25
BRANCH   1  51
ATOM     51  C   UNL     1       2.453   2.158  -3.894  0.00  0.00    +0.197 C 
BRANCH  51  52
ATOM     52  O   UNL     1       1.087   1.875  -3.513  0.00  0.00    -0.346 OA
BRANCH  52  56
ATOM     53  C   UNL     1       1.625  -2.536  -4.215  0.00  0.00    +0.041 C 
ATOM     54  C   UNL     1       0.451  -1.641  -4.616  0.00  0.00    +0.149 C 
ATOM     55  O   UNL     1       0.816  -0.240  -4.604  0.00  0.00    -0.343 OA
ATOM     56  C   UNL     1       0.870   0.423  -3.329  0.00  0.00    +0.282 C 
ATOM     57  C   UNL     1      -0.468   0.196  -2.563  0.00  0.00    +0.201 C 
ATOM     58  C   UNL     1      -0.727  -1.318  -2.408  0.00  0.00    +0.179 C 
ATOM     59  C   UNL     1      -0.802  -1.985  -3.787  0.00  0.00    +0.174 C 
BRANCH  59  60
ATOM     60  O   UNL     1      -1.990  -1.586  -4.483  0.00  0.00    -0.387 OA
ATOM     61  H   UNL     1      -2.131  -0.635  -4.274  0.00  0.00    +0.210 HD
ENDBRANCH  59  60
BRANCH  58  62
ATOM     62  O   UNL     1      -1.917  -1.566  -1.648  0.00  0.00    -0.386 OA
ATOM     63  H   UNL     1      -2.367  -2.342  -2.033  0.00  0.00    +0.210 HD
ENDBRANCH  58  62
BRANCH  57  64
ATOM     64  O   UNL     1      -1.556   0.786  -3.314  0.00  0.00    -0.384 OA
ATOM     65  H   UNL     1      -1.225   1.666  -3.591  0.00  0.00    +0.210 HD
ENDBRANCH  57  64
ENDBRANCH  52  56
ENDBRANCH  51  52
ENDBRANCH   1  51
TORSDOF 20
