REMARK  Name = 
REMARK  28 active torsions:
REMARK  status: ('A' for Active; 'I' for Inactive)
REMARK    1  A    between atoms: C_3  and  O_74
REMARK    2  A    between atoms: C_6  and  C_7
REMARK    3  A    between atoms: C_8  and  C_9
REMARK    4  A    between atoms: C_9  and  O_11
REMARK    5  A    between atoms: O_11  and  C_12
REMARK    6  A    between atoms: C_12  and  C_13
REMARK    7  A    between atoms: C_14  and  O_73
REMARK    8  A    between atoms: C_16  and  O_72
REMARK    9  A    between atoms: C_17  and  O_71
REMARK   10  A    between atoms: C_19  and  O_22
REMARK   11  A    between atoms: O_22  and  C_23
REMARK   12  A    between atoms: C_24  and  O_35
REMARK   13  A    between atoms: C_27  and  C_33
REMARK   14  A    between atoms: C_28  and  O_32
REMARK   15  A    between atoms: C_30  and  O_31
REMARK   16  A    between atoms: C_33  and  O_34
REMARK   17  A    between atoms: O_35  and  C_36
REMARK   18  A    between atoms: C_37  and  O_70
REMARK   19  A    between atoms: C_39  and  O_69
REMARK   20  A    between atoms: C_41  and  C_67
REMARK   21  A    between atoms: C_43  and  O_45
REMARK   22  A    between atoms: O_45  and  C_46
REMARK   23  A    between atoms: C_47  and  C_59
REMARK   24  A    between atoms: C_51  and  O_58
REMARK   25  A    between atoms: C_53  and  O_57
REMARK   26  A    between atoms: C_61  and  O_66
REMARK   27  A    between atoms: C_62  and  O_65
REMARK   28  A    between atoms: C_67  and  O_68
REMARK                            x       y       z     vdW  Elec       q    Type
REMARK                         _______ _______ _______ _____ _____    ______ ____
ROOT
ATOM      1  C   UNL     1      -7.885   0.788  -3.864  0.00  0.00    +0.208 C 
ATOM      2  C   UNL     1      -6.644   1.137  -4.715  0.00  0.00    +0.179 C 
ATOM      3  C   UNL     1      -7.026   1.076  -6.202  0.00  0.00    +0.177 C 
ATOM      4  C   UNL     1      -7.536  -0.312  -6.585  0.00  0.00    +0.178 C 
ATOM      5  O   UNL     1      -8.649  -0.677  -5.762  0.00  0.00    -0.341 OA
ATOM      6  C   UNL     1      -8.450  -0.581  -4.342  0.00  0.00    +0.283 C 
ENDROOT
BRANCH   3   7
ATOM      7  O   UNL     1      -5.954   1.503  -7.036  0.00  0.00    -0.386 OA
ATOM      8  H   UNL     1      -6.327   1.682  -7.917  0.00  0.00    +0.210 HD
ENDBRANCH   3   7
BRANCH   2   9
ATOM      9  O   UNL     1      -5.515   0.328  -4.353  0.00  0.00    -0.386 OA
ATOM     10  H   UNL     1      -5.810  -0.576  -4.147  0.00  0.00    +0.210 HD
ENDBRANCH   2   9
BRANCH   6  11
ATOM     11  O   UNL     1      -7.621  -1.676  -3.917  0.00  0.00    -0.337 OA
BRANCH  11  12
ATOM     12  C   UNL     1      -7.439  -1.858  -2.490  0.00  0.00    +0.221 C 
ATOM     13  C   UNL     1      -6.463  -3.069  -2.221  0.00  0.00    +0.340 C 
ATOM     14  O   UNL     1      -7.081  -4.337  -2.506  0.00  0.00    -0.331 OA
ATOM     15  C   UNL     1      -8.403  -4.554  -1.965  0.00  0.00    +0.179 C 
ATOM     16  C   UNL     1      -9.357  -3.407  -2.345  0.00  0.00    +0.177 C 
ATOM     17  C   UNL     1      -8.775  -2.111  -1.772  0.00  0.00    +0.180 C 
BRANCH  16  18
ATOM     18  O   UNL     1     -10.684  -3.603  -1.846  0.00  0.00    -0.386 OA
ATOM     19  H   UNL     1     -11.170  -2.795  -2.116  0.00  0.00    +0.210 HD
ENDBRANCH  16  18
BRANCH  17  20
ATOM     20  O   UNL     1      -9.742  -1.061  -1.895  0.00  0.00    -0.386 OA
ATOM     21  H   UNL     1      -9.514  -0.347  -1.269  0.00  0.00    +0.210 HD
ENDBRANCH  17  20
BRANCH  13  22
ATOM     22  O   UNL     1      -5.264  -2.865  -3.032  0.00  0.00    -0.453 OA
BRANCH  22  23
ATOM     23  C   UNL     1      -3.991  -3.289  -2.613  0.00  0.00    +0.214 A 
ATOM     24  C   UNL     1      -3.578  -3.242  -1.162  0.00  0.00    +0.238 A 
ATOM     25  O   UNL     1      -4.360  -2.881  -0.294  0.00  0.00    -0.283 OA
ATOM     26  C   UNL     1      -2.147  -3.526  -0.814  0.00  0.00    +0.109 A 
ATOM     27  C   UNL     1      -1.280  -3.824  -1.853  0.00  0.00    +0.147 A 
ATOM     28  C   UNL     1       0.098  -4.019  -1.633  0.00  0.00    +0.092 A 
ATOM     29  C   UNL     1       0.596  -3.942  -0.343  0.00  0.00    +0.124 A 
ATOM     30  C   UNL     1      -0.256  -3.677   0.721  0.00  0.00    +0.091 A 
ATOM     31  O   UNL     1      -1.699  -3.934  -3.139  0.00  0.00    -0.451 OA
ATOM     32  C   UNL     1      -1.622  -3.465   0.485  0.00  0.00    +0.135 A 
ATOM     33  C   UNL     1      -2.996  -3.570  -3.493  0.00  0.00    +0.181 A 
BRANCH  33  34
ATOM     34  C   UNL     1      -2.993  -3.401  -4.968  0.00  0.00    +0.025 A 
ATOM     35  C   UNL     1      -2.589  -2.142  -5.451  0.00  0.00    +0.015 A 
ATOM     36  C   UNL     1      -1.913  -2.027  -6.673  0.00  0.00    +0.050 A 
ATOM     37  C   UNL     1      -1.696  -3.163  -7.436  0.00  0.00    +0.158 A 
ATOM     38  C   UNL     1      -2.235  -4.382  -7.044  0.00  0.00    +0.159 A 
ATOM     39  C   UNL     1      -2.866  -4.525  -5.806  0.00  0.00    +0.060 A 
BRANCH  37  40
ATOM     40  O   UNL     1      -0.898  -3.083  -8.542  0.00  0.00    -0.503 OA
ATOM     41  H   UNL     1      -0.706  -4.011  -8.785  0.00  0.00    +0.292 HD
ENDBRANCH  37  40
BRANCH  38  42
ATOM     42  O   UNL     1      -2.073  -5.453  -7.876  0.00  0.00    -0.503 OA
ATOM     43  H   UNL     1      -2.974  -5.669  -8.182  0.00  0.00    +0.292 HD
ENDBRANCH  38  42
ENDBRANCH  33  34
BRANCH  32  44
ATOM     44  O   UNL     1      -2.428  -3.200   1.557  0.00  0.00    -0.506 OA
ATOM     45  H   UNL     1      -1.908  -3.220   2.377  0.00  0.00    +0.292 HD
ENDBRANCH  32  44
BRANCH  29  46
ATOM     46  O   UNL     1       1.919  -4.123  -0.067  0.00  0.00    -0.507 OA
ATOM     47  H   UNL     1       2.400  -4.311  -0.891  0.00  0.00    +0.292 HD
ENDBRANCH  29  46
ENDBRANCH  22  23
ENDBRANCH  13  22
BRANCH  15  48
ATOM     48  C   UNL     1      -8.443  -4.841  -0.442  0.00  0.00    +0.190 C 
BRANCH  48  49
ATOM     49  O   UNL     1      -9.744  -5.225  -0.001  0.00  0.00    -0.392 OA
ATOM     50  H   UNL     1     -10.405  -4.665  -0.485  0.00  0.00    +0.210 HD
ENDBRANCH  48  49
ENDBRANCH  15  48
ENDBRANCH  11  12
ENDBRANCH   6  11
BRANCH   4  51
ATOM     51  C   UNL     1      -6.468  -1.416  -6.646  0.00  0.00    +0.190 C 
BRANCH  51  52
ATOM     52  O   UNL     1      -7.051  -2.610  -7.177  0.00  0.00    -0.392 OA
ATOM     53  H   UNL     1      -7.811  -2.802  -6.595  0.00  0.00    +0.210 HD
ENDBRANCH  51  52
ENDBRANCH   4  51
BRANCH   1  54
ATOM     54  O   UNL     1      -8.923   1.785  -3.825  0.00  0.00    -0.338 OA
BRANCH  54  57
ATOM     55  C   UNL     1      -7.129   4.908  -4.110  0.00  0.00    +0.190 C 
ATOM     56  O   UNL     1      -7.694   3.627  -4.334  0.00  0.00    -0.339 OA
ATOM     57  C   UNL     1      -8.509   3.069  -3.325  0.00  0.00    +0.282 C 
ATOM     58  C   UNL     1      -7.788   3.016  -1.955  0.00  0.00    +0.201 C 
ATOM     59  C   UNL     1      -7.269   4.406  -1.571  0.00  0.00    +0.179 C 
ATOM     60  C   UNL     1      -6.471   5.042  -2.722  0.00  0.00    +0.178 C 
BRANCH  58  61
ATOM     61  O   UNL     1      -8.634   2.450  -0.940  0.00  0.00    -0.384 OA
ATOM     62  H   UNL     1      -8.972   3.177  -0.383  0.00  0.00    +0.210 HD
ENDBRANCH  58  61
BRANCH  59  63
ATOM     63  O   UNL     1      -6.438   4.280  -0.397  0.00  0.00    -0.386 OA
ATOM     64  H   UNL     1      -5.766   3.588  -0.551  0.00  0.00    +0.210 HD
ENDBRANCH  59  63
BRANCH  60  65
ATOM     65  O   UNL     1      -6.188   6.407  -2.426  0.00  0.00    -0.386 OA
ATOM     66  H   UNL     1      -5.226   6.537  -2.522  0.00  0.00    +0.210 HD
ENDBRANCH  60  65
BRANCH  55  67
ATOM     67  C   UNL     1      -8.149   5.957  -4.579  0.00  0.00    +0.266 C 
BRANCH  67  68
ATOM     68  O   UNL     1      -8.573   5.679  -5.952  0.00  0.00    -0.459 OA
BRANCH  68  69
ATOM     69  C   UNL     1      -7.646   5.926  -6.923  0.00  0.00    +0.332 C 
ATOM     70  O   UNL     1      -6.534   6.383  -6.735  0.00  0.00    -0.246 OA
BRANCH  69  72
ATOM     71  C   UNL     1      -7.426   5.771  -9.350  0.00  0.00    +0.015 C 
ATOM     72  C   UNL     1      -8.198   5.589  -8.260  0.00  0.00    +0.092 C 
BRANCH  71  74
ATOM     73  C   UNL     1      -8.759   4.612 -11.166  0.00  0.00    +0.011 A 
ATOM     74  C   UNL     1      -7.820   5.568 -10.758  0.00  0.00    -0.025 A 
ATOM     75  C   UNL     1      -7.181   6.336 -11.748  0.00  0.00    +0.011 A 
ATOM     76  C   UNL     1      -7.484   6.165 -13.102  0.00  0.00    +0.046 A 
ATOM     77  C   UNL     1      -8.419   5.213 -13.481  0.00  0.00    +0.117 A 
ATOM     78  C   UNL     1      -9.061   4.434 -12.523  0.00  0.00    +0.046 A 
BRANCH  77  79
ATOM     79  O   UNL     1      -8.673   5.064 -14.812  0.00  0.00    -0.507 OA
ATOM     80  H   UNL     1      -9.271   4.308 -14.933  0.00  0.00    +0.292 HD
ENDBRANCH  77  79
ENDBRANCH  71  74
ENDBRANCH  69  72
ENDBRANCH  68  69
ENDBRANCH  67  68
ENDBRANCH  55  67
ENDBRANCH  54  57
ENDBRANCH   1  54
TORSDOF 28
