REMARK  Name = 
REMARK  19 active torsions:
REMARK  status: ('A' for Active; 'I' for Inactive)
REMARK    1  A    between atoms: C_1  and  O_2
REMARK    2  A    between atoms: O_2  and  C_3
REMARK    3  A    between atoms: C_4  and  O_50
REMARK    4  A    between atoms: C_6  and  C_9
REMARK    5  A    between atoms: C_10  and  O_36
REMARK    6  A    between atoms: C_14  and  O_35
REMARK    7  A    between atoms: C_16  and  O_20
REMARK    8  A    between atoms: O_20  and  C_21
REMARK    9  A    between atoms: C_23  and  O_34
REMARK   10  A    between atoms: C_24  and  O_33
REMARK   11  A    between atoms: C_26  and  O_32
REMARK   12  A    between atoms: C_28  and  C_30
REMARK   13  A    between atoms: C_30  and  O_31
REMARK   14  A    between atoms: O_36  and  C_37
REMARK   15  A    between atoms: C_39  and  O_49
REMARK   16  A    between atoms: C_40  and  O_48
REMARK   17  A    between atoms: C_41  and  O_47
REMARK   18  A    between atoms: C_43  and  C_45
REMARK   19  A    between atoms: C_45  and  O_46
REMARK                            x       y       z     vdW  Elec       q    Type
REMARK                         _______ _______ _______ _____ _____    ______ ____
ROOT
ATOM      1  C   UNL     1       5.035   1.025   4.762  0.00  0.00    +0.181 A 
ATOM      2  O   UNL     1       5.143   2.338   5.246  0.00  0.00    -0.451 OA
ATOM      3  C   UNL     1       6.170   2.681   6.081  0.00  0.00    +0.147 A 
ATOM      4  C   UNL     1       6.993   1.722   6.646  0.00  0.00    +0.109 A 
ATOM      5  C   UNL     1       8.018   2.112   7.505  0.00  0.00    +0.135 A 
ATOM      6  C   UNL     1       8.242   3.466   7.752  0.00  0.00    +0.092 A 
ATOM      7  C   UNL     1       7.437   4.443   7.154  0.00  0.00    +0.131 A 
ATOM      8  C   UNL     1       6.785   0.323   6.277  0.00  0.00    +0.238 A 
ATOM      9  O   UNL     1       7.447  -0.553   6.834  0.00  0.00    -0.283 OA
ATOM     10  C   UNL     1       6.377   4.048   6.338  0.00  0.00    +0.093 A 
ATOM     11  C   UNL     1       5.808  -0.007   5.185  0.00  0.00    +0.214 A 
ENDROOT
BRANCH   1  15
ATOM     12  C   UNL     1       1.875   1.867   2.057  0.00  0.00    +0.161 A 
ATOM     13  C   UNL     1       3.195   2.113   1.691  0.00  0.00    +0.050 A 
ATOM     14  C   UNL     1       4.236   1.707   2.529  0.00  0.00    +0.015 A 
ATOM     15  C   UNL     1       3.968   1.043   3.736  0.00  0.00    +0.025 A 
ATOM     16  C   UNL     1       2.646   0.709   4.054  0.00  0.00    +0.060 A 
ATOM     17  C   UNL     1       1.617   1.111   3.205  0.00  0.00    +0.159 A 
BRANCH  17  18
ATOM     18  O   UNL     1       0.331   0.814   3.560  0.00  0.00    -0.503 OA
ATOM     19  H   UNL     1      -0.225   1.139   2.826  0.00  0.00    +0.292 HD
ENDBRANCH  17  18
BRANCH  12  21
ATOM     20  C   UNL     1       0.964   3.653   0.842  0.00  0.00    +0.277 C 
ATOM     21  O   UNL     1       0.784   2.335   1.369  0.00  0.00    -0.491 OA
ENDBRANCH  12  21
ENDBRANCH   1  15
BRANCH   5  22
ATOM     22  O   UNL     1       8.856   1.220   8.117  0.00  0.00    -0.506 OA
ATOM     23  H   UNL     1       8.584   0.310   7.858  0.00  0.00    +0.292 HD
ENDBRANCH   5  22
BRANCH  11  24
ATOM     24  O   UNL     1       5.908  -1.315   4.808  0.00  0.00    -0.453 OA
BRANCH  24  25
ATOM     25  C   UNL     1       5.081  -1.956   3.848  0.00  0.00    +0.340 C 
ATOM     26  O   UNL     1       3.790  -2.224   4.390  0.00  0.00    -0.331 OA
ATOM     27  C   UNL     1       3.768  -3.210   5.444  0.00  0.00    +0.179 C 
ATOM     28  C   UNL     1       4.354  -4.550   4.988  0.00  0.00    +0.177 C 
ATOM     29  C   UNL     1       5.772  -4.335   4.472  0.00  0.00    +0.180 C 
ATOM     30  C   UNL     1       5.784  -3.261   3.379  0.00  0.00    +0.214 C 
BRANCH  30  31
ATOM     31  O   UNL     1       7.149  -3.059   2.965  0.00  0.00    -0.383 OA
ATOM     32  H   UNL     1       7.650  -2.761   3.749  0.00  0.00    +0.210 HD
ENDBRANCH  30  31
BRANCH  29  33
ATOM     33  O   UNL     1       6.253  -5.579   3.930  0.00  0.00    -0.386 OA
ATOM     34  H   UNL     1       6.984  -5.352   3.320  0.00  0.00    +0.210 HD
ENDBRANCH  29  33
BRANCH  28  35
ATOM     35  O   UNL     1       3.569  -5.120   3.930  0.00  0.00    -0.386 OA
ATOM     36  H   UNL     1       4.121  -5.836   3.554  0.00  0.00    +0.210 HD
ENDBRANCH  28  35
BRANCH  27  37
ATOM     37  C   UNL     1       2.308  -3.381   5.888  0.00  0.00    +0.190 C 
BRANCH  37  38
ATOM     38  O   UNL     1       1.820  -2.227   6.578  0.00  0.00    -0.392 OA
ATOM     39  H   UNL     1       2.528  -1.564   6.603  0.00  0.00    +0.210 HD
ENDBRANCH  37  38
ENDBRANCH  27  37
ENDBRANCH  24  25
ENDBRANCH  11  24
BRANCH   7  40
ATOM     40  O   UNL     1       7.848   5.729   7.362  0.00  0.00    -0.461 OA
BRANCH  40  41
ATOM     41  C   UNL     1       6.889   6.799   7.316  0.00  0.00    +0.339 C 
ATOM     42  O   UNL     1       6.635   7.281   5.995  0.00  0.00    -0.331 OA
ATOM     43  C   UNL     1       7.758   7.912   5.344  0.00  0.00    +0.179 C 
ATOM     44  C   UNL     1       8.459   9.008   6.188  0.00  0.00    +0.177 C 
ATOM     45  C   UNL     1       8.723   8.519   7.613  0.00  0.00    +0.180 C 
ATOM     46  C   UNL     1       7.413   7.956   8.199  0.00  0.00    +0.214 C 
BRANCH  46  47
ATOM     47  O   UNL     1       7.615   7.564   9.560  0.00  0.00    -0.383 OA
ATOM     48  H   UNL     1       6.773   7.215   9.900  0.00  0.00    +0.210 HD
ENDBRANCH  46  47
BRANCH  45  49
ATOM     49  O   UNL     1       9.812   7.589   7.590  0.00  0.00    -0.386 OA
ATOM     50  H   UNL     1       9.450   6.690   7.472  0.00  0.00    +0.210 HD
ENDBRANCH  45  49
BRANCH  44  51
ATOM     51  O   UNL     1       7.665  10.198   6.247  0.00  0.00    -0.386 OA
ATOM     52  H   UNL     1       8.196  10.881   6.699  0.00  0.00    +0.210 HD
ENDBRANCH  44  51
BRANCH  43  53
ATOM     53  C   UNL     1       7.244   8.515   4.021  0.00  0.00    +0.190 C 
BRANCH  53  54
ATOM     54  O   UNL     1       6.654   7.536   3.163  0.00  0.00    -0.392 OA
ATOM     55  H   UNL     1       7.000   6.666   3.416  0.00  0.00    +0.210 HD
ENDBRANCH  53  54
ENDBRANCH  43  53
ENDBRANCH  40  41
ENDBRANCH   7  40
TORSDOF 18
