REMARK  Name = 
REMARK  24 active torsions:
REMARK  status: ('A' for Active; 'I' for Inactive)
REMARK    1  A    between atoms: C_1  and  C_2
REMARK    2  A    between atoms: C_3  and  O_64
REMARK    3  A    between atoms: C_5  and  O_63
REMARK    4  A    between atoms: C_6  and  O_62
REMARK    5  A    between atoms: C_8  and  O_11
REMARK    6  A    between atoms: O_11  and  C_12
REMARK    7  A    between atoms: C_13  and  O_61
REMARK    8  A    between atoms: C_15  and  O_60
REMARK    9  A    between atoms: C_17  and  C_44
REMARK   10  A    between atoms: C_19  and  O_21
REMARK   11  A    between atoms: O_21  and  C_22
REMARK   12  A    between atoms: C_23  and  C_35
REMARK   13  A    between atoms: C_27  and  O_34
REMARK   14  A    between atoms: C_29  and  O_33
REMARK   15  A    between atoms: C_37  and  O_42
REMARK   16  A    between atoms: C_38  and  O_41
REMARK   17  A    between atoms: O_42  and  C_43
REMARK   18  A    between atoms: C_44  and  O_45
REMARK   19  A    between atoms: O_45  and  C_46
REMARK   20  A    between atoms: C_48  and  O_59
REMARK   21  A    between atoms: C_49  and  O_58
REMARK   22  A    between atoms: C_51  and  O_57
REMARK   23  A    between atoms: C_53  and  C_55
REMARK   24  A    between atoms: C_55  and  O_56
REMARK                            x       y       z     vdW  Elec       q    Type
REMARK                         _______ _______ _______ _____ _____    ______ ____
ROOT
ATOM      1  C   UNL     1       2.589   2.712  -3.149  0.00  0.00    +0.221 C 
ATOM      2  C   UNL     1       1.495   2.132  -4.101  0.00  0.00    +0.340 C 
ATOM      3  O   UNL     1       2.012   2.048  -5.449  0.00  0.00    -0.331 OA
ATOM      4  C   UNL     1       2.387   3.354  -5.984  0.00  0.00    +0.179 C 
ATOM      5  C   UNL     1       3.493   3.994  -5.125  0.00  0.00    +0.177 C 
ATOM      6  C   UNL     1       2.990   4.114  -3.682  0.00  0.00    +0.180 C 
ENDROOT
BRANCH   5   7
ATOM      7  O   UNL     1       3.874   5.284  -5.608  0.00  0.00    -0.386 OA
ATOM      8  H   UNL     1       4.316   5.732  -4.860  0.00  0.00    +0.210 HD
ENDBRANCH   5   7
BRANCH   6   9
ATOM      9  O   UNL     1       3.966   4.826  -2.904  0.00  0.00    -0.386 OA
ATOM     10  H   UNL     1       3.529   5.111  -2.082  0.00  0.00    +0.210 HD
ENDBRANCH   6   9
BRANCH   4  11
ATOM     11  C   UNL     1       1.150   4.277  -6.129  0.00  0.00    +0.197 C 
BRANCH  11  12
ATOM     12  O   UNL     1       1.324   5.562  -6.712  0.00  0.00    -0.346 OA
BRANCH  12  13
ATOM     13  C   UNL     1       1.797   5.622  -8.059  0.00  0.00    +0.282 C 
ATOM     14  O   UNL     1       2.005   7.007  -8.402  0.00  0.00    -0.341 OA
ATOM     15  C   UNL     1       0.812   7.801  -8.231  0.00  0.00    +0.178 C 
ATOM     16  C   UNL     1      -0.347   7.277  -9.119  0.00  0.00    +0.177 C 
ATOM     17  C   UNL     1      -0.549   5.761  -8.942  0.00  0.00    +0.179 C 
ATOM     18  C   UNL     1       0.800   5.030  -9.073  0.00  0.00    +0.201 C 
BRANCH  18  19
ATOM     19  O   UNL     1       0.650   3.613  -8.940  0.00  0.00    -0.384 OA
ATOM     20  H   UNL     1      -0.210   3.449  -8.511  0.00  0.00    +0.210 HD
ENDBRANCH  18  19
BRANCH  17  21
ATOM     21  O   UNL     1      -1.208   5.468  -7.702  0.00  0.00    -0.386 OA
ATOM     22  H   UNL     1      -0.628   5.788  -6.980  0.00  0.00    +0.210 HD
ENDBRANCH  17  21
BRANCH  16  23
ATOM     23  O   UNL     1      -0.079   7.506 -10.504  0.00  0.00    -0.386 OA
ATOM     24  H   UNL     1      -0.889   7.287 -10.999  0.00  0.00    +0.210 HD
ENDBRANCH  16  23
BRANCH  15  25
ATOM     25  C   UNL     1       1.185   9.275  -8.470  0.00  0.00    +0.190 C 
BRANCH  25  26
ATOM     26  O   UNL     1       1.616   9.555  -9.796  0.00  0.00    -0.392 OA
ATOM     27  H   UNL     1       1.987   8.722 -10.143  0.00  0.00    +0.210 HD
ENDBRANCH  25  26
ENDBRANCH  15  25
ENDBRANCH  12  13
ENDBRANCH  11  12
ENDBRANCH   4  11
BRANCH   2  28
ATOM     28  O   UNL     1       0.921   0.891  -3.602  0.00  0.00    -0.453 OA
BRANCH  28  29
ATOM     29  C   UNL     1      -0.215   1.031  -2.776  0.00  0.00    +0.214 A 
ATOM     30  C   UNL     1      -0.664   2.386  -2.274  0.00  0.00    +0.238 A 
ATOM     31  O   UNL     1       0.099   3.342  -2.147  0.00  0.00    -0.283 OA
ATOM     32  C   UNL     1      -2.056   2.558  -1.891  0.00  0.00    +0.109 A 
ATOM     33  C   UNL     1      -2.710   1.412  -1.478  0.00  0.00    +0.147 A 
ATOM     34  C   UNL     1      -4.010   1.483  -0.984  0.00  0.00    +0.092 A 
ATOM     35  C   UNL     1      -4.642   2.719  -0.911  0.00  0.00    +0.124 A 
ATOM     36  C   UNL     1      -4.008   3.876  -1.353  0.00  0.00    +0.091 A 
ATOM     37  O   UNL     1      -2.103   0.193  -1.520  0.00  0.00    -0.451 OA
ATOM     38  C   UNL     1      -2.709   3.796  -1.852  0.00  0.00    +0.135 A 
ATOM     39  C   UNL     1      -0.996  -0.003  -2.362  0.00  0.00    +0.181 A 
BRANCH  39  40
ATOM     40  C   UNL     1      -0.863  -1.473  -2.636  0.00  0.00    +0.025 A 
ATOM     41  C   UNL     1      -2.048  -2.256  -2.573  0.00  0.00    +0.015 A 
ATOM     42  C   UNL     1      -2.034  -3.650  -2.633  0.00  0.00    +0.050 A 
ATOM     43  C   UNL     1      -0.828  -4.292  -2.809  0.00  0.00    +0.158 A 
ATOM     44  C   UNL     1       0.357  -3.562  -2.938  0.00  0.00    +0.162 A 
ATOM     45  C   UNL     1       0.348  -2.158  -2.821  0.00  0.00    +0.061 A 
BRANCH  44  46
ATOM     46  O   UNL     1       1.481  -4.327  -3.128  0.00  0.00    -0.491 OA
ATOM     47  C   UNL     1       2.413  -3.771  -4.050  0.00  0.00    +0.277 C 
ENDBRANCH  44  46
BRANCH  43  48
ATOM     48  O   UNL     1      -0.828  -5.658  -2.874  0.00  0.00    -0.503 OA
ATOM     49  H   UNL     1       0.104  -5.908  -3.020  0.00  0.00    +0.292 HD
ENDBRANCH  43  48
ENDBRANCH  39  40
BRANCH  38  50
ATOM     50  O   UNL     1      -2.105   4.927  -2.323  0.00  0.00    -0.506 OA
ATOM     51  H   UNL     1      -2.686   5.690  -2.175  0.00  0.00    +0.292 HD
ENDBRANCH  38  50
BRANCH  35  52
ATOM     52  O   UNL     1      -5.908   2.847  -0.428  0.00  0.00    -0.507 OA
ATOM     53  H   UNL     1      -6.232   1.981  -0.134  0.00  0.00    +0.292 HD
ENDBRANCH  35  52
ENDBRANCH  28  29
ENDBRANCH   2  28
BRANCH   1  54
ATOM     54  O   UNL     1       3.707   1.806  -2.988  0.00  0.00    -0.337 OA
BRANCH  54  58
ATOM     55  C   UNL     1       7.488   3.095  -1.665  0.00  0.00    +0.041 C 
ATOM     56  C   UNL     1       6.810   1.872  -1.032  0.00  0.00    +0.149 C 
ATOM     57  O   UNL     1       5.750   1.342  -1.860  0.00  0.00    -0.343 OA
ATOM     58  C   UNL     1       4.638   2.242  -1.983  0.00  0.00    +0.282 C 
ATOM     59  C   UNL     1       3.995   2.495  -0.591  0.00  0.00    +0.201 C 
ATOM     60  C   UNL     1       5.050   3.052   0.360  0.00  0.00    +0.179 C 
ATOM     61  C   UNL     1       6.293   2.160   0.389  0.00  0.00    +0.174 C 
BRANCH  59  62
ATOM     62  O   UNL     1       3.428   1.283  -0.057  0.00  0.00    -0.384 OA
ATOM     63  H   UNL     1       2.924   1.551   0.734  0.00  0.00    +0.210 HD
ENDBRANCH  59  62
BRANCH  60  64
ATOM     64  O   UNL     1       4.481   3.164   1.673  0.00  0.00    -0.386 OA
ATOM     65  H   UNL     1       4.708   2.324   2.125  0.00  0.00    +0.210 HD
ENDBRANCH  60  64
BRANCH  61  66
ATOM     66  O   UNL     1       5.936   0.926   1.038  0.00  0.00    -0.387 OA
ATOM     67  H   UNL     1       5.302   0.475   0.436  0.00  0.00    +0.210 HD
ENDBRANCH  61  66
ENDBRANCH  54  58
ENDBRANCH   1  54
TORSDOF 22
