REMARK  Name = 
REMARK  23 active torsions:
REMARK  status: ('A' for Active; 'I' for Inactive)
REMARK    1  A    between atoms: C_1  and  C_2
REMARK    2  A    between atoms: C_3  and  O_62
REMARK    3  A    between atoms: C_5  and  O_61
REMARK    4  A    between atoms: C_7  and  O_60
REMARK    5  A    between atoms: C_8  and  O_11
REMARK    6  A    between atoms: O_11  and  C_12
REMARK    7  A    between atoms: C_12  and  C_13
REMARK    8  A    between atoms: C_14  and  O_59
REMARK    9  A    between atoms: C_16  and  O_58
REMARK   10  A    between atoms: C_17  and  O_57
REMARK   11  A    between atoms: C_18  and  O_21
REMARK   12  A    between atoms: O_21  and  C_22
REMARK   13  A    between atoms: C_23  and  C_49
REMARK   14  A    between atoms: C_27  and  O_34
REMARK   15  A    between atoms: C_29  and  O_33
REMARK   16  A    between atoms: O_34  and  C_35
REMARK   17  A    between atoms: C_37  and  O_48
REMARK   18  A    between atoms: C_38  and  O_47
REMARK   19  A    between atoms: C_40  and  O_46
REMARK   20  A    between atoms: C_42  and  C_44
REMARK   21  A    between atoms: C_44  and  O_45
REMARK   22  A    between atoms: C_51  and  O_56
REMARK   23  A    between atoms: C_52  and  O_55
REMARK                            x       y       z     vdW  Elec       q    Type
REMARK                         _______ _______ _______ _____ _____    ______ ____
ROOT
ATOM      1  C   UNL     1       4.320   7.212  -1.082  0.00  0.00    +0.214 A 
ATOM      2  C   UNL     1       4.829   8.491  -0.474  0.00  0.00    +0.238 A 
ATOM      3  O   UNL     1       4.592   9.571  -1.007  0.00  0.00    -0.283 OA
ATOM      4  C   UNL     1       5.595   8.339   0.811  0.00  0.00    +0.109 A 
ATOM      5  C   UNL     1       5.386   7.184   1.541  0.00  0.00    +0.147 A 
ATOM      6  C   UNL     1       6.046   6.907   2.758  0.00  0.00    +0.093 A 
ATOM      7  C   UNL     1       6.958   7.783   3.265  0.00  0.00    +0.131 A 
ATOM      8  C   UNL     1       7.199   8.968   2.545  0.00  0.00    +0.092 A 
ATOM      9  O   UNL     1       4.540   6.214   1.106  0.00  0.00    -0.451 OA
ATOM     10  C   UNL     1       6.512   9.250   1.350  0.00  0.00    +0.135 A 
ATOM     11  C   UNL     1       4.265   6.145  -0.243  0.00  0.00    +0.181 A 
ENDROOT
BRANCH  11  12
ATOM     12  C   UNL     1       3.922   4.755  -0.615  0.00  0.00    +0.025 A 
ATOM     13  C   UNL     1       4.209   4.272  -1.894  0.00  0.00    +0.015 A 
ATOM     14  C   UNL     1       3.863   2.977  -2.271  0.00  0.00    +0.050 A 
ATOM     15  C   UNL     1       3.471   2.071  -1.294  0.00  0.00    +0.158 A 
ATOM     16  C   UNL     1       3.370   2.485   0.029  0.00  0.00    +0.159 A 
ATOM     17  C   UNL     1       3.506   3.827   0.357  0.00  0.00    +0.060 A 
BRANCH  16  18
ATOM     18  O   UNL     1       3.303   1.606   1.073  0.00  0.00    -0.503 OA
ATOM     19  H   UNL     1       2.448   1.152   1.018  0.00  0.00    +0.292 HD
ENDBRANCH  16  18
BRANCH  15  20
ATOM     20  O   UNL     1       3.291   0.760  -1.621  0.00  0.00    -0.503 OA
ATOM     21  H   UNL     1       3.759   0.607  -2.461  0.00  0.00    +0.292 HD
ENDBRANCH  15  20
ENDBRANCH  11  12
BRANCH  10  22
ATOM     22  O   UNL     1       6.766  10.422   0.693  0.00  0.00    -0.506 OA
ATOM     23  H   UNL     1       6.885  11.129   1.349  0.00  0.00    +0.292 HD
ENDBRANCH  10  22
BRANCH   7  24
ATOM     24  O   UNL     1       7.755   7.566   4.407  0.00  0.00    -0.461 OA
BRANCH  24  25
ATOM     25  C   UNL     1       7.290   6.519   5.280  0.00  0.00    +0.339 C 
ATOM     26  O   UNL     1       6.052   6.877   5.894  0.00  0.00    -0.331 OA
ATOM     27  C   UNL     1       6.186   7.981   6.806  0.00  0.00    +0.179 C 
ATOM     28  C   UNL     1       7.100   7.621   7.999  0.00  0.00    +0.177 C 
ATOM     29  C   UNL     1       8.474   7.137   7.497  0.00  0.00    +0.180 C 
ATOM     30  C   UNL     1       8.310   6.100   6.371  0.00  0.00    +0.214 C 
BRANCH  29  31
ATOM     31  O   UNL     1       9.318   8.224   7.103  0.00  0.00    -0.386 OA
ATOM     32  H   UNL     1       8.788   8.957   6.754  0.00  0.00    +0.210 HD
ENDBRANCH  29  31
BRANCH  30  33
ATOM     33  O   UNL     1       9.568   5.684   5.831  0.00  0.00    -0.383 OA
ATOM     34  H   UNL     1       9.841   6.350   5.175  0.00  0.00    +0.210 HD
ENDBRANCH  30  33
BRANCH  28  35
ATOM     35  O   UNL     1       6.484   6.602   8.791  0.00  0.00    -0.386 OA
ATOM     36  H   UNL     1       7.008   6.485   9.604  0.00  0.00    +0.210 HD
ENDBRANCH  28  35
BRANCH  27  37
ATOM     37  C   UNL     1       4.780   8.387   7.270  0.00  0.00    +0.190 C 
BRANCH  37  38
ATOM     38  O   UNL     1       3.965   8.822   6.178  0.00  0.00    -0.392 OA
ATOM     39  H   UNL     1       4.516   9.328   5.560  0.00  0.00    +0.210 HD
ENDBRANCH  37  38
ENDBRANCH  27  37
ENDBRANCH  24  25
ENDBRANCH   7  24
BRANCH   1  40
ATOM     40  O   UNL     1       3.811   7.143  -2.372  0.00  0.00    -0.453 OA
BRANCH  40  43
ATOM     41  C   UNL     1       6.095   9.339  -4.392  0.00  0.00    +0.179 C 
ATOM     42  O   UNL     1       5.627   8.416  -3.384  0.00  0.00    -0.331 OA
ATOM     43  C   UNL     1       4.312   7.872  -3.521  0.00  0.00    +0.340 C 
ATOM     44  C   UNL     1       3.214   8.840  -4.048  0.00  0.00    +0.214 C 
ATOM     45  C   UNL     1       3.734   9.556  -5.297  0.00  0.00    +0.180 C 
ATOM     46  C   UNL     1       5.004  10.326  -4.909  0.00  0.00    +0.177 C 
BRANCH  46  47
ATOM     47  O   UNL     1       5.471  11.090  -6.026  0.00  0.00    -0.386 OA
ATOM     48  H   UNL     1       5.993  11.835  -5.680  0.00  0.00    +0.210 HD
ENDBRANCH  46  47
BRANCH  45  49
ATOM     49  O   UNL     1       2.726  10.431  -5.825  0.00  0.00    -0.386 OA
ATOM     50  H   UNL     1       2.404  10.971  -5.079  0.00  0.00    +0.210 HD
ENDBRANCH  45  49
BRANCH  44  51
ATOM     51  O   UNL     1       2.798   9.847  -3.104  0.00  0.00    -0.383 OA
ATOM     52  H   UNL     1       3.370   9.789  -2.307  0.00  0.00    +0.210 HD
ENDBRANCH  44  51
BRANCH  41  53
ATOM     53  C   UNL     1       6.867   8.688  -5.587  0.00  0.00    +0.197 C 
BRANCH  53  54
ATOM     54  O   UNL     1       8.123   8.073  -5.308  0.00  0.00    -0.346 OA
BRANCH  54  58
ATOM     55  C   UNL     1      10.294   4.824  -3.447  0.00  0.00    +0.041 C 
ATOM     56  C   UNL     1      10.079   5.032  -4.943  0.00  0.00    +0.149 C 
ATOM     57  O   UNL     1       9.636   6.374  -5.202  0.00  0.00    -0.343 OA
ATOM     58  C   UNL     1       8.244   6.689  -4.982  0.00  0.00    +0.282 C 
ATOM     59  C   UNL     1       7.395   5.717  -5.835  0.00  0.00    +0.201 C 
ATOM     60  C   UNL     1       7.695   4.290  -5.332  0.00  0.00    +0.179 C 
ATOM     61  C   UNL     1       9.175   3.942  -5.548  0.00  0.00    +0.174 C 
BRANCH  61  62
ATOM     62  O   UNL     1       9.453   3.775  -6.946  0.00  0.00    -0.387 OA
ATOM     63  H   UNL     1       9.014   4.519  -7.414  0.00  0.00    +0.210 HD
ENDBRANCH  61  62
BRANCH  60  64
ATOM     64  O   UNL     1       6.831   3.327  -5.945  0.00  0.00    -0.386 OA
ATOM     65  H   UNL     1       7.378   2.559  -6.199  0.00  0.00    +0.210 HD
ENDBRANCH  60  64
BRANCH  59  66
ATOM     66  O   UNL     1       7.741   5.829  -7.235  0.00  0.00    -0.384 OA
ATOM     67  H   UNL     1       8.053   6.746  -7.376  0.00  0.00    +0.210 HD
ENDBRANCH  59  66
ENDBRANCH  54  58
ENDBRANCH  53  54
ENDBRANCH  41  53
ENDBRANCH  40  43
ENDBRANCH   1  40
TORSDOF 22
