REMARK  Name = 
REMARK  28 active torsions:
REMARK  status: ('A' for Active; 'I' for Inactive)
REMARK    1  A    between atoms: C_1  and  C_2
REMARK    2  A    between atoms: C_3  and  O_76
REMARK    3  A    between atoms: C_5  and  O_75
REMARK    4  A    between atoms: C_6  and  O_74
REMARK    5  A    between atoms: C_8  and  O_11
REMARK    6  A    between atoms: O_11  and  C_12
REMARK    7  A    between atoms: C_12  and  C_13
REMARK    8  A    between atoms: C_14  and  O_73
REMARK    9  A    between atoms: C_16  and  O_72
REMARK   10  A    between atoms: C_18  and  O_57
REMARK   11  A    between atoms: C_19  and  O_22
REMARK   12  A    between atoms: O_22  and  C_23
REMARK   13  A    between atoms: C_24  and  C_49
REMARK   14  A    between atoms: C_28  and  O_35
REMARK   15  A    between atoms: C_30  and  O_34
REMARK   16  A    between atoms: O_35  and  C_36
REMARK   17  A    between atoms: C_38  and  O_48
REMARK   18  A    between atoms: C_40  and  O_47
REMARK   19  A    between atoms: C_41  and  O_46
REMARK   20  A    between atoms: C_43  and  C_45
REMARK   21  A    between atoms: C_51  and  O_56
REMARK   22  A    between atoms: C_52  and  O_55
REMARK   23  A    between atoms: O_57  and  C_58
REMARK   24  A    between atoms: C_60  and  O_71
REMARK   25  A    between atoms: C_61  and  O_70
REMARK   26  A    between atoms: C_63  and  O_69
REMARK   27  A    between atoms: C_65  and  C_67
REMARK   28  A    between atoms: C_67  and  O_68
REMARK                            x       y       z     vdW  Elec       q    Type
REMARK                         _______ _______ _______ _____ _____    ______ ____
ROOT
ATOM      1  C   UNL     1       3.144   3.844  -4.359  0.00  0.00    +0.179 C 
ATOM      2  O   UNL     1       3.453   4.852  -3.365  0.00  0.00    -0.331 OA
ATOM      3  C   UNL     1       2.425   5.760  -2.871  0.00  0.00    +0.340 C 
ATOM      4  C   UNL     1       1.560   6.346  -4.031  0.00  0.00    +0.221 C 
ATOM      5  C   UNL     1       1.038   5.148  -4.825  0.00  0.00    +0.180 C 
ATOM      6  C   UNL     1       2.208   4.402  -5.465  0.00  0.00    +0.177 C 
ENDROOT
BRANCH   6   7
ATOM      7  O   UNL     1       1.646   3.392  -6.320  0.00  0.00    -0.386 OA
ATOM      8  H   UNL     1       2.341   3.112  -6.943  0.00  0.00    +0.210 HD
ENDBRANCH   6   7
BRANCH   5   9
ATOM      9  O   UNL     1       0.091   5.512  -5.830  0.00  0.00    -0.386 OA
ATOM     10  H   UNL     1       0.001   4.725  -6.405  0.00  0.00    +0.210 HD
ENDBRANCH   5   9
BRANCH   4  11
ATOM     11  O   UNL     1       2.298   7.320  -4.836  0.00  0.00    -0.337 OA
BRANCH  11  12
ATOM     12  C   UNL     1       1.553   8.006  -5.877  0.00  0.00    +0.282 C 
ATOM     13  O   UNL     1       2.449   8.848  -6.648  0.00  0.00    -0.341 OA
ATOM     14  C   UNL     1       2.996   9.979  -5.941  0.00  0.00    +0.178 C 
ATOM     15  C   UNL     1       1.919  10.849  -5.249  0.00  0.00    +0.177 C 
ATOM     16  C   UNL     1       0.942   9.980  -4.457  0.00  0.00    +0.179 C 
ATOM     17  C   UNL     1       0.380   8.888  -5.376  0.00  0.00    +0.201 C 
BRANCH  17  18
ATOM     18  O   UNL     1      -0.687   8.195  -4.724  0.00  0.00    -0.384 OA
ATOM     19  H   UNL     1      -0.566   8.285  -3.761  0.00  0.00    +0.210 HD
ENDBRANCH  17  18
BRANCH  16  20
ATOM     20  O   UNL     1       1.572   9.422  -3.302  0.00  0.00    -0.386 OA
ATOM     21  H   UNL     1       2.255   8.786  -3.604  0.00  0.00    +0.210 HD
ENDBRANCH  16  20
BRANCH  15  22
ATOM     22  O   UNL     1       1.186  11.616  -6.214  0.00  0.00    -0.386 OA
ATOM     23  H   UNL     1       0.367  11.942  -5.800  0.00  0.00    +0.210 HD
ENDBRANCH  15  22
BRANCH  14  24
ATOM     24  C   UNL     1       3.814  10.851  -6.919  0.00  0.00    +0.190 C 
BRANCH  24  25
ATOM     25  O   UNL     1       4.874  10.140  -7.558  0.00  0.00    -0.392 OA
ATOM     26  H   UNL     1       5.038   9.330  -7.049  0.00  0.00    +0.210 HD
ENDBRANCH  24  25
ENDBRANCH  14  24
ENDBRANCH  11  12
ENDBRANCH   4  11
BRANCH   3  27
ATOM     27  O   UNL     1       3.065   6.825  -2.118  0.00  0.00    -0.453 OA
BRANCH  27  28
ATOM     28  C   UNL     1       2.477   7.665  -1.161  0.00  0.00    +0.214 A 
ATOM     29  C   UNL     1       1.132   7.460  -0.522  0.00  0.00    +0.238 A 
ATOM     30  O   UNL     1       0.437   6.517  -0.866  0.00  0.00    -0.283 OA
ATOM     31  C   UNL     1       0.679   8.481   0.489  0.00  0.00    +0.109 A 
ATOM     32  C   UNL     1       1.524   9.548   0.781  0.00  0.00    +0.147 A 
ATOM     33  C   UNL     1       1.160  10.576   1.679  0.00  0.00    +0.093 A 
ATOM     34  C   UNL     1      -0.113  10.608   2.240  0.00  0.00    +0.131 A 
ATOM     35  C   UNL     1      -0.948   9.512   2.021  0.00  0.00    +0.092 A 
ATOM     36  O   UNL     1       2.747   9.693   0.192  0.00  0.00    -0.451 OA
ATOM     37  C   UNL     1      -0.547   8.450   1.169  0.00  0.00    +0.135 A 
ATOM     38  C   UNL     1       3.146   8.763  -0.740  0.00  0.00    +0.181 A 
BRANCH  38  39
ATOM     39  C   UNL     1       4.488   9.062  -1.218  0.00  0.00    +0.025 A 
ATOM     40  C   UNL     1       5.541   8.374  -0.602  0.00  0.00    +0.015 A 
ATOM     41  C   UNL     1       6.849   8.649  -0.960  0.00  0.00    +0.050 A 
ATOM     42  C   UNL     1       7.083   9.520  -2.016  0.00  0.00    +0.158 A 
ATOM     43  C   UNL     1       6.031  10.167  -2.667  0.00  0.00    +0.159 A 
ATOM     44  C   UNL     1       4.729  10.007  -2.220  0.00  0.00    +0.060 A 
BRANCH  42  45
ATOM     45  O   UNL     1       8.369   9.645  -2.448  0.00  0.00    -0.503 OA
ATOM     46  H   UNL     1       8.353   9.260  -3.344  0.00  0.00    +0.292 HD
ENDBRANCH  42  45
BRANCH  43  47
ATOM     47  O   UNL     1       6.239  10.898  -3.802  0.00  0.00    -0.503 OA
ATOM     48  H   UNL     1       6.458  11.806  -3.527  0.00  0.00    +0.292 HD
ENDBRANCH  43  47
ENDBRANCH  38  39
BRANCH  37  49
ATOM     49  O   UNL     1      -1.392   7.386   1.016  0.00  0.00    -0.506 OA
ATOM     50  H   UNL     1      -2.112   7.434   1.665  0.00  0.00    +0.292 HD
ENDBRANCH  37  49
BRANCH  34  51
ATOM     51  O   UNL     1      -0.433  11.755   2.938  0.00  0.00    -0.461 OA
BRANCH  51  52
ATOM     52  C   UNL     1      -1.828  12.119   2.966  0.00  0.00    +0.339 C 
ATOM     53  O   UNL     1      -2.407  12.196   1.659  0.00  0.00    -0.334 OA
ATOM     54  C   UNL     1      -1.909  13.295   0.882  0.00  0.00    +0.150 C 
ATOM     55  C   UNL     1      -2.491  13.153  -0.519  0.00  0.00    +0.041 C 
ATOM     56  C   UNL     1      -2.318  14.627   1.521  0.00  0.00    +0.174 C 
ATOM     57  C   UNL     1      -1.772  14.703   2.957  0.00  0.00    +0.180 C 
ATOM     58  C   UNL     1      -2.124  13.432   3.750  0.00  0.00    +0.214 C 
BRANCH  58  59
ATOM     59  O   UNL     1      -1.486  13.467   5.031  0.00  0.00    -0.383 OA
ATOM     60  H   UNL     1      -1.902  12.799   5.600  0.00  0.00    +0.210 HD
ENDBRANCH  58  59
BRANCH  57  61
ATOM     61  O   UNL     1      -2.320  15.869   3.607  0.00  0.00    -0.386 OA
ATOM     62  H   UNL     1      -3.291  15.820   3.583  0.00  0.00    +0.210 HD
ENDBRANCH  57  61
BRANCH  56  63
ATOM     63  O   UNL     1      -1.876  15.733   0.729  0.00  0.00    -0.387 OA
ATOM     64  H   UNL     1      -0.964  15.958   0.984  0.00  0.00    +0.210 HD
ENDBRANCH  56  63
ENDBRANCH  51  52
ENDBRANCH  34  51
ENDBRANCH  27  28
ENDBRANCH   3  27
BRANCH   1  65
ATOM     65  C   UNL     1       2.633   2.441  -3.861  0.00  0.00    +0.197 C 
BRANCH  65  66
ATOM     66  O   UNL     1       3.541   1.554  -3.184  0.00  0.00    -0.346 OA
BRANCH  66  70
ATOM     67  C   UNL     1       3.719   3.968   0.348  0.00  0.00    +0.041 C 
ATOM     68  C   UNL     1       4.904   3.256  -0.296  0.00  0.00    +0.149 C 
ATOM     69  O   UNL     1       4.599   2.870  -1.635  0.00  0.00    -0.343 OA
ATOM     70  C   UNL     1       3.684   1.797  -1.786  0.00  0.00    +0.282 C 
ATOM     71  C   UNL     1       4.193   0.519  -1.045  0.00  0.00    +0.201 C 
ATOM     72  C   UNL     1       4.457   0.873   0.430  0.00  0.00    +0.179 C 
ATOM     73  C   UNL     1       5.416   2.069   0.533  0.00  0.00    +0.174 C 
BRANCH  73  74
ATOM     74  O   UNL     1       6.715   1.670   0.056  0.00  0.00    -0.387 OA
ATOM     75  H   UNL     1       6.580   1.317  -0.854  0.00  0.00    +0.210 HD
ENDBRANCH  73  74
BRANCH  72  76
ATOM     76  O   UNL     1       5.019  -0.252   1.121  0.00  0.00    -0.386 OA
ATOM     77  H   UNL     1       5.954  -0.288   0.826  0.00  0.00    +0.210 HD
ENDBRANCH  72  76
BRANCH  71  78
ATOM     78  O   UNL     1       5.434   0.027  -1.604  0.00  0.00    -0.384 OA
ATOM     79  H   UNL     1       5.206  -0.764  -2.126  0.00  0.00    +0.210 HD
ENDBRANCH  71  78
ENDBRANCH  66  70
ENDBRANCH  65  66
ENDBRANCH   1  65
TORSDOF 26
