REMARK  Name = 
REMARK  23 active torsions:
REMARK  status: ('A' for Active; 'I' for Inactive)
REMARK    1  A    between atoms: C_1  and  C_2
REMARK    2  A    between atoms: C_3  and  O_63
REMARK    3  A    between atoms: C_5  and  O_62
REMARK    4  A    between atoms: C_6  and  O_47
REMARK    5  A    between atoms: C_8  and  O_11
REMARK    6  A    between atoms: O_11  and  C_12
REMARK    7  A    between atoms: C_13  and  C_39
REMARK    8  A    between atoms: C_17  and  O_24
REMARK    9  A    between atoms: C_19  and  O_23
REMARK   10  A    between atoms: O_24  and  C_25
REMARK   11  A    between atoms: C_27  and  O_38
REMARK   12  A    between atoms: C_28  and  O_37
REMARK   13  A    between atoms: C_30  and  O_36
REMARK   14  A    between atoms: C_32  and  C_34
REMARK   15  A    between atoms: C_34  and  O_35
REMARK   16  A    between atoms: C_41  and  O_46
REMARK   17  A    between atoms: C_42  and  O_45
REMARK   18  A    between atoms: O_47  and  C_48
REMARK   19  A    between atoms: C_50  and  O_61
REMARK   20  A    between atoms: C_51  and  O_60
REMARK   21  A    between atoms: C_53  and  O_59
REMARK   22  A    between atoms: C_55  and  C_57
REMARK   23  A    between atoms: C_57  and  O_58
REMARK                            x       y       z     vdW  Elec       q    Type
REMARK                         _______ _______ _______ _____ _____    ______ ____
ROOT
ATOM      1  C   UNL     1       2.949   3.108  -2.749  0.00  0.00    +0.214 A 
ATOM      2  C   UNL     1       1.467   3.461  -2.668  0.00  0.00    +0.238 A 
ATOM      3  O   UNL     1       0.600   2.594  -2.676  0.00  0.00    -0.283 OA
ATOM      4  C   UNL     1       1.081   4.892  -2.702  0.00  0.00    +0.109 A 
ATOM      5  C   UNL     1       2.062   5.779  -3.097  0.00  0.00    +0.147 A 
ATOM      6  C   UNL     1       1.821   7.161  -3.138  0.00  0.00    +0.093 A 
ATOM      7  C   UNL     1       0.586   7.680  -2.752  0.00  0.00    +0.131 A 
ATOM      8  C   UNL     1      -0.440   6.789  -2.444  0.00  0.00    +0.092 A 
ATOM      9  O   UNL     1       3.293   5.382  -3.509  0.00  0.00    -0.451 OA
ATOM     10  C   UNL     1      -0.194   5.405  -2.416  0.00  0.00    +0.135 A 
ATOM     11  C   UNL     1       3.747   4.076  -3.302  0.00  0.00    +0.181 A 
ENDROOT
BRANCH  11  12
ATOM     12  C   UNL     1       5.162   4.018  -3.867  0.00  0.00    +0.025 A 
ATOM     13  C   UNL     1       5.453   4.861  -4.982  0.00  0.00    +0.015 A 
ATOM     14  C   UNL     1       6.711   4.928  -5.602  0.00  0.00    +0.050 A 
ATOM     15  C   UNL     1       7.741   4.159  -5.105  0.00  0.00    +0.158 A 
ATOM     16  C   UNL     1       7.521   3.364  -3.987  0.00  0.00    +0.159 A 
ATOM     17  C   UNL     1       6.254   3.296  -3.364  0.00  0.00    +0.060 A 
BRANCH  16  18
ATOM     18  O   UNL     1       8.613   2.681  -3.515  0.00  0.00    -0.503 OA
ATOM     19  H   UNL     1       8.403   2.332  -2.634  0.00  0.00    +0.292 HD
ENDBRANCH  16  18
BRANCH  15  20
ATOM     20  O   UNL     1       8.966   4.226  -5.703  0.00  0.00    -0.503 OA
ATOM     21  H   UNL     1       9.533   3.614  -5.189  0.00  0.00    +0.292 HD
ENDBRANCH  15  20
ENDBRANCH  11  12
BRANCH  10  22
ATOM     22  O   UNL     1      -1.235   4.585  -2.073  0.00  0.00    -0.506 OA
ATOM     23  H   UNL     1      -2.069   5.059  -2.099  0.00  0.00    +0.292 HD
ENDBRANCH  10  22
BRANCH   7  24
ATOM     24  O   UNL     1       0.292   9.021  -2.612  0.00  0.00    -0.461 OA
BRANCH  24  25
ATOM     25  C   UNL     1       1.443   9.866  -2.382  0.00  0.00    +0.339 C 
ATOM     26  O   UNL     1       2.184   9.438  -1.235  0.00  0.00    -0.331 OA
ATOM     27  C   UNL     1       1.480   9.616   0.009  0.00  0.00    +0.179 C 
ATOM     28  C   UNL     1       1.226  11.114   0.252  0.00  0.00    +0.177 C 
ATOM     29  C   UNL     1       0.391  11.679  -0.907  0.00  0.00    +0.180 C 
ATOM     30  C   UNL     1       1.050  11.359  -2.255  0.00  0.00    +0.214 C 
BRANCH  30  31
ATOM     31  O   UNL     1       0.214  11.792  -3.334  0.00  0.00    -0.383 OA
ATOM     32  H   UNL     1      -0.709  11.614  -3.069  0.00  0.00    +0.210 HD
ENDBRANCH  30  31
BRANCH  29  33
ATOM     33  O   UNL     1      -0.956  11.188  -0.873  0.00  0.00    -0.386 OA
ATOM     34  H   UNL     1      -0.968  10.279  -1.221  0.00  0.00    +0.210 HD
ENDBRANCH  29  33
BRANCH  28  35
ATOM     35  O   UNL     1       2.481  11.801   0.333  0.00  0.00    -0.386 OA
ATOM     36  H   UNL     1       2.314  12.756   0.419  0.00  0.00    +0.210 HD
ENDBRANCH  28  35
BRANCH  27  37
ATOM     37  C   UNL     1       2.313   8.980   1.132  0.00  0.00    +0.190 C 
BRANCH  37  38
ATOM     38  O   UNL     1       2.392   7.559   0.985  0.00  0.00    -0.392 OA
ATOM     39  H   UNL     1       1.504   7.214   0.800  0.00  0.00    +0.210 HD
ENDBRANCH  37  38
ENDBRANCH  27  37
ENDBRANCH  24  25
ENDBRANCH   7  24
BRANCH   1  40
ATOM     40  O   UNL     1       3.388   1.821  -2.415  0.00  0.00    -0.453 OA
BRANCH  40  44
ATOM     41  C   UNL     1      -0.041   0.016  -0.165  0.00  0.00    +0.041 C 
ATOM     42  C   UNL     1       1.377   0.262   0.370  0.00  0.00    +0.150 C 
ATOM     43  O   UNL     1       2.142   1.235  -0.392  0.00  0.00    -0.334 OA
ATOM     44  C   UNL     1       2.527   0.845  -1.723  0.00  0.00    +0.340 C 
ATOM     45  C   UNL     1       3.251  -0.545  -1.692  0.00  0.00    +0.221 C 
ATOM     46  C   UNL     1       2.458  -1.598  -0.893  0.00  0.00    +0.180 C 
ATOM     47  C   UNL     1       2.133  -1.070   0.510  0.00  0.00    +0.174 C 
BRANCH  47  48
ATOM     48  O   UNL     1       3.332  -0.882   1.280  0.00  0.00    -0.387 OA
ATOM     49  H   UNL     1       3.950  -0.357   0.731  0.00  0.00    +0.210 HD
ENDBRANCH  47  48
BRANCH  46  50
ATOM     50  O   UNL     1       3.227  -2.812  -0.785  0.00  0.00    -0.386 OA
ATOM     51  H   UNL     1       4.032  -2.554  -0.286  0.00  0.00    +0.210 HD
ENDBRANCH  46  50
BRANCH  45  52
ATOM     52  O   UNL     1       4.554  -0.574  -1.056  0.00  0.00    -0.337 OA
BRANCH  52  53
ATOM     53  C   UNL     1       5.621  -0.027  -1.822  0.00  0.00    +0.282 C 
ATOM     54  O   UNL     1       5.582  -0.399  -3.193  0.00  0.00    -0.341 OA
ATOM     55  C   UNL     1       5.707  -1.823  -3.374  0.00  0.00    +0.178 C 
ATOM     56  C   UNL     1       7.067  -2.362  -2.878  0.00  0.00    +0.177 C 
ATOM     57  C   UNL     1       7.358  -1.869  -1.444  0.00  0.00    +0.179 C 
ATOM     58  C   UNL     1       7.003  -0.386  -1.241  0.00  0.00    +0.201 C 
BRANCH  58  59
ATOM     59  O   UNL     1       7.111  -0.046   0.149  0.00  0.00    -0.384 OA
ATOM     60  H   UNL     1       6.824  -0.851   0.630  0.00  0.00    +0.210 HD
ENDBRANCH  58  59
BRANCH  57  61
ATOM     61  O   UNL     1       6.656  -2.656  -0.469  0.00  0.00    -0.386 OA
ATOM     62  H   UNL     1       6.980  -3.572  -0.549  0.00  0.00    +0.210 HD
ENDBRANCH  57  61
BRANCH  56  63
ATOM     63  O   UNL     1       8.170  -1.985  -3.694  0.00  0.00    -0.386 OA
ATOM     64  H   UNL     1       8.887  -2.622  -3.545  0.00  0.00    +0.210 HD
ENDBRANCH  56  63
BRANCH  55  65
ATOM     65  C   UNL     1       5.265  -2.137  -4.812  0.00  0.00    +0.190 C 
BRANCH  65  66
ATOM     66  O   UNL     1       6.179  -1.728  -5.820  0.00  0.00    -0.392 OA
ATOM     67  H   UNL     1       5.747  -1.026  -6.336  0.00  0.00    +0.210 HD
ENDBRANCH  65  66
ENDBRANCH  55  65
ENDBRANCH  52  53
ENDBRANCH  45  52
ENDBRANCH  40  44
ENDBRANCH   1  40
TORSDOF 22
