REMARK  Name = 
REMARK  14 active torsions:
REMARK  status: ('A' for Active; 'I' for Inactive)
REMARK    1  A    between atoms: C_1  and  C_2
REMARK    2  A    between atoms: C_2  and  O_4
REMARK    3  A    between atoms: O_4  and  C_5
REMARK    4  A    between atoms: C_7  and  O_39
REMARK    5  A    between atoms: C_12  and  C_17
REMARK    6  A    between atoms: C_13  and  O_16
REMARK    7  A    between atoms: C_19  and  O_24
REMARK    8  A    between atoms: C_20  and  O_23
REMARK    9  A    between atoms: O_24  and  C_25
REMARK   10  A    between atoms: C_27  and  O_38
REMARK   11  A    between atoms: C_28  and  O_37
REMARK   12  A    between atoms: C_30  and  O_36
REMARK   13  A    between atoms: C_32  and  C_34
REMARK   14  A    between atoms: C_34  and  O_35
REMARK                            x       y       z     vdW  Elec       q    Type
REMARK                         _______ _______ _______ _____ _____    ______ ____
ROOT
ATOM      1  C   UNL     1       9.572   2.432   0.397  0.00  0.00    +0.025 A 
ATOM      2  C   UNL     1      10.925   2.528   0.039  0.00  0.00    +0.015 A 
ATOM      3  C   UNL     1      11.534   3.775  -0.087  0.00  0.00    +0.050 A 
ATOM      4  C   UNL     1      10.783   4.922   0.123  0.00  0.00    +0.159 A 
ATOM      5  C   UNL     1       9.426   4.854   0.457  0.00  0.00    +0.166 A 
ATOM      6  C   UNL     1       8.830   3.601   0.627  0.00  0.00    +0.061 A 
ENDROOT
BRANCH   1  11
ATOM      7  C   UNL     1       6.688  -2.090  -2.274  0.00  0.00    +0.139 A 
ATOM      8  C   UNL     1       7.284  -0.846  -2.089  0.00  0.00    +0.093 A 
ATOM      9  C   UNL     1       7.826  -0.524  -0.840  0.00  0.00    +0.147 A 
ATOM     10  O   UNL     1       8.432   0.702  -0.752  0.00  0.00    -0.451 OA
ATOM     11  C   UNL     1       8.928   1.111   0.473  0.00  0.00    +0.181 A 
ATOM     12  C   UNL     1       8.875   0.385   1.605  0.00  0.00    +0.208 A 
ATOM     13  C   UNL     1       8.301  -0.990   1.536  0.00  0.00    +0.238 A 
ATOM     14  O   UNL     1       8.296  -1.709   2.530  0.00  0.00    -0.283 OA
ATOM     15  C   UNL     1       7.746  -1.419   0.230  0.00  0.00    +0.109 A 
ATOM     16  C   UNL     1       7.128  -2.662   0.028  0.00  0.00    +0.135 A 
ATOM     17  C   UNL     1       6.598  -2.998  -1.220  0.00  0.00    +0.092 A 
BRANCH  12  18
ATOM     18  O   UNL     1       9.336   0.827   2.834  0.00  0.00    -0.501 OA
ATOM     19  H   UNL     1       9.452   1.790   2.805  0.00  0.00    +0.292 HD
ENDBRANCH  12  18
BRANCH  16  20
ATOM     20  O   UNL     1       7.024  -3.568   1.044  0.00  0.00    -0.506 OA
ATOM     21  H   UNL     1       6.565  -4.369   0.748  0.00  0.00    +0.292 HD
ENDBRANCH  16  20
BRANCH   7  22
ATOM     22  O   UNL     1       6.077  -2.492  -3.479  0.00  0.00    -0.426 OA
BRANCH  22  24
ATOM     23  C   UNL     1       5.781  -2.762  -5.799  0.00  0.00    +0.136 C 
ATOM     24  C   UNL     1       6.616  -2.142  -4.717  0.00  0.00    +0.309 C 
ATOM     25  O   UNL     1       7.631  -1.491  -4.916  0.00  0.00    -0.251 OA
ENDBRANCH  22  24
ENDBRANCH   7  22
ENDBRANCH   1  11
BRANCH   4  26
ATOM     26  O   UNL     1      11.408   6.130  -0.026  0.00  0.00    -0.503 OA
ATOM     27  H   UNL     1      10.795   6.803   0.320  0.00  0.00    +0.292 HD
ENDBRANCH   4  26
BRANCH   5  28
ATOM     28  O   UNL     1       8.794   6.067   0.524  0.00  0.00    -0.457 OA
BRANCH  28  29
ATOM     29  C   UNL     1       7.378   6.094   0.788  0.00  0.00    +0.339 C 
ATOM     30  O   UNL     1       6.608   5.329  -0.143  0.00  0.00    -0.331 OA
ATOM     31  C   UNL     1       6.710   5.776  -1.506  0.00  0.00    +0.179 C 
ATOM     32  C   UNL     1       6.237   7.239  -1.644  0.00  0.00    +0.177 C 
ATOM     33  C   UNL     1       6.998   8.138  -0.657  0.00  0.00    +0.180 C 
ATOM     34  C   UNL     1       6.916   7.567   0.770  0.00  0.00    +0.214 C 
BRANCH  32  35
ATOM     35  O   UNL     1       4.834   7.322  -1.375  0.00  0.00    -0.386 OA
ATOM     36  H   UNL     1       4.553   8.248  -1.485  0.00  0.00    +0.210 HD
ENDBRANCH  32  35
BRANCH  33  37
ATOM     37  O   UNL     1       8.367   8.318  -1.054  0.00  0.00    -0.386 OA
ATOM     38  H   UNL     1       8.824   7.458  -1.016  0.00  0.00    +0.210 HD
ENDBRANCH  33  37
BRANCH  34  39
ATOM     39  O   UNL     1       7.698   8.375   1.660  0.00  0.00    -0.383 OA
ATOM     40  H   UNL     1       8.497   8.639   1.164  0.00  0.00    +0.210 HD
ENDBRANCH  34  39
BRANCH  31  41
ATOM     41  C   UNL     1       5.888   4.820  -2.389  0.00  0.00    +0.190 C 
BRANCH  41  42
ATOM     42  O   UNL     1       6.392   3.481  -2.336  0.00  0.00    -0.392 OA
ATOM     43  H   UNL     1       7.362   3.512  -2.374  0.00  0.00    +0.210 HD
ENDBRANCH  41  42
ENDBRANCH  31  41
ENDBRANCH  28  29
ENDBRANCH   5  28
TORSDOF 13
