REMARK  Name = 
REMARK  14 active torsions:
REMARK  status: ('A' for Active; 'I' for Inactive)
REMARK    1  A    between atoms: C_3  and  O_41
REMARK    2  A    between atoms: C_4  and  O_36
REMARK    3  A    between atoms: C_6  and  C_7
REMARK    4  A    between atoms: C_8  and  O_20
REMARK    5  A    between atoms: C_12  and  O_19
REMARK    6  A    between atoms: C_14  and  O_18
REMARK    7  A    between atoms: O_20  and  C_21
REMARK    8  A    between atoms: C_23  and  O_35
REMARK    9  A    between atoms: C_24  and  O_34
REMARK   10  A    between atoms: C_25  and  O_33
REMARK   11  A    between atoms: C_27  and  C_30
REMARK   12  A    between atoms: C_30  and  O_32
REMARK   13  A    between atoms: O_36  and  S_37
REMARK   14  A    between atoms: S_37  and  O_40
REMARK                            x       y       z     vdW  Elec       q    Type
REMARK                         _______ _______ _______ _____ _____    ______ ____
ROOT
ATOM      1  C   UNL     1      -1.327  -2.753   0.369  0.00  0.00    +0.181 A 
ATOM      2  O   UNL     1      -0.653  -3.950   0.568  0.00  0.00    -0.451 OA
ATOM      3  C   UNL     1      -1.217  -5.142   0.212  0.00  0.00    +0.147 A 
ATOM      4  C   UNL     1      -2.528  -5.242  -0.212  0.00  0.00    +0.109 A 
ATOM      5  C   UNL     1      -3.037  -6.512  -0.527  0.00  0.00    +0.135 A 
ATOM      6  C   UNL     1      -2.224  -7.652  -0.442  0.00  0.00    +0.091 A 
ATOM      7  C   UNL     1      -0.901  -7.520  -0.035  0.00  0.00    +0.124 A 
ATOM      8  C   UNL     1      -3.301  -3.994  -0.332  0.00  0.00    +0.238 A 
ATOM      9  O   UNL     1      -4.467  -4.037  -0.727  0.00  0.00    -0.283 OA
ATOM     10  C   UNL     1      -0.396  -6.269   0.297  0.00  0.00    +0.092 A 
ATOM     11  C   UNL     1      -2.609  -2.676  -0.071  0.00  0.00    +0.214 A 
ENDROOT
BRANCH   1  13
ATOM     12  C   UNL     1      -0.776  -0.266   0.609  0.00  0.00    +0.015 A 
ATOM     13  C   UNL     1      -0.386  -1.604   0.558  0.00  0.00    +0.025 A 
ATOM     14  C   UNL     1       1.001  -1.865   0.544  0.00  0.00    +0.064 A 
ATOM     15  C   UNL     1       1.935  -0.844   0.370  0.00  0.00    +0.201 A 
ATOM     16  C   UNL     1       1.483   0.456   0.185  0.00  0.00    +0.161 A 
ATOM     17  C   UNL     1       0.141   0.762   0.367  0.00  0.00    +0.050 A 
BRANCH  16  18
ATOM     18  O   UNL     1       2.370   1.424  -0.188  0.00  0.00    -0.503 OA
ATOM     19  H   UNL     1       1.873   2.129  -0.636  0.00  0.00    +0.292 HD
ENDBRANCH  16  18
BRANCH  15  20
ATOM     20  O   UNL     1       3.278  -1.086   0.250  0.00  0.00    -0.321 OA
BRANCH  20  21
ATOM     21  S   UNL     1       4.023  -2.106   1.278  0.00  0.00    +0.251 S 
ATOM     22  O   UNL     1       3.765  -3.469   0.872  0.00  0.00    -0.108 OA
ATOM     23  O   UNL     1       3.804  -1.661   2.635  0.00  0.00    -0.108 OA
BRANCH  21  24
ATOM     24  O   UNL     1       5.582  -1.810   0.994  0.00  0.00    -0.222 OA
ATOM     25  H   UNL     1       5.841  -1.049   1.549  0.00  0.00    +0.248 HD
ENDBRANCH  21  24
ENDBRANCH  20  21
ENDBRANCH  15  20
ENDBRANCH   1  13
BRANCH   5  26
ATOM     26  O   UNL     1      -4.320  -6.726  -0.943  0.00  0.00    -0.506 OA
ATOM     27  H   UNL     1      -4.790  -5.856  -0.938  0.00  0.00    +0.292 HD
ENDBRANCH   5  26
BRANCH   7  28
ATOM     28  O   UNL     1      -0.060  -8.588   0.055  0.00  0.00    -0.507 OA
ATOM     29  H   UNL     1      -0.537  -9.398  -0.206  0.00  0.00    +0.292 HD
ENDBRANCH   7  28
BRANCH  11  30
ATOM     30  O   UNL     1      -3.358  -1.500  -0.136  0.00  0.00    -0.453 OA
BRANCH  30  31
ATOM     31  C   UNL     1      -3.427  -0.781  -1.387  0.00  0.00    +0.340 C 
ATOM     32  O   UNL     1      -3.206   0.634  -1.196  0.00  0.00    -0.322 OA
ATOM     33  C   UNL     1      -4.252   1.402  -0.576  0.00  0.00    +0.261 C 
ATOM     34  C   UNL     1      -5.716   0.921  -0.687  0.00  0.00    +0.185 C 
ATOM     35  C   UNL     1      -5.863  -0.554  -1.054  0.00  0.00    +0.180 C 
ATOM     36  C   UNL     1      -4.794  -0.926  -2.084  0.00  0.00    +0.214 C 
BRANCH  33  37
ATOM     37  C   UNL     1      -3.898   1.717   0.867  0.00  0.00    +0.337 C 
ATOM     38  O   UNL     1      -4.252   1.028   1.809  0.00  0.00    -0.248 OA
BRANCH  37  39
ATOM     39  O   UNL     1      -3.094   2.797   1.016  0.00  0.00    -0.479 OA
ATOM     40  H   UNL     1      -2.893   3.258   0.174  0.00  0.00    +0.295 HD
ENDBRANCH  37  39
ENDBRANCH  33  37
BRANCH  34  41
ATOM     41  O   UNL     1      -6.372   1.693  -1.722  0.00  0.00    -0.386 OA
ATOM     42  H   UNL     1      -7.198   1.189  -1.907  0.00  0.00    +0.210 HD
ENDBRANCH  34  41
BRANCH  35  43
ATOM     43  O   UNL     1      -7.178  -0.760  -1.598  0.00  0.00    -0.386 OA
ATOM     44  H   UNL     1      -7.132  -1.644  -2.023  0.00  0.00    +0.210 HD
ENDBRANCH  35  43
BRANCH  36  45
ATOM     45  O   UNL     1      -5.073  -2.200  -2.656  0.00  0.00    -0.383 OA
ATOM     46  H   UNL     1      -4.372  -2.827  -2.406  0.00  0.00    +0.210 HD
ENDBRANCH  36  45
ENDBRANCH  30  31
ENDBRANCH  11  30
TORSDOF 14
