REMARK  Name = 
REMARK  16 active torsions:
REMARK  status: ('A' for Active; 'I' for Inactive)
REMARK    1  A    between atoms: C_1  and  C_2
REMARK    2  A    between atoms: C_3  and  C_4
REMARK    3  A    between atoms: C_3  and  C_5
REMARK    4  A    between atoms: C_5  and  O_7
REMARK    5  A    between atoms: O_7  and  C_8
REMARK    6  A    between atoms: C_8  and  C_9
REMARK    7  A    between atoms: C_10  and  O_42
REMARK    8  A    between atoms: C_12  and  O_41
REMARK    9  A    between atoms: C_14  and  O_40
REMARK   10  A    between atoms: C_15  and  O_18
REMARK   11  A    between atoms: O_18  and  C_19
REMARK   12  A    between atoms: C_21  and  O_39
REMARK   13  A    between atoms: C_26  and  C_31
REMARK   14  A    between atoms: C_27  and  O_30
REMARK   15  A    between atoms: C_33  and  O_38
REMARK   16  A    between atoms: C_34  and  O_37
REMARK                            x       y       z     vdW  Elec       q    Type
REMARK                         _______ _______ _______ _____ _____    ______ ____
ROOT
ATOM      1  C   UNL     1       3.573   0.292  -5.795  0.00  0.00    +0.131 A 
ATOM      2  C   UNL     1       2.699   0.628  -6.848  0.00  0.00    +0.093 A 
ATOM      3  C   UNL     1       2.189   1.939  -6.976  0.00  0.00    +0.147 A 
ATOM      4  O   UNL     1       1.372   2.215  -8.060  0.00  0.00    -0.451 OA
ATOM      5  C   UNL     1       0.899   3.522  -8.236  0.00  0.00    +0.181 A 
ATOM      6  C   UNL     1       1.119   4.512  -7.353  0.00  0.00    +0.208 A 
ATOM      7  C   UNL     1       1.951   4.255  -6.159  0.00  0.00    +0.238 A 
ATOM      8  O   UNL     1       2.082   5.168  -5.351  0.00  0.00    -0.283 OA
ATOM      9  C   UNL     1       2.530   2.908  -6.029  0.00  0.00    +0.109 A 
ATOM     10  C   UNL     1       3.394   2.574  -4.984  0.00  0.00    +0.135 A 
ATOM     11  C   UNL     1       3.894   1.277  -4.864  0.00  0.00    +0.092 A 
ENDROOT
BRANCH   5  12
ATOM     12  C   UNL     1       0.029   3.747  -9.427  0.00  0.00    +0.025 A 
ATOM     13  C   UNL     1      -0.895   2.775  -9.836  0.00  0.00    +0.015 A 
ATOM     14  C   UNL     1      -1.800   3.032 -10.876  0.00  0.00    +0.050 A 
ATOM     15  C   UNL     1      -1.784   4.264 -11.509  0.00  0.00    +0.158 A 
ATOM     16  C   UNL     1      -0.866   5.231 -11.142  0.00  0.00    +0.159 A 
ATOM     17  C   UNL     1       0.058   4.971 -10.131  0.00  0.00    +0.060 A 
BRANCH  15  18
ATOM     18  O   UNL     1      -2.699   4.532 -12.492  0.00  0.00    -0.503 OA
ATOM     19  H   UNL     1      -2.504   5.453 -12.759  0.00  0.00    +0.292 HD
ENDBRANCH  15  18
BRANCH  16  20
ATOM     20  O   UNL     1      -0.919   6.445 -11.776  0.00  0.00    -0.503 OA
ATOM     21  H   UNL     1      -0.319   7.050 -11.311  0.00  0.00    +0.292 HD
ENDBRANCH  16  20
ENDBRANCH   5  12
BRANCH   6  22
ATOM     22  O   UNL     1       0.549   5.774  -7.441  0.00  0.00    -0.501 OA
ATOM     23  H   UNL     1       0.685   6.173  -6.555  0.00  0.00    +0.292 HD
ENDBRANCH   6  22
BRANCH  10  24
ATOM     24  O   UNL     1       3.788   3.503  -4.064  0.00  0.00    -0.506 OA
ATOM     25  H   UNL     1       4.522   3.165  -3.525  0.00  0.00    +0.292 HD
ENDBRANCH  10  24
BRANCH   1  26
ATOM     26  O   UNL     1       4.078  -0.993  -5.766  0.00  0.00    -0.461 OA
BRANCH  26  29
ATOM     27  C   UNL     1       7.173  -0.699  -3.756  0.00  0.00    +0.191 C 
ATOM     28  O   UNL     1       6.189  -0.487  -4.783  0.00  0.00    -0.330 OA
ATOM     29  C   UNL     1       5.019  -1.329  -4.712  0.00  0.00    +0.339 C 
ATOM     30  C   UNL     1       5.470  -2.815  -4.838  0.00  0.00    +0.214 C 
ATOM     31  C   UNL     1       6.501  -3.118  -3.723  0.00  0.00    +0.180 C 
ATOM     32  C   UNL     1       7.686  -2.147  -3.818  0.00  0.00    +0.178 C 
BRANCH  30  33
ATOM     33  O   UNL     1       6.063  -3.061  -6.125  0.00  0.00    -0.383 OA
ATOM     34  H   UNL     1       6.373  -2.206  -6.477  0.00  0.00    +0.210 HD
ENDBRANCH  30  33
BRANCH  31  35
ATOM     35  O   UNL     1       6.991  -4.463  -3.786  0.00  0.00    -0.386 OA
ATOM     36  H   UNL     1       7.806  -4.471  -3.243  0.00  0.00    +0.210 HD
ENDBRANCH  31  35
BRANCH  32  37
ATOM     37  O   UNL     1       8.643  -2.460  -2.802  0.00  0.00    -0.386 OA
ATOM     38  H   UNL     1       9.437  -1.920  -2.979  0.00  0.00    +0.210 HD
ENDBRANCH  32  37
BRANCH  27  39
ATOM     39  C   UNL     1       6.679  -0.238  -2.362  0.00  0.00    +0.266 C 
BRANCH  39  40
ATOM     40  O   UNL     1       7.703  -0.280  -1.357  0.00  0.00    -0.459 OA
BRANCH  40  41
ATOM     41  C   UNL     1       8.562   0.770  -1.342  0.00  0.00    +0.335 C 
ATOM     42  O   UNL     1       8.504   1.726  -2.099  0.00  0.00    -0.245 OA
BRANCH  41  45
ATOM     43  C   UNL     1      11.713   1.489   0.768  0.00  0.00    +0.036 C 
ATOM     44  C   UNL     1      10.566   1.516  -0.191  0.00  0.00    -0.020 C 
ATOM     45  C   UNL     1       9.614   0.567  -0.300  0.00  0.00    +0.029 C 
ATOM     46  C   UNL     1       9.556  -0.676   0.541  0.00  0.00    +0.051 C 
ENDBRANCH  41  45
ENDBRANCH  40  41
ENDBRANCH  39  40
ENDBRANCH  27  39
ENDBRANCH  26  29
ENDBRANCH   1  26
TORSDOF 14
