REMARK  Name = 
REMARK  17 active torsions:
REMARK  status: ('A' for Active; 'I' for Inactive)
REMARK    1  A    between atoms: C_2  and  C_40
REMARK    2  A    between atoms: C_2  and  O_42
REMARK    3  A    between atoms: C_3  and  O_39
REMARK    4  A    between atoms: C_4  and  O_6
REMARK    5  A    between atoms: O_6  and  C_7
REMARK    6  A    between atoms: C_8  and  O_38
REMARK    7  A    between atoms: C_9  and  O_37
REMARK    8  A    between atoms: C_10  and  C_35
REMARK    9  A    between atoms: C_12  and  O_13
REMARK   10  A    between atoms: O_13  and  C_14
REMARK   11  A    between atoms: C_15  and  C_27
REMARK   12  A    between atoms: C_19  and  O_26
REMARK   13  A    between atoms: C_21  and  O_25
REMARK   14  A    between atoms: C_29  and  O_34
REMARK   15  A    between atoms: C_30  and  O_33
REMARK   16  A    between atoms: C_35  and  O_36
REMARK   17  A    between atoms: C_40  and  O_41
REMARK                            x       y       z     vdW  Elec       q    Type
REMARK                         _______ _______ _______ _____ _____    ______ ____
ROOT
ATOM      1  C   UNL     1       3.165  -0.110  -1.012  0.00  0.00    +0.221 C 
ATOM      2  C   UNL     1       4.296   0.946  -1.110  0.00  0.00    +0.340 C 
ATOM      3  O   UNL     1       4.287   1.613  -2.380  0.00  0.00    -0.331 OA
ATOM      4  C   UNL     1       4.292   0.782  -3.549  0.00  0.00    +0.179 C 
ATOM      5  C   UNL     1       3.275  -0.374  -3.503  0.00  0.00    +0.177 C 
ATOM      6  C   UNL     1       3.325  -1.116  -2.157  0.00  0.00    +0.180 C 
ENDROOT
BRANCH   6   7
ATOM      7  O   UNL     1       2.311  -2.131  -2.113  0.00  0.00    -0.386 OA
ATOM      8  H   UNL     1       2.336  -2.563  -1.242  0.00  0.00    +0.210 HD
ENDBRANCH   6   7
BRANCH   5   9
ATOM      9  O   UNL     1       3.473  -1.264  -4.607  0.00  0.00    -0.386 OA
ATOM     10  H   UNL     1       4.176  -1.898  -4.387  0.00  0.00    +0.210 HD
ENDBRANCH   5   9
BRANCH   4  11
ATOM     11  C   UNL     1       5.725   0.345  -3.883  0.00  0.00    +0.190 C 
BRANCH  11  12
ATOM     12  O   UNL     1       6.602   1.474  -3.908  0.00  0.00    -0.392 OA
ATOM     13  H   UNL     1       6.110   2.222  -3.517  0.00  0.00    +0.210 HD
ENDBRANCH  11  12
ENDBRANCH   4  11
BRANCH   2  14
ATOM     14  O   UNL     1       5.558   0.338  -0.795  0.00  0.00    -0.453 OA
BRANCH  14  15
ATOM     15  C   UNL     1       6.677   1.172  -0.726  0.00  0.00    +0.214 A 
ATOM     16  C   UNL     1       6.553   2.626  -0.354  0.00  0.00    +0.238 A 
ATOM     17  O   UNL     1       5.571   3.062   0.233  0.00  0.00    -0.283 OA
ATOM     18  C   UNL     1       7.701   3.497  -0.663  0.00  0.00    +0.109 A 
ATOM     19  C   UNL     1       8.926   2.872  -0.873  0.00  0.00    +0.147 A 
ATOM     20  C   UNL     1      10.090   3.629  -1.037  0.00  0.00    +0.092 A 
ATOM     21  C   UNL     1      10.008   5.018  -1.008  0.00  0.00    +0.124 A 
ATOM     22  C   UNL     1       8.784   5.660  -0.855  0.00  0.00    +0.091 A 
ATOM     23  O   UNL     1       9.063   1.511  -0.927  0.00  0.00    -0.451 OA
ATOM     24  C   UNL     1       7.627   4.898  -0.691  0.00  0.00    +0.135 A 
ATOM     25  C   UNL     1       7.922   0.718  -0.998  0.00  0.00    +0.181 A 
BRANCH  25  26
ATOM     26  C   UNL     1       8.233  -0.650  -1.519  0.00  0.00    +0.025 A 
ATOM     27  C   UNL     1       9.180  -0.773  -2.562  0.00  0.00    +0.015 A 
ATOM     28  C   UNL     1       9.430  -1.999  -3.188  0.00  0.00    +0.050 A 
ATOM     29  C   UNL     1       8.744  -3.122  -2.767  0.00  0.00    +0.158 A 
ATOM     30  C   UNL     1       7.846  -3.039  -1.708  0.00  0.00    +0.159 A 
ATOM     31  C   UNL     1       7.590  -1.819  -1.074  0.00  0.00    +0.060 A 
BRANCH  30  32
ATOM     32  O   UNL     1       7.213  -4.193  -1.336  0.00  0.00    -0.503 OA
ATOM     33  H   UNL     1       6.878  -4.076  -0.431  0.00  0.00    +0.292 HD
ENDBRANCH  30  32
BRANCH  29  34
ATOM     34  O   UNL     1       8.952  -4.307  -3.412  0.00  0.00    -0.503 OA
ATOM     35  H   UNL     1       8.329  -4.933  -2.993  0.00  0.00    +0.292 HD
ENDBRANCH  29  34
ENDBRANCH  25  26
BRANCH  24  36
ATOM     36  O   UNL     1       6.426   5.541  -0.590  0.00  0.00    -0.506 OA
ATOM     37  H   UNL     1       6.557   6.503  -0.613  0.00  0.00    +0.292 HD
ENDBRANCH  24  36
BRANCH  21  38
ATOM     38  O   UNL     1      11.117   5.802  -1.136  0.00  0.00    -0.507 OA
ATOM     39  H   UNL     1      11.904   5.236  -1.192  0.00  0.00    +0.292 HD
ENDBRANCH  21  38
ENDBRANCH  14  15
ENDBRANCH   2  14
BRANCH   1  40
ATOM     40  O   UNL     1       1.912   0.612  -1.050  0.00  0.00    -0.337 OA
BRANCH  40  43
ATOM     41  C   UNL     1      -1.167   0.560   0.463  0.00  0.00    +0.202 C 
ATOM     42  O   UNL     1      -0.400   0.791  -0.736  0.00  0.00    -0.346 OA
ATOM     43  C   UNL     1       0.726  -0.115  -0.751  0.00  0.00    +0.282 C 
ATOM     44  C   UNL     1       0.768  -0.756   0.646  0.00  0.00    +0.206 C 
ATOM     45  C   UNL     1      -0.706  -0.784   1.015  0.00  0.00    +0.142 C 
BRANCH  45  46
ATOM     46  O   UNL     1      -1.357  -1.876   0.328  0.00  0.00    -0.381 OA
ATOM     47  H   UNL     1      -1.557  -1.595  -0.586  0.00  0.00    +0.210 HD
ENDBRANCH  45  46
BRANCH  44  48
ATOM     48  O   UNL     1       1.515   0.073   1.553  0.00  0.00    -0.384 OA
ATOM     49  H   UNL     1       1.684   0.923   1.097  0.00  0.00    +0.210 HD
ENDBRANCH  44  48
BRANCH  45  50
ATOM     50  C   UNL     1      -0.978  -0.945   2.509  0.00  0.00    +0.195 C 
BRANCH  50  51
ATOM     51  O   UNL     1      -0.539  -2.232   2.954  0.00  0.00    -0.392 OA
ATOM     52  H   UNL     1      -0.942  -2.871   2.336  0.00  0.00    +0.210 HD
ENDBRANCH  50  51
ENDBRANCH  45  50
ENDBRANCH  40  43
ENDBRANCH   1  40
TORSDOF 17
