REMARK  Name = 
REMARK  10 active torsions:
REMARK  status: ('A' for Active; 'I' for Inactive)
REMARK    1  A    between atoms: C_1  and  C_2
REMARK    2  A    between atoms: C_2  and  C_3
REMARK    3  A    between atoms: C_2  and  C_4
REMARK    4  A    between atoms: C_4  and  O_6
REMARK    5  A    between atoms: O_6  and  C_7
REMARK    6  A    between atoms: C_8  and  O_27
REMARK    7  A    between atoms: C_11  and  C_13
REMARK    8  A    between atoms: C_14  and  O_26
REMARK    9  A    between atoms: C_18  and  O_25
REMARK   10  A    between atoms: C_20  and  O_24
REMARK                            x       y       z     vdW  Elec       q    Type
REMARK                         _______ _______ _______ _____ _____    ______ ____
ROOT
ATOM      1  C   UNL     1       7.025   1.346   5.453  0.00  0.00    +0.181 A 
ATOM      2  O   UNL     1       7.920   2.244   6.029  0.00  0.00    -0.451 OA
ATOM      3  C   UNL     1       8.780   1.796   7.000  0.00  0.00    +0.147 A 
ATOM      4  C   UNL     1       8.859   0.461   7.380  0.00  0.00    +0.109 A 
ATOM      5  C   UNL     1       9.776   0.060   8.359  0.00  0.00    +0.135 A 
ATOM      6  C   UNL     1      10.603   0.994   8.973  0.00  0.00    +0.091 A 
ATOM      7  C   UNL     1      10.506   2.330   8.598  0.00  0.00    +0.124 A 
ATOM      8  C   UNL     1       7.957  -0.500   6.746  0.00  0.00    +0.238 A 
ATOM      9  O   UNL     1       8.042  -1.692   7.029  0.00  0.00    -0.283 OA
ATOM     10  C   UNL     1       9.605   2.739   7.615  0.00  0.00    +0.092 A 
ATOM     11  C   UNL     1       6.955   0.036   5.787  0.00  0.00    +0.208 A 
ENDROOT
BRANCH   1  14
ATOM     12  C   UNL     1       4.910   1.782   2.332  0.00  0.00    +0.173 A 
ATOM     13  C   UNL     1       5.808   1.255   3.265  0.00  0.00    +0.061 A 
ATOM     14  C   UNL     1       6.167   1.972   4.414  0.00  0.00    +0.025 A 
ATOM     15  C   UNL     1       5.721   3.300   4.517  0.00  0.00    +0.015 A 
ATOM     16  C   UNL     1       4.897   3.864   3.529  0.00  0.00    +0.050 A 
ATOM     17  C   UNL     1       4.485   3.099   2.444  0.00  0.00    +0.159 A 
BRANCH  17  18
ATOM     18  O   UNL     1       3.689   3.686   1.506  0.00  0.00    -0.503 OA
ATOM     19  H   UNL     1       3.565   3.043   0.786  0.00  0.00    +0.292 HD
ENDBRANCH  17  18
BRANCH  12  20
ATOM     20  O   UNL     1       4.512   1.014   1.227  0.00  0.00    -0.422 OA
BRANCH  20  21
ATOM     21  C   UNL     1       4.184  -0.314   1.530  0.00  0.00    +0.315 C 
ATOM     22  O   UNL     1       3.791  -0.714   2.620  0.00  0.00    -0.250 OA
BRANCH  21  24
ATOM     23  C   UNL     1       5.827  -0.980  -0.233  0.00  0.00    +0.019 C 
ATOM     24  C   UNL     1       4.409  -1.186   0.302  0.00  0.00    +0.092 C 
ATOM     25  C   UNL     1       4.207  -2.665   0.636  0.00  0.00    +0.019 C 
ENDBRANCH  21  24
ENDBRANCH  20  21
ENDBRANCH  12  20
ENDBRANCH   1  14
BRANCH   5  26
ATOM     26  O   UNL     1       9.914  -1.241   8.765  0.00  0.00    -0.506 OA
ATOM     27  H   UNL     1       9.280  -1.791   8.248  0.00  0.00    +0.292 HD
ENDBRANCH   5  26
BRANCH   7  28
ATOM     28  O   UNL     1      11.291   3.280   9.182  0.00  0.00    -0.507 OA
ATOM     29  H   UNL     1      11.860   2.852   9.845  0.00  0.00    +0.292 HD
ENDBRANCH   7  28
BRANCH  11  30
ATOM     30  O   UNL     1       6.032  -0.876   5.307  0.00  0.00    -0.501 OA
ATOM     31  H   UNL     1       5.236  -0.416   4.986  0.00  0.00    +0.292 HD
ENDBRANCH  11  30
TORSDOF 8
