REMARK  Name = 
REMARK  22 active torsions:
REMARK  status: ('A' for Active; 'I' for Inactive)
REMARK    1  A    between atoms: C_1  and  C_2
REMARK    2  A    between atoms: C_3  and  O_60
REMARK    3  A    between atoms: C_5  and  O_59
REMARK    4  A    between atoms: C_6  and  O_58
REMARK    5  A    between atoms: C_8  and  O_11
REMARK    6  A    between atoms: O_11  and  C_12
REMARK    7  A    between atoms: C_12  and  C_13
REMARK    8  A    between atoms: C_14  and  O_57
REMARK    9  A    between atoms: C_16  and  O_56
REMARK   10  A    between atoms: C_18  and  O_55
REMARK   11  A    between atoms: C_19  and  O_22
REMARK   12  A    between atoms: O_22  and  C_23
REMARK   13  A    between atoms: C_24  and  C_36
REMARK   14  A    between atoms: C_28  and  O_35
REMARK   15  A    between atoms: C_30  and  O_34
REMARK   16  A    between atoms: C_38  and  O_43
REMARK   17  A    between atoms: C_39  and  O_42
REMARK   18  A    between atoms: O_43  and  C_44
REMARK   19  A    between atoms: C_46  and  O_54
REMARK   20  A    between atoms: C_48  and  C_51
REMARK   21  A    between atoms: C_48  and  O_53
REMARK   22  A    between atoms: C_51  and  O_52
REMARK                            x       y       z     vdW  Elec       q    Type
REMARK                         _______ _______ _______ _____ _____    ______ ____
ROOT
ATOM      1  C   UNL     1       4.338   7.073  -0.990  0.00  0.00    +0.214 A 
ATOM      2  C   UNL     1       4.364   7.990   0.237  0.00  0.00    +0.238 A 
ATOM      3  O   UNL     1       3.660   8.995   0.252  0.00  0.00    -0.283 OA
ATOM      4  C   UNL     1       5.280   7.660   1.431  0.00  0.00    +0.109 A 
ATOM      5  C   UNL     1       5.869   6.419   1.400  0.00  0.00    +0.147 A 
ATOM      6  C   UNL     1       6.825   6.054   2.373  0.00  0.00    +0.092 A 
ATOM      7  C   UNL     1       7.322   7.008   3.258  0.00  0.00    +0.124 A 
ATOM      8  C   UNL     1       6.781   8.268   3.274  0.00  0.00    +0.091 A 
ATOM      9  O   UNL     1       5.497   5.476   0.485  0.00  0.00    -0.451 OA
ATOM     10  C   UNL     1       5.663   8.518   2.474  0.00  0.00    +0.135 A 
ATOM     11  C   UNL     1       4.662   5.823  -0.588  0.00  0.00    +0.181 A 
ENDROOT
BRANCH  11  12
ATOM     12  C   UNL     1       3.908   4.625  -0.960  0.00  0.00    +0.025 A 
ATOM     13  C   UNL     1       2.693   4.449  -0.234  0.00  0.00    +0.015 A 
ATOM     14  C   UNL     1       2.106   3.189  -0.122  0.00  0.00    +0.050 A 
ATOM     15  C   UNL     1       2.637   2.122  -0.837  0.00  0.00    +0.159 A 
ATOM     16  C   UNL     1       3.765   2.296  -1.647  0.00  0.00    +0.166 A 
ATOM     17  C   UNL     1       4.451   3.526  -1.637  0.00  0.00    +0.061 A 
BRANCH  15  18
ATOM     18  O   UNL     1       1.993   0.917  -0.760  0.00  0.00    -0.503 OA
ATOM     19  H   UNL     1       1.073   1.083  -0.489  0.00  0.00    +0.292 HD
ENDBRANCH  15  18
BRANCH  16  20
ATOM     20  O   UNL     1       4.269   1.374  -2.527  0.00  0.00    -0.457 OA
BRANCH  20  21
ATOM     21  C   UNL     1       3.295   0.549  -3.177  0.00  0.00    +0.339 C 
ATOM     22  O   UNL     1       3.916  -0.223  -4.232  0.00  0.00    -0.337 OA
ATOM     23  C   UNL     1       3.031  -0.229  -5.380  0.00  0.00    +0.204 C 
ATOM     24  C   UNL     1       1.686   0.337  -4.908  0.00  0.00    +0.144 C 
ATOM     25  C   UNL     1       2.161   1.340  -3.868  0.00  0.00    +0.219 C 
BRANCH  25  26
ATOM     26  O   UNL     1       2.628   2.543  -4.506  0.00  0.00    -0.383 OA
ATOM     27  H   UNL     1       3.570   2.645  -4.264  0.00  0.00    +0.210 HD
ENDBRANCH  25  26
BRANCH  24  28
ATOM     28  O   UNL     1       0.905  -0.689  -4.259  0.00  0.00    -0.381 OA
ATOM     29  H   UNL     1       1.507  -1.325  -3.831  0.00  0.00    +0.210 HD
ENDBRANCH  24  28
BRANCH  24  30
ATOM     30  C   UNL     1       0.849   0.934  -6.032  0.00  0.00    +0.195 C 
BRANCH  30  31
ATOM     31  O   UNL     1       1.520   1.912  -6.776  0.00  0.00    -0.392 OA
ATOM     32  H   UNL     1       1.887   2.588  -6.130  0.00  0.00    +0.210 HD
ENDBRANCH  30  31
ENDBRANCH  24  30
ENDBRANCH  20  21
ENDBRANCH  16  20
ENDBRANCH  11  12
BRANCH  10  33
ATOM     33  O   UNL     1       5.018   9.680   2.818  0.00  0.00    -0.506 OA
ATOM     34  H   UNL     1       5.479  10.361   2.273  0.00  0.00    +0.292 HD
ENDBRANCH  10  33
BRANCH   7  35
ATOM     35  O   UNL     1       8.302   6.744   4.165  0.00  0.00    -0.507 OA
ATOM     36  H   UNL     1       8.343   5.788   4.317  0.00  0.00    +0.292 HD
ENDBRANCH   7  35
BRANCH   1  37
ATOM     37  O   UNL     1       3.517   7.355  -2.125  0.00  0.00    -0.453 OA
BRANCH  37  40
ATOM     38  C   UNL     1       3.425  10.794  -3.812  0.00  0.00    +0.179 C 
ATOM     39  O   UNL     1       3.277   9.673  -2.879  0.00  0.00    -0.331 OA
ATOM     40  C   UNL     1       3.897   8.381  -3.155  0.00  0.00    +0.340 C 
ATOM     41  C   UNL     1       3.437   7.930  -4.608  0.00  0.00    +0.214 C 
ATOM     42  C   UNL     1       3.725   9.075  -5.613  0.00  0.00    +0.180 C 
ATOM     43  C   UNL     1       2.947  10.338  -5.211  0.00  0.00    +0.177 C 
BRANCH  43  44
ATOM     44  O   UNL     1       3.123  11.334  -6.235  0.00  0.00    -0.386 OA
ATOM     45  H   UNL     1       2.551  12.094  -6.014  0.00  0.00    +0.210 HD
ENDBRANCH  43  44
BRANCH  42  46
ATOM     46  O   UNL     1       3.382   8.764  -6.974  0.00  0.00    -0.386 OA
ATOM     47  H   UNL     1       3.339   9.633  -7.429  0.00  0.00    +0.210 HD
ENDBRANCH  42  46
BRANCH  41  48
ATOM     48  O   UNL     1       2.033   7.611  -4.663  0.00  0.00    -0.383 OA
ATOM     49  H   UNL     1       1.597   8.028  -3.901  0.00  0.00    +0.210 HD
ENDBRANCH  41  48
BRANCH  38  50
ATOM     50  C   UNL     1       4.793  11.621  -4.000  0.00  0.00    +0.197 C 
BRANCH  50  51
ATOM     51  O   UNL     1       5.276  12.610  -3.080  0.00  0.00    -0.346 OA
BRANCH  51  55
ATOM     52  C   UNL     1       9.344  11.810  -1.163  0.00  0.00    +0.041 C 
ATOM     53  C   UNL     1       8.346  10.844  -1.801  0.00  0.00    +0.149 C 
ATOM     54  O   UNL     1       7.412  11.456  -2.738  0.00  0.00    -0.343 OA
ATOM     55  C   UNL     1       6.355  12.258  -2.188  0.00  0.00    +0.282 C 
ATOM     56  C   UNL     1       5.655  11.617  -1.033  0.00  0.00    +0.201 C 
ATOM     57  C   UNL     1       6.651  11.101  -0.049  0.00  0.00    +0.179 C 
ATOM     58  C   UNL     1       7.624  10.091  -0.680  0.00  0.00    +0.174 C 
BRANCH  58  59
ATOM     59  O   UNL     1       6.996   8.927  -1.240  0.00  0.00    -0.387 OA
ATOM     60  H   UNL     1       6.422   9.272  -1.955  0.00  0.00    +0.210 HD
ENDBRANCH  58  59
BRANCH  57  61
ATOM     61  O   UNL     1       5.818  10.481   0.880  0.00  0.00    -0.386 OA
ATOM     62  H   UNL     1       5.189   9.977   0.312  0.00  0.00    +0.210 HD
ENDBRANCH  57  61
BRANCH  56  63
ATOM     63  O   UNL     1       4.975  10.449  -1.487  0.00  0.00    -0.384 OA
ATOM     64  H   UNL     1       4.040  10.457  -1.173  0.00  0.00    +0.210 HD
ENDBRANCH  56  63
ENDBRANCH  51  55
ENDBRANCH  50  51
ENDBRANCH  38  50
ENDBRANCH  37  40
ENDBRANCH   1  37
TORSDOF 21
