REMARK  Name = 
REMARK  17 active torsions:
REMARK  status: ('A' for Active; 'I' for Inactive)
REMARK    1  A    between atoms: C_3  and  O_47
REMARK    2  A    between atoms: C_4  and  O_46
REMARK    3  A    between atoms: C_6  and  C_7
REMARK    4  A    between atoms: C_8  and  O_45
REMARK    5  A    between atoms: C_12  and  O_44
REMARK    6  A    between atoms: C_14  and  O_18
REMARK    7  A    between atoms: O_18  and  C_19
REMARK    8  A    between atoms: C_21  and  O_43
REMARK    9  A    between atoms: C_22  and  O_42
REMARK   10  A    between atoms: C_24  and  O_41
REMARK   11  A    between atoms: C_26  and  C_28
REMARK   12  A    between atoms: C_28  and  O_29
REMARK   13  A    between atoms: O_29  and  C_30
REMARK   14  A    between atoms: C_30  and  C_32
REMARK   15  A    between atoms: C_34  and  O_40
REMARK   16  A    between atoms: C_35  and  O_39
REMARK   17  A    between atoms: C_36  and  O_38
REMARK                            x       y       z     vdW  Elec       q    Type
REMARK                         _______ _______ _______ _____ _____    ______ ____
ROOT
ATOM      1  C   UNL     1      -1.358  -9.794  -0.091  0.00  0.00    +0.339 C 
ATOM      2  O   UNL     1      -1.811 -10.006   1.248  0.00  0.00    -0.330 OA
ATOM      3  C   UNL     1      -0.919 -10.711   2.114  0.00  0.00    +0.191 C 
ATOM      4  C   UNL     1      -0.795 -12.146   1.596  0.00  0.00    +0.178 C 
ATOM      5  C   UNL     1      -0.147 -12.098   0.206  0.00  0.00    +0.180 C 
ATOM      6  C   UNL     1      -0.857 -11.115  -0.741  0.00  0.00    +0.214 C 
ENDROOT
BRANCH   6   7
ATOM      7  O   UNL     1      -0.093 -10.907  -1.932  0.00  0.00    -0.383 OA
ATOM      8  H   UNL     1       0.818 -11.202  -1.736  0.00  0.00    +0.210 HD
ENDBRANCH   6   7
BRANCH   5   9
ATOM      9  O   UNL     1       1.254 -11.807   0.273  0.00  0.00    -0.386 OA
ATOM     10  H   UNL     1       1.381 -10.886   0.571  0.00  0.00    +0.210 HD
ENDBRANCH   5   9
BRANCH   4  11
ATOM     11  O   UNL     1      -2.102 -12.733   1.515  0.00  0.00    -0.386 OA
ATOM     12  H   UNL     1      -2.020 -13.642   1.179  0.00  0.00    +0.210 HD
ENDBRANCH   4  11
BRANCH   3  13
ATOM     13  C   UNL     1      -1.523 -10.656   3.526  0.00  0.00    +0.266 C 
BRANCH  13  14
ATOM     14  O   UNL     1      -1.506  -9.302   4.026  0.00  0.00    -0.458 OA
BRANCH  14  15
ATOM     15  C   UNL     1      -0.323  -8.887   4.545  0.00  0.00    +0.340 C 
ATOM     16  O   UNL     1       0.694  -9.558   4.624  0.00  0.00    -0.245 OA
BRANCH  15  17
ATOM     17  C   UNL     1      -0.441  -7.500   5.051  0.00  0.00    +0.066 A 
ATOM     18  C   UNL     1       0.402  -7.112   6.103  0.00  0.00    +0.064 A 
ATOM     19  C   UNL     1       0.313  -5.818   6.597  0.00  0.00    +0.163 A 
ATOM     20  C   UNL     1      -0.585  -4.911   6.048  0.00  0.00    +0.201 A 
ATOM     21  C   UNL     1      -1.411  -5.292   4.995  0.00  0.00    +0.163 A 
ATOM     22  C   UNL     1      -1.351  -6.587   4.489  0.00  0.00    +0.064 A 
BRANCH  21  23
ATOM     23  O   UNL     1      -2.273  -4.359   4.492  0.00  0.00    -0.503 OA
ATOM     24  H   UNL     1      -2.820  -4.780   3.804  0.00  0.00    +0.292 HD
ENDBRANCH  21  23
BRANCH  20  25
ATOM     25  O   UNL     1      -0.646  -3.645   6.561  0.00  0.00    -0.501 OA
ATOM     26  H   UNL     1      -1.339  -3.203   6.029  0.00  0.00    +0.292 HD
ENDBRANCH  20  25
BRANCH  19  27
ATOM     27  O   UNL     1       1.116  -5.441   7.635  0.00  0.00    -0.503 OA
ATOM     28  H   UNL     1       0.872  -4.511   7.814  0.00  0.00    +0.292 HD
ENDBRANCH  19  27
ENDBRANCH  15  17
ENDBRANCH  14  15
ENDBRANCH  13  14
ENDBRANCH   3  13
BRANCH   1  29
ATOM     29  O   UNL     1      -0.482  -8.631  -0.203  0.00  0.00    -0.461 OA
BRANCH  29  36
ATOM     30  C   UNL     1      -1.825  -2.819  -1.573  0.00  0.00    +0.181 A 
ATOM     31  O   UNL     1      -0.997  -3.959  -1.480  0.00  0.00    -0.451 OA
ATOM     32  C   UNL     1      -1.465  -5.081  -0.810  0.00  0.00    +0.147 A 
ATOM     33  C   UNL     1      -2.691  -5.057  -0.145  0.00  0.00    +0.109 A 
ATOM     34  C   UNL     1      -3.124  -6.157   0.579  0.00  0.00    +0.135 A 
ATOM     35  C   UNL     1      -2.365  -7.309   0.612  0.00  0.00    +0.092 A 
ATOM     36  C   UNL     1      -1.179  -7.425  -0.123  0.00  0.00    +0.131 A 
ATOM     37  C   UNL     1      -3.549  -3.889  -0.240  0.00  0.00    +0.238 A 
ATOM     38  O   UNL     1      -4.645  -3.881   0.318  0.00  0.00    -0.283 OA
ATOM     39  C   UNL     1      -0.704  -6.280  -0.803  0.00  0.00    +0.093 A 
ATOM     40  C   UNL     1      -3.075  -2.764  -1.058  0.00  0.00    +0.208 A 
BRANCH  30  42
ATOM     41  C   UNL     1      -1.610  -0.328  -2.034  0.00  0.00    +0.015 A 
ATOM     42  C   UNL     1      -1.256  -1.666  -2.339  0.00  0.00    +0.025 A 
ATOM     43  C   UNL     1      -0.383  -1.871  -3.416  0.00  0.00    +0.060 A 
ATOM     44  C   UNL     1       0.018  -0.789  -4.201  0.00  0.00    +0.159 A 
ATOM     45  C   UNL     1      -0.431   0.503  -3.947  0.00  0.00    +0.158 A 
ATOM     46  C   UNL     1      -1.238   0.749  -2.850  0.00  0.00    +0.050 A 
BRANCH  45  47
ATOM     47  O   UNL     1      -0.057   1.499  -4.804  0.00  0.00    -0.503 OA
ATOM     48  H   UNL     1      -0.541   2.307  -4.568  0.00  0.00    +0.292 HD
ENDBRANCH  45  47
BRANCH  44  49
ATOM     49  O   UNL     1       0.852  -1.010  -5.263  0.00  0.00    -0.503 OA
ATOM     50  H   UNL     1       0.997  -0.127  -5.653  0.00  0.00    +0.292 HD
ENDBRANCH  44  49
ENDBRANCH  30  42
BRANCH  40  51
ATOM     51  O   UNL     1      -3.988  -1.742  -1.241  0.00  0.00    -0.501 OA
ATOM     52  H   UNL     1      -3.859  -1.376  -2.137  0.00  0.00    +0.292 HD
ENDBRANCH  40  51
BRANCH  34  53
ATOM     53  O   UNL     1      -4.302  -6.199   1.273  0.00  0.00    -0.506 OA
ATOM     54  H   UNL     1      -4.827  -5.402   1.030  0.00  0.00    +0.292 HD
ENDBRANCH  34  53
ENDBRANCH  29  36
ENDBRANCH   1  29
TORSDOF 17
