REMARK  Name = 
REMARK  16 active torsions:
REMARK  status: ('A' for Active; 'I' for Inactive)
REMARK    1  A    between atoms: C_3  and  O_42
REMARK    2  A    between atoms: C_4  and  O_41
REMARK    3  A    between atoms: C_6  and  C_7
REMARK    4  A    between atoms: C_8  and  O_20
REMARK    5  A    between atoms: C_12  and  O_19
REMARK    6  A    between atoms: C_14  and  O_18
REMARK    7  A    between atoms: O_20  and  C_21
REMARK    8  A    between atoms: C_23  and  O_40
REMARK    9  A    between atoms: C_24  and  O_39
REMARK   10  A    between atoms: C_25  and  O_38
REMARK   11  A    between atoms: C_27  and  C_30
REMARK   12  A    between atoms: C_30  and  O_31
REMARK   13  A    between atoms: O_31  and  C_32
REMARK   14  A    between atoms: C_32  and  C_34
REMARK   15  A    between atoms: C_34  and  C_35
REMARK   16  A    between atoms: C_35  and  O_37
REMARK                            x       y       z     vdW  Elec       q    Type
REMARK                         _______ _______ _______ _____ _____    ______ ____
ROOT
ATOM      1  C   UNL     1      -1.215  -2.748   0.276  0.00  0.00    +0.181 A 
ATOM      2  O   UNL     1      -0.560  -3.975   0.429  0.00  0.00    -0.451 OA
ATOM      3  C   UNL     1      -1.238  -5.151   0.318  0.00  0.00    +0.147 A 
ATOM      4  C   UNL     1      -2.604  -5.206   0.131  0.00  0.00    +0.109 A 
ATOM      5  C   UNL     1      -3.214  -6.462  -0.012  0.00  0.00    +0.135 A 
ATOM      6  C   UNL     1      -2.462  -7.642   0.034  0.00  0.00    +0.091 A 
ATOM      7  C   UNL     1      -1.092  -7.563   0.239  0.00  0.00    +0.124 A 
ATOM      8  C   UNL     1      -3.341  -3.929   0.092  0.00  0.00    +0.238 A 
ATOM      9  O   UNL     1      -4.570  -3.949   0.036  0.00  0.00    -0.283 OA
ATOM     10  C   UNL     1      -0.471  -6.329   0.385  0.00  0.00    +0.092 A 
ATOM     11  C   UNL     1      -2.559  -2.640   0.097  0.00  0.00    +0.214 A 
ENDROOT
BRANCH   1  13
ATOM     12  C   UNL     1      -0.558  -0.269   0.238  0.00  0.00    +0.015 A 
ATOM     13  C   UNL     1      -0.216  -1.628   0.230  0.00  0.00    +0.025 A 
ATOM     14  C   UNL     1       1.146  -1.931   0.036  0.00  0.00    +0.060 A 
ATOM     15  C   UNL     1       2.043  -0.942  -0.347  0.00  0.00    +0.159 A 
ATOM     16  C   UNL     1       1.613   0.357  -0.565  0.00  0.00    +0.158 A 
ATOM     17  C   UNL     1       0.321   0.715  -0.230  0.00  0.00    +0.050 A 
BRANCH  16  18
ATOM     18  O   UNL     1       2.491   1.244  -1.115  0.00  0.00    -0.503 OA
ATOM     19  H   UNL     1       1.974   1.988  -1.472  0.00  0.00    +0.292 HD
ENDBRANCH  16  18
BRANCH  15  20
ATOM     20  O   UNL     1       3.350  -1.274  -0.561  0.00  0.00    -0.503 OA
ATOM     21  H   UNL     1       3.782  -0.428  -0.796  0.00  0.00    +0.292 HD
ENDBRANCH  15  20
ENDBRANCH   1  13
BRANCH   7  22
ATOM     22  O   UNL     1      -0.311  -8.679   0.303  0.00  0.00    -0.507 OA
ATOM     23  H   UNL     1      -0.878  -9.466   0.216  0.00  0.00    +0.292 HD
ENDBRANCH   7  22
BRANCH   5  24
ATOM     24  O   UNL     1      -4.558  -6.619  -0.212  0.00  0.00    -0.506 OA
ATOM     25  H   UNL     1      -4.979  -5.734  -0.191  0.00  0.00    +0.292 HD
ENDBRANCH   5  24
BRANCH  11  26
ATOM     26  O   UNL     1      -3.290  -1.456   0.129  0.00  0.00    -0.453 OA
BRANCH  26  27
ATOM     27  C   UNL     1      -3.398  -0.623  -1.045  0.00  0.00    +0.340 C 
ATOM     28  O   UNL     1      -3.471   0.777  -0.686  0.00  0.00    -0.330 OA
ATOM     29  C   UNL     1      -4.629   1.195   0.071  0.00  0.00    +0.191 C 
ATOM     30  C   UNL     1      -5.973   0.625  -0.456  0.00  0.00    +0.178 C 
ATOM     31  C   UNL     1      -5.859  -0.825  -0.970  0.00  0.00    +0.180 C 
ATOM     32  C   UNL     1      -4.639  -0.914  -1.902  0.00  0.00    +0.214 C 
BRANCH  32  33
ATOM     33  O   UNL     1      -4.565  -2.153  -2.600  0.00  0.00    -0.383 OA
ATOM     34  H   UNL     1      -3.643  -2.457  -2.618  0.00  0.00    +0.210 HD
ENDBRANCH  32  33
BRANCH  31  35
ATOM     35  O   UNL     1      -7.073  -1.220  -1.619  0.00  0.00    -0.386 OA
ATOM     36  H   UNL     1      -7.261  -0.607  -2.346  0.00  0.00    +0.210 HD
ENDBRANCH  31  35
BRANCH  30  37
ATOM     37  O   UNL     1      -7.040   0.770   0.482  0.00  0.00    -0.386 OA
ATOM     38  H   UNL     1      -6.943   0.078   1.162  0.00  0.00    +0.210 HD
ENDBRANCH  30  37
BRANCH  29  39
ATOM     39  C   UNL     1      -4.361   1.016   1.575  0.00  0.00    +0.266 C 
BRANCH  39  40
ATOM     40  O   UNL     1      -5.327   1.657   2.422  0.00  0.00    -0.462 OA
BRANCH  40  41
ATOM     41  C   UNL     1      -5.123   2.982   2.653  0.00  0.00    +0.318 C 
ATOM     42  O   UNL     1      -4.316   3.688   2.062  0.00  0.00    -0.250 OA
BRANCH  41  43
ATOM     43  C   UNL     1      -6.046   3.481   3.725  0.00  0.00    +0.240 C 
BRANCH  43  44
ATOM     44  C   UNL     1      -5.724   2.901   5.069  0.00  0.00    +0.316 C 
ATOM     45  O   UNL     1      -4.805   2.135   5.310  0.00  0.00    -0.250 OA
BRANCH  44  46
ATOM     46  O   UNL     1      -6.567   3.327   6.041  0.00  0.00    -0.480 OA
ATOM     47  H   UNL     1      -7.260   3.946   5.744  0.00  0.00    +0.295 HD
ENDBRANCH  44  46
ENDBRANCH  43  44
ENDBRANCH  41  43
ENDBRANCH  40  41
ENDBRANCH  39  40
ENDBRANCH  29  39
ENDBRANCH  26  27
ENDBRANCH  11  26
TORSDOF 16
