REMARK  Name = 
REMARK  18 active torsions:
REMARK  status: ('A' for Active; 'I' for Inactive)
REMARK    1  A    between atoms: C_1  and  C_2
REMARK    2  A    between atoms: C_3  and  O_50
REMARK    3  A    between atoms: C_5  and  O_49
REMARK    4  A    between atoms: C_6  and  O_48
REMARK    5  A    between atoms: C_8  and  O_11
REMARK    6  A    between atoms: O_11  and  C_12
REMARK    7  A    between atoms: C_13  and  O_47
REMARK    8  A    between atoms: C_15  and  O_46
REMARK    9  A    between atoms: C_17  and  C_44
REMARK   10  A    between atoms: C_19  and  O_21
REMARK   11  A    between atoms: O_21  and  C_22
REMARK   12  A    between atoms: C_23  and  C_35
REMARK   13  A    between atoms: C_27  and  O_34
REMARK   14  A    between atoms: C_29  and  O_33
REMARK   15  A    between atoms: C_37  and  O_43
REMARK   16  A    between atoms: C_38  and  O_41
REMARK   17  A    between atoms: O_41  and  C_42
REMARK   18  A    between atoms: C_44  and  O_45
REMARK                            x       y       z     vdW  Elec       q    Type
REMARK                         _______ _______ _______ _____ _____    ______ ____
ROOT
ATOM      1  C   UNL     1       2.616   2.660  -3.159  0.00  0.00    +0.221 C 
ATOM      2  C   UNL     1       1.542   2.049  -4.124  0.00  0.00    +0.340 C 
ATOM      3  O   UNL     1       2.084   1.898  -5.448  0.00  0.00    -0.331 OA
ATOM      4  C   UNL     1       2.385   3.170  -6.070  0.00  0.00    +0.179 C 
ATOM      5  C   UNL     1       3.389   3.971  -5.218  0.00  0.00    +0.177 C 
ATOM      6  C   UNL     1       2.948   4.061  -3.747  0.00  0.00    +0.180 C 
ENDROOT
BRANCH   6   7
ATOM      7  O   UNL     1       3.943   4.814  -3.029  0.00  0.00    -0.386 OA
ATOM      8  H   UNL     1       3.571   5.041  -2.159  0.00  0.00    +0.210 HD
ENDBRANCH   6   7
BRANCH   5   9
ATOM      9  O   UNL     1       3.554   5.302  -5.729  0.00  0.00    -0.386 OA
ATOM     10  H   UNL     1       4.102   5.767  -5.064  0.00  0.00    +0.210 HD
ENDBRANCH   5   9
BRANCH   4  11
ATOM     11  C   UNL     1       1.116   3.991  -6.429  0.00  0.00    +0.190 C 
BRANCH  11  12
ATOM     12  O   UNL     1       0.197   3.226  -7.207  0.00  0.00    -0.392 OA
ATOM     13  H   UNL     1       0.608   3.082  -8.078  0.00  0.00    +0.210 HD
ENDBRANCH  11  12
ENDBRANCH   4  11
BRANCH   2  14
ATOM     14  O   UNL     1       0.936   0.826  -3.629  0.00  0.00    -0.453 OA
BRANCH  14  15
ATOM     15  C   UNL     1      -0.412   0.972  -3.282  0.00  0.00    +0.214 A 
ATOM     16  C   UNL     1      -0.902   2.281  -2.711  0.00  0.00    +0.238 A 
ATOM     17  O   UNL     1      -0.157   3.046  -2.115  0.00  0.00    -0.283 OA
ATOM     18  C   UNL     1      -2.318   2.604  -2.915  0.00  0.00    +0.109 A 
ATOM     19  C   UNL     1      -3.173   1.522  -3.047  0.00  0.00    +0.147 A 
ATOM     20  C   UNL     1      -4.548   1.713  -3.162  0.00  0.00    +0.092 A 
ATOM     21  C   UNL     1      -5.050   3.011  -3.172  0.00  0.00    +0.124 A 
ATOM     22  C   UNL     1      -4.203   4.109  -3.080  0.00  0.00    +0.091 A 
ATOM     23  O   UNL     1      -2.702   0.236  -3.043  0.00  0.00    -0.451 OA
ATOM     24  C   UNL     1      -2.829   3.907  -2.957  0.00  0.00    +0.135 A 
ATOM     25  C   UNL     1      -1.362   0.002  -3.374  0.00  0.00    +0.181 A 
BRANCH  25  26
ATOM     26  C   UNL     1      -1.193  -1.435  -3.773  0.00  0.00    +0.025 A 
ATOM     27  C   UNL     1      -2.308  -2.104  -4.326  0.00  0.00    +0.015 A 
ATOM     28  C   UNL     1      -2.326  -3.493  -4.508  0.00  0.00    +0.050 A 
ATOM     29  C   UNL     1      -1.222  -4.264  -4.164  0.00  0.00    +0.161 A 
ATOM     30  C   UNL     1      -0.076  -3.607  -3.707  0.00  0.00    +0.159 A 
ATOM     31  C   UNL     1      -0.062  -2.211  -3.501  0.00  0.00    +0.060 A 
BRANCH  29  32
ATOM     32  O   UNL     1      -1.408  -5.607  -4.364  0.00  0.00    -0.491 OA
ATOM     33  C   UNL     1      -0.591  -6.497  -3.613  0.00  0.00    +0.277 C 
ENDBRANCH  29  32
BRANCH  30  34
ATOM     34  O   UNL     1       1.073  -4.308  -3.467  0.00  0.00    -0.503 OA
ATOM     35  H   UNL     1       1.821  -3.724  -3.689  0.00  0.00    +0.292 HD
ENDBRANCH  30  34
ENDBRANCH  25  26
BRANCH  24  36
ATOM     36  O   UNL     1      -1.992   4.985  -2.914  0.00  0.00    -0.506 OA
ATOM     37  H   UNL     1      -2.515   5.802  -2.964  0.00  0.00    +0.292 HD
ENDBRANCH  24  36
BRANCH  21  38
ATOM     38  O   UNL     1      -6.388   3.253  -3.279  0.00  0.00    -0.507 OA
ATOM     39  H   UNL     1      -6.866   2.409  -3.324  0.00  0.00    +0.292 HD
ENDBRANCH  21  38
ENDBRANCH  14  15
ENDBRANCH   2  14
BRANCH   1  40
ATOM     40  O   UNL     1       3.771   1.801  -2.975  0.00  0.00    -0.337 OA
BRANCH  40  44
ATOM     41  C   UNL     1       7.606   3.132  -1.758  0.00  0.00    +0.041 C 
ATOM     42  C   UNL     1       6.936   1.926  -1.089  0.00  0.00    +0.149 C 
ATOM     43  O   UNL     1       5.856   1.388  -1.888  0.00  0.00    -0.343 OA
ATOM     44  C   UNL     1       4.724   2.273  -1.999  0.00  0.00    +0.282 C 
ATOM     45  C   UNL     1       4.125   2.535  -0.590  0.00  0.00    +0.201 C 
ATOM     46  C   UNL     1       5.203   3.123   0.324  0.00  0.00    +0.179 C 
ATOM     47  C   UNL     1       6.460   2.245   0.340  0.00  0.00    +0.174 C 
BRANCH  47  48
ATOM     48  O   UNL     1       6.147   1.029   1.040  0.00  0.00    -0.387 OA
ATOM     49  H   UNL     1       5.492   0.553   0.480  0.00  0.00    +0.210 HD
ENDBRANCH  47  48
BRANCH  46  50
ATOM     50  O   UNL     1       4.675   3.249   1.652  0.00  0.00    -0.386 OA
ATOM     51  H   UNL     1       4.921   2.421   2.107  0.00  0.00    +0.210 HD
ENDBRANCH  46  50
BRANCH  45  52
ATOM     52  O   UNL     1       3.611   1.321  -0.008  0.00  0.00    -0.384 OA
ATOM     53  H   UNL     1       3.105   1.598   0.780  0.00  0.00    +0.210 HD
ENDBRANCH  45  52
ENDBRANCH  40  44
ENDBRANCH   1  40
TORSDOF 16
