REMARK  Name = 
REMARK  17 active torsions:
REMARK  status: ('A' for Active; 'I' for Inactive)
REMARK    1  A    between atoms: C_1  and  C_2
REMARK    2  A    between atoms: C_3  and  O_48
REMARK    3  A    between atoms: C_5  and  O_47
REMARK    4  A    between atoms: C_6  and  O_46
REMARK    5  A    between atoms: C_8  and  O_11
REMARK    6  A    between atoms: O_11  and  C_12
REMARK    7  A    between atoms: C_13  and  O_24
REMARK    8  A    between atoms: C_16  and  C_22
REMARK    9  A    between atoms: C_17  and  O_21
REMARK   10  A    between atoms: C_19  and  O_20
REMARK   11  A    between atoms: C_22  and  O_23
REMARK   12  A    between atoms: O_24  and  C_25
REMARK   13  A    between atoms: C_26  and  C_38
REMARK   14  A    between atoms: C_30  and  O_37
REMARK   15  A    between atoms: C_32  and  O_36
REMARK   16  A    between atoms: C_40  and  O_45
REMARK   17  A    between atoms: C_41  and  O_44
REMARK                            x       y       z     vdW  Elec       q    Type
REMARK                         _______ _______ _______ _____ _____    ______ ____
ROOT
ATOM      1  C   UNL     1       2.071   2.737  -3.300  0.00  0.00    +0.221 C 
ATOM      2  C   UNL     1       0.983   2.173  -4.230  0.00  0.00    +0.180 C 
ATOM      3  C   UNL     1       1.406   2.305  -5.701  0.00  0.00    +0.177 C 
ATOM      4  C   UNL     1       1.782   3.743  -6.061  0.00  0.00    +0.179 C 
ATOM      5  O   UNL     1       2.825   4.226  -5.208  0.00  0.00    -0.331 OA
ATOM      6  C   UNL     1       2.607   4.110  -3.800  0.00  0.00    +0.340 C 
ENDROOT
BRANCH   3   7
ATOM      7  O   UNL     1       0.402   1.799  -6.579  0.00  0.00    -0.386 OA
ATOM      8  H   UNL     1       0.806   1.686  -7.457  0.00  0.00    +0.210 HD
ENDBRANCH   3   7
BRANCH   2   9
ATOM      9  O   UNL     1      -0.295   2.778  -3.984  0.00  0.00    -0.386 OA
ATOM     10  H   UNL     1      -0.190   3.664  -3.602  0.00  0.00    +0.210 HD
ENDBRANCH   2   9
BRANCH   6  11
ATOM     11  O   UNL     1       1.819   5.179  -3.267  0.00  0.00    -0.453 OA
BRANCH  11  12
ATOM     12  C   UNL     1       2.294   6.480  -3.471  0.00  0.00    +0.214 A 
ATOM     13  C   UNL     1       3.759   6.796  -3.500  0.00  0.00    +0.238 A 
ATOM     14  O   UNL     1       4.592   5.997  -3.089  0.00  0.00    -0.283 OA
ATOM     15  C   UNL     1       4.153   8.132  -3.982  0.00  0.00    +0.109 A 
ATOM     16  C   UNL     1       3.141   9.067  -4.190  0.00  0.00    +0.147 A 
ATOM     17  C   UNL     1       3.446  10.353  -4.650  0.00  0.00    +0.092 A 
ATOM     18  C   UNL     1       4.772  10.703  -4.871  0.00  0.00    +0.124 A 
ATOM     19  C   UNL     1       5.796   9.789  -4.646  0.00  0.00    +0.091 A 
ATOM     20  O   UNL     1       1.818   8.807  -3.930  0.00  0.00    -0.451 OA
ATOM     21  C   UNL     1       5.488   8.499  -4.211  0.00  0.00    +0.135 A 
ATOM     22  C   UNL     1       1.433   7.510  -3.613  0.00  0.00    +0.181 A 
BRANCH  22  23
ATOM     23  C   UNL     1      -0.054   7.354  -3.515  0.00  0.00    +0.025 A 
ATOM     24  C   UNL     1      -0.656   6.415  -2.649  0.00  0.00    +0.015 A 
ATOM     25  C   UNL     1      -2.033   6.175  -2.673  0.00  0.00    +0.050 A 
ATOM     26  C   UNL     1      -2.829   6.915  -3.527  0.00  0.00    +0.158 A 
ATOM     27  C   UNL     1      -2.273   7.900  -4.335  0.00  0.00    +0.159 A 
ATOM     28  C   UNL     1      -0.899   8.134  -4.327  0.00  0.00    +0.060 A 
BRANCH  27  29
ATOM     29  O   UNL     1      -3.120   8.595  -5.154  0.00  0.00    -0.503 OA
ATOM     30  H   UNL     1      -2.581   9.058  -5.819  0.00  0.00    +0.292 HD
ENDBRANCH  27  29
BRANCH  26  31
ATOM     31  O   UNL     1      -4.167   6.656  -3.583  0.00  0.00    -0.503 OA
ATOM     32  H   UNL     1      -4.508   7.266  -4.267  0.00  0.00    +0.292 HD
ENDBRANCH  26  31
ENDBRANCH  22  23
BRANCH  21  33
ATOM     33  O   UNL     1       6.512   7.618  -4.011  0.00  0.00    -0.506 OA
ATOM     34  H   UNL     1       7.366   8.051  -4.176  0.00  0.00    +0.292 HD
ENDBRANCH  21  33
BRANCH  18  35
ATOM     35  O   UNL     1       5.126  11.948  -5.306  0.00  0.00    -0.507 OA
ATOM     36  H   UNL     1       4.329  12.492  -5.417  0.00  0.00    +0.292 HD
ENDBRANCH  18  35
ENDBRANCH  11  12
ENDBRANCH   6  11
BRANCH   4  37
ATOM     37  C   UNL     1       0.616   4.734  -6.143  0.00  0.00    +0.190 C 
BRANCH  37  38
ATOM     38  O   UNL     1       1.086   5.993  -6.653  0.00  0.00    -0.392 OA
ATOM     39  H   UNL     1       1.949   6.149  -6.227  0.00  0.00    +0.210 HD
ENDBRANCH  37  38
ENDBRANCH   4  37
BRANCH   1  40
ATOM     40  O   UNL     1       3.115   1.745  -3.182  0.00  0.00    -0.337 OA
BRANCH  40  44
ATOM     41  C   UNL     1       7.122   2.301  -1.922  0.00  0.00    +0.041 C 
ATOM     42  C   UNL     1       6.237   1.177  -1.376  0.00  0.00    +0.149 C 
ATOM     43  O   UNL     1       5.091   0.954  -2.219  0.00  0.00    -0.343 OA
ATOM     44  C   UNL     1       4.123   2.012  -2.192  0.00  0.00    +0.282 C 
ATOM     45  C   UNL     1       3.565   2.195  -0.760  0.00  0.00    +0.201 C 
ATOM     46  C   UNL     1       4.723   2.472   0.202  0.00  0.00    +0.179 C 
ATOM     47  C   UNL     1       5.813   1.400   0.086  0.00  0.00    +0.174 C 
BRANCH  47  48
ATOM     48  O   UNL     1       5.287   0.177   0.635  0.00  0.00    -0.387 OA
ATOM     49  H   UNL     1       4.549  -0.092   0.043  0.00  0.00    +0.210 HD
ENDBRANCH  47  48
BRANCH  46  50
ATOM     50  O   UNL     1       4.209   2.506   1.542  0.00  0.00    -0.386 OA
ATOM     51  H   UNL     1       4.322   1.595   1.885  0.00  0.00    +0.210 HD
ENDBRANCH  46  50
BRANCH  45  52
ATOM     52  O   UNL     1       2.848   1.018  -0.339  0.00  0.00    -0.384 OA
ATOM     53  H   UNL     1       2.405   1.259   0.496  0.00  0.00    +0.210 HD
ENDBRANCH  45  52
ENDBRANCH  40  44
ENDBRANCH   1  40
TORSDOF 16
