REMARK  Name = 
REMARK  32 active torsions:
REMARK  status: ('A' for Active; 'I' for Inactive)
REMARK    1  A    between atoms: C_1  and  C_2
REMARK    2  A    between atoms: C_3  and  O_87
REMARK    3  A    between atoms: C_5  and  O_86
REMARK    4  A    between atoms: C_6  and  O_85
REMARK    5  A    between atoms: C_8  and  O_11
REMARK    6  A    between atoms: O_11  and  C_12
REMARK    7  A    between atoms: C_12  and  C_13
REMARK    8  A    between atoms: C_14  and  O_84
REMARK    9  A    between atoms: C_16  and  O_72
REMARK   10  A    between atoms: C_18  and  O_58
REMARK   11  A    between atoms: C_19  and  O_22
REMARK   12  A    between atoms: O_22  and  C_23
REMARK   13  A    between atoms: C_24  and  C_49
REMARK   14  A    between atoms: C_28  and  O_35
REMARK   15  A    between atoms: C_30  and  O_34
REMARK   16  A    between atoms: O_35  and  C_36
REMARK   17  A    between atoms: C_38  and  O_48
REMARK   18  A    between atoms: C_40  and  O_47
REMARK   19  A    between atoms: C_41  and  O_46
REMARK   20  A    between atoms: C_43  and  C_45
REMARK   21  A    between atoms: C_51  and  O_56
REMARK   22  A    between atoms: C_52  and  O_55
REMARK   23  A    between atoms: O_56  and  C_57
REMARK   24  A    between atoms: O_58  and  C_59
REMARK   25  A    between atoms: C_61  and  O_71
REMARK   26  A    between atoms: C_63  and  O_70
REMARK   27  A    between atoms: C_64  and  O_69
REMARK   28  A    between atoms: C_66  and  C_68
REMARK   29  A    between atoms: O_72  and  C_73
REMARK   30  A    between atoms: C_73  and  C_75
REMARK   31  A    between atoms: C_76  and  C_77
REMARK   32  A    between atoms: C_80  and  O_83
REMARK                            x       y       z     vdW  Elec       q    Type
REMARK                         _______ _______ _______ _____ _____    ______ ____
ROOT
ATOM      1  C   UNL     1       3.078   3.969  -4.317  0.00  0.00    +0.180 C 
ATOM      2  O   UNL     1       3.489   4.951  -3.330  0.00  0.00    -0.331 OA
ATOM      3  C   UNL     1       2.493   5.847  -2.799  0.00  0.00    +0.341 C 
ATOM      4  C   UNL     1       1.634   6.530  -3.930  0.00  0.00    +0.233 C 
ATOM      5  C   UNL     1       0.990   5.374  -4.701  0.00  0.00    +0.242 C 
ATOM      6  C   UNL     1       2.092   4.535  -5.383  0.00  0.00    +0.189 C 
ENDROOT
BRANCH   6   7
ATOM      7  O   UNL     1       2.807   5.303  -6.365  0.00  0.00    -0.385 OA
ATOM      8  H   UNL     1       3.277   6.032  -5.910  0.00  0.00    +0.210 HD
ENDBRANCH   6   7
BRANCH   4   9
ATOM      9  O   UNL     1       2.421   7.424  -4.771  0.00  0.00    -0.335 OA
BRANCH   9  10
ATOM     10  C   UNL     1       1.739   8.155  -5.817  0.00  0.00    +0.282 C 
ATOM     11  O   UNL     1       2.690   8.926  -6.571  0.00  0.00    -0.343 OA
ATOM     12  C   UNL     1       3.320   9.968  -5.817  0.00  0.00    +0.149 C 
ATOM     13  C   UNL     1       4.202  10.763  -6.781  0.00  0.00    +0.041 C 
ATOM     14  C   UNL     1       2.319  10.915  -5.126  0.00  0.00    +0.174 C 
ATOM     15  C   UNL     1       1.210  10.137  -4.409  0.00  0.00    +0.179 C 
ATOM     16  C   UNL     1       0.611   9.112  -5.368  0.00  0.00    +0.201 C 
BRANCH  15  17
ATOM     17  O   UNL     1       0.181  11.033  -3.966  0.00  0.00    -0.386 OA
ATOM     18  H   UNL     1      -0.650  10.518  -3.989  0.00  0.00    +0.210 HD
ENDBRANCH  15  17
BRANCH  16  19
ATOM     19  O   UNL     1      -0.520   8.506  -4.728  0.00  0.00    -0.384 OA
ATOM     20  H   UNL     1      -0.582   7.585  -5.038  0.00  0.00    +0.210 HD
ENDBRANCH  16  19
BRANCH  14  21
ATOM     21  O   UNL     1       3.018  11.783  -4.227  0.00  0.00    -0.387 OA
ATOM     22  H   UNL     1       3.150  11.313  -3.385  0.00  0.00    +0.210 HD
ENDBRANCH  14  21
ENDBRANCH   9  10
ENDBRANCH   4   9
BRANCH   5  23
ATOM     23  O   UNL     1       0.009   5.886  -5.641  0.00  0.00    -0.453 OA
BRANCH  23  24
ATOM     24  C   UNL     1      -0.922   4.990  -6.061  0.00  0.00    +0.332 C 
ATOM     25  O   UNL     1      -1.001   3.828  -5.692  0.00  0.00    -0.246 OA
BRANCH  24  26
ATOM     26  C   UNL     1      -1.844   5.660  -6.990  0.00  0.00    +0.092 C 
ATOM     27  C   UNL     1      -2.917   5.001  -7.451  0.00  0.00    +0.015 C 
BRANCH  27  28
ATOM     28  C   UNL     1      -3.832   5.645  -8.387  0.00  0.00    -0.025 A 
ATOM     29  C   UNL     1      -4.911   6.402  -7.918  0.00  0.00    +0.011 A 
ATOM     30  C   UNL     1      -5.726   7.089  -8.819  0.00  0.00    +0.046 A 
ATOM     31  C   UNL     1      -5.459   7.018 -10.182  0.00  0.00    +0.117 A 
ATOM     32  C   UNL     1      -4.408   6.245 -10.665  0.00  0.00    +0.046 A 
ATOM     33  C   UNL     1      -3.593   5.556  -9.764  0.00  0.00    +0.011 A 
BRANCH  31  34
ATOM     34  O   UNL     1      -6.253   7.739 -11.024  0.00  0.00    -0.507 OA
ATOM     35  H   UNL     1      -5.879   7.691 -11.919  0.00  0.00    +0.292 HD
ENDBRANCH  31  34
ENDBRANCH  27  28
ENDBRANCH  24  26
ENDBRANCH  23  24
ENDBRANCH   5  23
BRANCH   3  36
ATOM     36  O   UNL     1       3.084   6.917  -2.035  0.00  0.00    -0.453 OA
BRANCH  36  37
ATOM     37  C   UNL     1       3.403   6.862  -0.679  0.00  0.00    +0.214 A 
ATOM     38  C   UNL     1       2.666   6.054   0.353  0.00  0.00    +0.238 A 
ATOM     39  O   UNL     1       1.784   5.275   0.018  0.00  0.00    -0.283 OA
ATOM     40  C   UNL     1       3.093   6.217   1.785  0.00  0.00    +0.109 A 
ATOM     41  C   UNL     1       4.227   6.971   2.045  0.00  0.00    +0.147 A 
ATOM     42  C   UNL     1       4.762   7.106   3.339  0.00  0.00    +0.093 A 
ATOM     43  C   UNL     1       4.114   6.558   4.442  0.00  0.00    +0.131 A 
ATOM     44  C   UNL     1       2.942   5.831   4.205  0.00  0.00    +0.092 A 
ATOM     45  O   UNL     1       4.891   7.661   1.076  0.00  0.00    -0.451 OA
ATOM     46  C   UNL     1       2.454   5.643   2.889  0.00  0.00    +0.135 A 
ATOM     47  C   UNL     1       4.420   7.614  -0.214  0.00  0.00    +0.181 A 
BRANCH  47  48
ATOM     48  C   UNL     1       5.314   8.337  -1.111  0.00  0.00    +0.025 A 
ATOM     49  C   UNL     1       6.254   7.561  -1.788  0.00  0.00    +0.015 A 
ATOM     50  C   UNL     1       7.288   8.174  -2.463  0.00  0.00    +0.050 A 
ATOM     51  C   UNL     1       7.262   9.554  -2.644  0.00  0.00    +0.158 A 
ATOM     52  C   UNL     1       6.259  10.348  -2.081  0.00  0.00    +0.162 A 
ATOM     53  C   UNL     1       5.333   9.730  -1.229  0.00  0.00    +0.061 A 
BRANCH  52  54
ATOM     54  O   UNL     1       5.970  11.659  -2.310  0.00  0.00    -0.491 OA
ATOM     55  C   UNL     1       6.843  12.510  -3.033  0.00  0.00    +0.277 C 
ENDBRANCH  52  54
BRANCH  51  56
ATOM     56  O   UNL     1       8.202  10.018  -3.512  0.00  0.00    -0.503 OA
ATOM     57  H   UNL     1       7.871   9.733  -4.383  0.00  0.00    +0.292 HD
ENDBRANCH  51  56
ENDBRANCH  47  48
BRANCH  46  58
ATOM     58  O   UNL     1       1.303   4.928   2.727  0.00  0.00    -0.506 OA
ATOM     59  H   UNL     1       1.369   4.108   3.248  0.00  0.00    +0.292 HD
ENDBRANCH  46  58
BRANCH  43  60
ATOM     60  O   UNL     1       4.508   6.715   5.757  0.00  0.00    -0.461 OA
BRANCH  60  61
ATOM     61  C   UNL     1       5.866   7.147   5.977  0.00  0.00    +0.339 C 
ATOM     62  O   UNL     1       6.797   6.122   5.611  0.00  0.00    -0.334 OA
ATOM     63  C   UNL     1       6.671   4.963   6.448  0.00  0.00    +0.150 C 
ATOM     64  C   UNL     1       7.555   3.873   5.857  0.00  0.00    +0.041 C 
ATOM     65  C   UNL     1       7.066   5.298   7.892  0.00  0.00    +0.174 C 
ATOM     66  C   UNL     1       6.199   6.454   8.424  0.00  0.00    +0.180 C 
ATOM     67  C   UNL     1       6.172   7.620   7.426  0.00  0.00    +0.214 C 
BRANCH  67  68
ATOM     68  O   UNL     1       5.274   8.641   7.869  0.00  0.00    -0.383 OA
ATOM     69  H   UNL     1       5.490   9.462   7.396  0.00  0.00    +0.210 HD
ENDBRANCH  67  68
BRANCH  66  70
ATOM     70  O   UNL     1       6.714   6.888   9.698  0.00  0.00    -0.386 OA
ATOM     71  H   UNL     1       7.637   7.171   9.583  0.00  0.00    +0.210 HD
ENDBRANCH  66  70
BRANCH  65  72
ATOM     72  O   UNL     1       6.963   4.143   8.728  0.00  0.00    -0.387 OA
ATOM     73  H   UNL     1       6.047   4.074   9.051  0.00  0.00    +0.210 HD
ENDBRANCH  65  72
ENDBRANCH  60  61
ENDBRANCH  43  60
ENDBRANCH  36  37
ENDBRANCH   3  36
BRANCH   1  74
ATOM     74  C   UNL     1       2.496   2.641  -3.742  0.00  0.00    +0.197 C 
BRANCH  74  75
ATOM     75  O   UNL     1       3.430   1.739  -3.165  0.00  0.00    -0.346 OA
BRANCH  75  79
ATOM     76  C   UNL     1       6.140   0.717  -0.008  0.00  0.00    +0.041 C 
ATOM     77  C   UNL     1       4.761   0.101  -0.218  0.00  0.00    +0.149 C 
ATOM     78  O   UNL     1       4.271   0.395  -1.530  0.00  0.00    -0.343 OA
ATOM     79  C   UNL     1       3.710   1.705  -1.766  0.00  0.00    +0.282 C 
ATOM     80  C   UNL     1       2.542   1.943  -0.772  0.00  0.00    +0.201 C 
ATOM     81  C   UNL     1       3.107   1.826   0.660  0.00  0.00    +0.179 C 
ATOM     82  C   UNL     1       3.765   0.459   0.892  0.00  0.00    +0.174 C 
BRANCH  80  83
ATOM     83  O   UNL     1       1.480   0.980  -0.943  0.00  0.00    -0.384 OA
ATOM     84  H   UNL     1       0.727   1.327  -0.426  0.00  0.00    +0.210 HD
ENDBRANCH  80  83
BRANCH  81  85
ATOM     85  O   UNL     1       2.061   2.000   1.633  0.00  0.00    -0.386 OA
ATOM     86  H   UNL     1       1.704   1.099   1.785  0.00  0.00    +0.210 HD
ENDBRANCH  81  85
BRANCH  82  87
ATOM     87  O   UNL     1       2.718  -0.532   0.957  0.00  0.00    -0.387 OA
ATOM     88  H   UNL     1       2.324  -0.570   0.056  0.00  0.00    +0.210 HD
ENDBRANCH  82  87
ENDBRANCH  75  79
ENDBRANCH  74  75
ENDBRANCH   1  74
TORSDOF 28
