REMARK  Name = 
REMARK  24 active torsions:
REMARK  status: ('A' for Active; 'I' for Inactive)
REMARK    1  A    between atoms: C_1  and  C_2
REMARK    2  A    between atoms: C_3  and  O_63
REMARK    3  A    between atoms: C_5  and  O_62
REMARK    4  A    between atoms: C_7  and  O_61
REMARK    5  A    between atoms: C_8  and  O_11
REMARK    6  A    between atoms: O_11  and  C_12
REMARK    7  A    between atoms: C_12  and  C_13
REMARK    8  A    between atoms: C_14  and  O_60
REMARK    9  A    between atoms: C_16  and  O_59
REMARK   10  A    between atoms: C_17  and  O_44
REMARK   11  A    between atoms: C_18  and  O_21
REMARK   12  A    between atoms: O_21  and  C_22
REMARK   13  A    between atoms: C_23  and  C_35
REMARK   14  A    between atoms: C_27  and  O_34
REMARK   15  A    between atoms: C_29  and  O_33
REMARK   16  A    between atoms: C_37  and  O_42
REMARK   17  A    between atoms: C_38  and  O_41
REMARK   18  A    between atoms: O_42  and  C_43
REMARK   19  A    between atoms: O_44  and  C_45
REMARK   20  A    between atoms: C_47  and  O_58
REMARK   21  A    between atoms: C_49  and  O_57
REMARK   22  A    between atoms: C_50  and  O_56
REMARK   23  A    between atoms: C_52  and  C_54
REMARK   24  A    between atoms: C_54  and  O_55
REMARK                            x       y       z     vdW  Elec       q    Type
REMARK                         _______ _______ _______ _____ _____    ______ ____
ROOT
ATOM      1  C   UNL     1       3.083   3.690  -4.456  0.00  0.00    +0.179 C 
ATOM      2  O   UNL     1       3.624   4.655  -3.513  0.00  0.00    -0.331 OA
ATOM      3  C   UNL     1       2.708   5.595  -2.881  0.00  0.00    +0.340 C 
ATOM      4  C   UNL     1       1.686   6.288  -3.884  0.00  0.00    +0.221 C 
ATOM      5  C   UNL     1       1.023   5.144  -4.662  0.00  0.00    +0.180 C 
ATOM      6  C   UNL     1       2.101   4.371  -5.433  0.00  0.00    +0.177 C 
ENDROOT
BRANCH   5   7
ATOM      7  O   UNL     1       0.000   5.629  -5.538  0.00  0.00    -0.386 OA
ATOM      8  H   UNL     1       0.126   5.158  -6.388  0.00  0.00    +0.210 HD
ENDBRANCH   5   7
BRANCH   6   9
ATOM      9  O   UNL     1       1.466   3.478  -6.344  0.00  0.00    -0.386 OA
ATOM     10  H   UNL     1       2.161   2.899  -6.710  0.00  0.00    +0.210 HD
ENDBRANCH   6   9
BRANCH   4  11
ATOM     11  O   UNL     1       2.290   7.282  -4.771  0.00  0.00    -0.337 OA
BRANCH  11  12
ATOM     12  C   UNL     1       1.390   7.978  -5.669  0.00  0.00    +0.282 C 
ATOM     13  O   UNL     1       2.102   8.947  -6.473  0.00  0.00    -0.341 OA
ATOM     14  C   UNL     1       2.651  10.028  -5.719  0.00  0.00    +0.178 C 
ATOM     15  C   UNL     1       1.557  10.775  -4.934  0.00  0.00    +0.177 C 
ATOM     16  C   UNL     1       0.750   9.782  -4.086  0.00  0.00    +0.179 C 
ATOM     17  C   UNL     1       0.188   8.693  -4.994  0.00  0.00    +0.201 C 
BRANCH  17  18
ATOM     18  O   UNL     1      -0.707   9.321  -5.941  0.00  0.00    -0.384 OA
ATOM     19  H   UNL     1      -0.264   9.342  -6.810  0.00  0.00    +0.210 HD
ENDBRANCH  17  18
BRANCH  16  20
ATOM     20  O   UNL     1      -0.297  10.461  -3.391  0.00  0.00    -0.386 OA
ATOM     21  H   UNL     1      -0.983  10.668  -4.054  0.00  0.00    +0.210 HD
ENDBRANCH  16  20
BRANCH  15  22
ATOM     22  O   UNL     1       2.132  11.779  -4.110  0.00  0.00    -0.386 OA
ATOM     23  H   UNL     1       2.252  11.388  -3.220  0.00  0.00    +0.210 HD
ENDBRANCH  15  22
BRANCH  14  24
ATOM     24  C   UNL     1       3.384  10.970  -6.692  0.00  0.00    +0.190 C 
BRANCH  24  25
ATOM     25  O   UNL     1       4.158  11.948  -6.002  0.00  0.00    -0.392 OA
ATOM     26  H   UNL     1       3.514  12.449  -5.457  0.00  0.00    +0.210 HD
ENDBRANCH  24  25
ENDBRANCH  14  24
ENDBRANCH  11  12
ENDBRANCH   4  11
BRANCH   3  27
ATOM     27  O   UNL     1       3.408   6.648  -2.181  0.00  0.00    -0.453 OA
BRANCH  27  28
ATOM     28  C   UNL     1       4.055   6.498  -0.952  0.00  0.00    +0.214 A 
ATOM     29  C   UNL     1       4.082   5.245  -0.156  0.00  0.00    +0.238 A 
ATOM     30  O   UNL     1       3.260   4.354  -0.357  0.00  0.00    -0.283 OA
ATOM     31  C   UNL     1       5.087   5.135   0.925  0.00  0.00    +0.109 A 
ATOM     32  C   UNL     1       5.715   6.298   1.358  0.00  0.00    +0.147 A 
ATOM     33  C   UNL     1       6.661   6.282   2.395  0.00  0.00    +0.092 A 
ATOM     34  C   UNL     1       7.008   5.061   2.971  0.00  0.00    +0.124 A 
ATOM     35  C   UNL     1       6.414   3.878   2.544  0.00  0.00    +0.091 A 
ATOM     36  O   UNL     1       5.434   7.517   0.790  0.00  0.00    -0.451 OA
ATOM     37  C   UNL     1       5.468   3.915   1.513  0.00  0.00    +0.135 A 
ATOM     38  C   UNL     1       4.759   7.518  -0.420  0.00  0.00    +0.181 A 
BRANCH  38  39
ATOM     39  C   UNL     1       5.039   8.714  -1.220  0.00  0.00    +0.025 A 
ATOM     40  C   UNL     1       5.882   8.536  -2.324  0.00  0.00    +0.015 A 
ATOM     41  C   UNL     1       6.248   9.614  -3.108  0.00  0.00    +0.050 A 
ATOM     42  C   UNL     1       5.686  10.863  -2.862  0.00  0.00    +0.158 A 
ATOM     43  C   UNL     1       4.791  11.057  -1.802  0.00  0.00    +0.162 A 
ATOM     44  C   UNL     1       4.533   9.985  -0.932  0.00  0.00    +0.061 A 
BRANCH  42  45
ATOM     45  O   UNL     1       6.046  11.857  -3.724  0.00  0.00    -0.503 OA
ATOM     46  H   UNL     1       5.789  11.554  -4.620  0.00  0.00    +0.292 HD
ENDBRANCH  42  45
BRANCH  43  47
ATOM     47  O   UNL     1       4.071  12.182  -1.508  0.00  0.00    -0.491 OA
ATOM     48  C   UNL     1       3.955  13.206  -2.491  0.00  0.00    +0.277 C 
ENDBRANCH  43  47
ENDBRANCH  38  39
BRANCH  37  49
ATOM     49  O   UNL     1       4.918   2.739   1.089  0.00  0.00    -0.506 OA
ATOM     50  H   UNL     1       5.291   2.005   1.590  0.00  0.00    +0.292 HD
ENDBRANCH  37  49
BRANCH  34  51
ATOM     51  O   UNL     1       7.940   4.961   3.964  0.00  0.00    -0.507 OA
ATOM     52  H   UNL     1       8.294   5.844   4.164  0.00  0.00    +0.292 HD
ENDBRANCH  34  51
ENDBRANCH  27  28
ENDBRANCH   3  27
BRANCH   1  53
ATOM     53  C   UNL     1       2.611   2.323  -3.798  0.00  0.00    +0.197 C 
BRANCH  53  54
ATOM     54  O   UNL     1       2.481   1.192  -4.726  0.00  0.00    -0.346 OA
BRANCH  54  58
ATOM     55  C   UNL     1       2.116  -1.646  -1.346  0.00  0.00    +0.041 C 
ATOM     56  C   UNL     1       3.027  -1.795  -2.562  0.00  0.00    +0.149 C 
ATOM     57  O   UNL     1       3.202  -0.530  -3.242  0.00  0.00    -0.343 OA
ATOM     58  C   UNL     1       2.118  -0.071  -4.059  0.00  0.00    +0.282 C 
ATOM     59  C   UNL     1       1.771  -1.196  -5.099  0.00  0.00    +0.201 C 
ATOM     60  C   UNL     1       1.388  -2.497  -4.350  0.00  0.00    +0.179 C 
ATOM     61  C   UNL     1       2.548  -2.953  -3.455  0.00  0.00    +0.174 C 
BRANCH  59  62
ATOM     62  O   UNL     1       2.919  -1.494  -5.930  0.00  0.00    -0.384 OA
ATOM     63  H   UNL     1       3.290  -0.624  -6.162  0.00  0.00    +0.210 HD
ENDBRANCH  59  62
BRANCH  60  64
ATOM     64  O   UNL     1       1.010  -3.549  -5.252  0.00  0.00    -0.386 OA
ATOM     65  H   UNL     1       1.544  -4.340  -5.033  0.00  0.00    +0.210 HD
ENDBRANCH  60  64
BRANCH  61  66
ATOM     66  O   UNL     1       3.623  -3.463  -4.251  0.00  0.00    -0.387 OA
ATOM     67  H   UNL     1       3.699  -2.869  -5.034  0.00  0.00    +0.210 HD
ENDBRANCH  61  66
ENDBRANCH  54  58
ENDBRANCH  53  54
ENDBRANCH   1  53
TORSDOF 22
