REMARK  Name = 
REMARK  18 active torsions:
REMARK  status: ('A' for Active; 'I' for Inactive)
REMARK    1  A    between atoms: C_3  and  O_49
REMARK    2  A    between atoms: C_4  and  O_34
REMARK    3  A    between atoms: C_6  and  C_7
REMARK    4  A    between atoms: C_8  and  O_20
REMARK    5  A    between atoms: C_12  and  O_19
REMARK    6  A    between atoms: C_14  and  O_18
REMARK    7  A    between atoms: O_20  and  C_21
REMARK    8  A    between atoms: C_23  and  O_33
REMARK    9  A    between atoms: C_24  and  O_32
REMARK   10  A    between atoms: C_25  and  O_31
REMARK   11  A    between atoms: C_27  and  C_29
REMARK   12  A    between atoms: C_29  and  O_30
REMARK   13  A    between atoms: O_34  and  C_35
REMARK   14  A    between atoms: C_37  and  O_48
REMARK   15  A    between atoms: C_38  and  O_47
REMARK   16  A    between atoms: C_40  and  O_46
REMARK   17  A    between atoms: C_42  and  C_44
REMARK   18  A    between atoms: C_44  and  O_45
REMARK                            x       y       z     vdW  Elec       q    Type
REMARK                         _______ _______ _______ _____ _____    ______ ____
ROOT
ATOM      1  C   UNL     1       2.226   4.234   2.816  0.00  0.00    +0.181 A 
ATOM      2  O   UNL     1       1.223   3.861   3.703  0.00  0.00    -0.451 OA
ATOM      3  C   UNL     1       0.341   4.761   4.214  0.00  0.00    +0.147 A 
ATOM      4  C   UNL     1       0.373   6.099   3.898  0.00  0.00    +0.109 A 
ATOM      5  C   UNL     1      -0.561   6.957   4.516  0.00  0.00    +0.135 A 
ATOM      6  C   UNL     1      -1.529   6.455   5.399  0.00  0.00    +0.091 A 
ATOM      7  C   UNL     1      -1.554   5.095   5.675  0.00  0.00    +0.124 A 
ATOM      8  C   UNL     1       1.382   6.533   2.892  0.00  0.00    +0.238 A 
ATOM      9  O   UNL     1       1.453   7.717   2.564  0.00  0.00    -0.283 OA
ATOM     10  C   UNL     1      -0.612   4.251   5.102  0.00  0.00    +0.092 A 
ATOM     11  C   UNL     1       2.323   5.486   2.314  0.00  0.00    +0.214 A 
ENDROOT
BRANCH   1  13
ATOM     12  C   UNL     1       2.733   1.820   3.053  0.00  0.00    +0.015 A 
ATOM     13  C   UNL     1       3.166   3.069   2.581  0.00  0.00    +0.025 A 
ATOM     14  C   UNL     1       4.473   3.104   2.046  0.00  0.00    +0.061 A 
ATOM     15  C   UNL     1       5.338   1.957   2.036  0.00  0.00    +0.166 A 
ATOM     16  C   UNL     1       4.886   0.797   2.639  0.00  0.00    +0.159 A 
ATOM     17  C   UNL     1       3.581   0.707   3.105  0.00  0.00    +0.050 A 
BRANCH  16  18
ATOM     18  O   UNL     1       5.717  -0.262   2.846  0.00  0.00    -0.503 OA
ATOM     19  H   UNL     1       5.491  -0.658   3.703  0.00  0.00    +0.292 HD
ENDBRANCH  16  18
BRANCH  15  20
ATOM     20  O   UNL     1       6.601   2.126   1.544  0.00  0.00    -0.457 OA
BRANCH  20  21
ATOM     21  C   UNL     1       7.384   1.061   0.936  0.00  0.00    +0.339 C 
ATOM     22  O   UNL     1       8.258   0.306   1.814  0.00  0.00    -0.331 OA
ATOM     23  C   UNL     1       9.333  -0.359   1.103  0.00  0.00    +0.179 C 
ATOM     24  C   UNL     1       8.870  -1.224  -0.106  0.00  0.00    +0.177 C 
ATOM     25  C   UNL     1       7.798  -0.522  -0.953  0.00  0.00    +0.180 C 
ATOM     26  C   UNL     1       6.694   0.099  -0.064  0.00  0.00    +0.214 C 
BRANCH  26  27
ATOM     27  O   UNL     1       5.713   0.730  -0.892  0.00  0.00    -0.383 OA
ATOM     28  H   UNL     1       6.182   1.352  -1.478  0.00  0.00    +0.210 HD
ENDBRANCH  26  27
BRANCH  25  29
ATOM     29  O   UNL     1       8.382   0.472  -1.814  0.00  0.00    -0.386 OA
ATOM     30  H   UNL     1       9.053   0.990  -1.339  0.00  0.00    +0.210 HD
ENDBRANCH  25  29
BRANCH  24  31
ATOM     31  O   UNL     1       8.366  -2.490   0.329  0.00  0.00    -0.386 OA
ATOM     32  H   UNL     1       8.184  -3.032  -0.461  0.00  0.00    +0.210 HD
ENDBRANCH  24  31
BRANCH  23  33
ATOM     33  C   UNL     1      10.191  -1.228   2.057  0.00  0.00    +0.190 C 
BRANCH  33  34
ATOM     34  O   UNL     1      10.697  -0.517   3.184  0.00  0.00    -0.392 OA
ATOM     35  H   UNL     1      10.817   0.413   2.934  0.00  0.00    +0.210 HD
ENDBRANCH  33  34
ENDBRANCH  23  33
ENDBRANCH  20  21
ENDBRANCH  15  20
ENDBRANCH   1  13
BRANCH   7  36
ATOM     36  O   UNL     1      -2.481   4.533   6.502  0.00  0.00    -0.507 OA
ATOM     37  H   UNL     1      -3.121   5.207   6.785  0.00  0.00    +0.292 HD
ENDBRANCH   7  36
BRANCH   5  38
ATOM     38  O   UNL     1      -0.589   8.318   4.325  0.00  0.00    -0.506 OA
ATOM     39  H   UNL     1       0.183   8.572   3.786  0.00  0.00    +0.292 HD
ENDBRANCH   5  38
BRANCH  11  40
ATOM     40  O   UNL     1       3.395   5.879   1.533  0.00  0.00    -0.453 OA
BRANCH  40  41
ATOM     41  C   UNL     1       3.191   6.270   0.160  0.00  0.00    +0.340 C 
ATOM     42  O   UNL     1       3.943   5.425  -0.730  0.00  0.00    -0.331 OA
ATOM     43  C   UNL     1       5.380   5.628  -0.852  0.00  0.00    +0.179 C 
ATOM     44  C   UNL     1       6.015   6.927  -0.280  0.00  0.00    +0.177 C 
ATOM     45  C   UNL     1       5.076   7.771   0.572  0.00  0.00    +0.180 C 
ATOM     46  C   UNL     1       3.678   7.715  -0.053  0.00  0.00    +0.214 C 
BRANCH  46  47
ATOM     47  O   UNL     1       2.859   8.745   0.501  0.00  0.00    -0.383 OA
ATOM     48  H   UNL     1       2.128   8.340   1.012  0.00  0.00    +0.210 HD
ENDBRANCH  46  47
BRANCH  45  49
ATOM     49  O   UNL     1       5.575   9.118   0.621  0.00  0.00    -0.386 OA
ATOM     50  H   UNL     1       4.773   9.679   0.677  0.00  0.00    +0.210 HD
ENDBRANCH  45  49
BRANCH  44  51
ATOM     51  O   UNL     1       6.507   7.784  -1.330  0.00  0.00    -0.386 OA
ATOM     52  H   UNL     1       6.697   8.636  -0.876  0.00  0.00    +0.210 HD
ENDBRANCH  44  51
BRANCH  43  53
ATOM     53  C   UNL     1       5.708   5.476  -2.355  0.00  0.00    +0.190 C 
BRANCH  53  54
ATOM     54  O   UNL     1       5.242   4.216  -2.840  0.00  0.00    -0.392 OA
ATOM     55  H   UNL     1       4.346   4.110  -2.466  0.00  0.00    +0.210 HD
ENDBRANCH  53  54
ENDBRANCH  43  53
ENDBRANCH  40  41
ENDBRANCH  11  40
TORSDOF 18
