REMARK  Name = 
REMARK  29 active torsions:
REMARK  status: ('A' for Active; 'I' for Inactive)
REMARK    1  A    between atoms: C_3  and  O_76
REMARK    2  A    between atoms: C_4  and  O_75
REMARK    3  A    between atoms: C_6  and  C_7
REMARK    4  A    between atoms: C_8  and  C_9
REMARK    5  A    between atoms: C_9  and  O_11
REMARK    6  A    between atoms: O_11  and  C_12
REMARK    7  A    between atoms: C_12  and  C_13
REMARK    8  A    between atoms: C_14  and  O_74
REMARK    9  A    between atoms: C_16  and  O_73
REMARK   10  A    between atoms: C_18  and  O_72
REMARK   11  A    between atoms: C_19  and  O_22
REMARK   12  A    between atoms: O_22  and  C_23
REMARK   13  A    between atoms: C_25  and  O_71
REMARK   14  A    between atoms: C_30  and  C_63
REMARK   15  A    between atoms: C_31  and  O_34
REMARK   16  A    between atoms: O_34  and  C_35
REMARK   17  A    between atoms: C_37  and  O_48
REMARK   18  A    between atoms: C_38  and  O_47
REMARK   19  A    between atoms: C_40  and  O_46
REMARK   20  A    between atoms: C_42  and  C_44
REMARK   21  A    between atoms: C_44  and  O_45
REMARK   22  A    between atoms: O_48  and  C_49
REMARK   23  A    between atoms: C_51  and  O_62
REMARK   24  A    between atoms: C_52  and  O_61
REMARK   25  A    between atoms: C_54  and  O_60
REMARK   26  A    between atoms: C_56  and  C_58
REMARK   27  A    between atoms: C_58  and  O_59
REMARK   28  A    between atoms: C_65  and  O_70
REMARK   29  A    between atoms: C_66  and  O_69
REMARK                            x       y       z     vdW  Elec       q    Type
REMARK                         _______ _______ _______ _____ _____    ______ ____
ROOT
ATOM      1  C   UNL     1      -6.738  -4.100  -5.246  0.00  0.00    +0.131 A 
ATOM      2  C   UNL     1      -6.217  -3.578  -6.453  0.00  0.00    +0.093 A 
ATOM      3  C   UNL     1      -5.741  -4.441  -7.464  0.00  0.00    +0.147 A 
ATOM      4  O   UNL     1      -5.244  -3.920  -8.637  0.00  0.00    -0.451 OA
ATOM      5  C   UNL     1      -4.940  -4.778  -9.722  0.00  0.00    +0.181 A 
ATOM      6  C   UNL     1      -4.821  -6.135  -9.608  0.00  0.00    +0.214 A 
ATOM      7  C   UNL     1      -5.030  -6.653  -8.211  0.00  0.00    +0.238 A 
ATOM      8  O   UNL     1      -4.552  -7.701  -7.815  0.00  0.00    -0.283 OA
ATOM      9  C   UNL     1      -5.763  -5.808  -7.261  0.00  0.00    +0.109 A 
ATOM     10  C   UNL     1      -6.386  -6.324  -6.122  0.00  0.00    +0.135 A 
ATOM     11  C   UNL     1      -6.874  -5.476  -5.123  0.00  0.00    +0.092 A 
ENDROOT
BRANCH   5  12
ATOM     12  C   UNL     1      -4.700  -3.996 -10.984  0.00  0.00    +0.025 A 
ATOM     13  C   UNL     1      -5.254  -2.704 -11.143  0.00  0.00    +0.015 A 
ATOM     14  C   UNL     1      -4.934  -1.892 -12.242  0.00  0.00    +0.050 A 
ATOM     15  C   UNL     1      -4.082  -2.379 -13.219  0.00  0.00    +0.158 A 
ATOM     16  C   UNL     1      -3.578  -3.667 -13.123  0.00  0.00    +0.159 A 
ATOM     17  C   UNL     1      -3.849  -4.454 -12.005  0.00  0.00    +0.060 A 
BRANCH  16  18
ATOM     18  O   UNL     1      -2.800  -4.130 -14.148  0.00  0.00    -0.503 OA
ATOM     19  H   UNL     1      -2.871  -5.102 -14.158  0.00  0.00    +0.292 HD
ENDBRANCH  16  18
BRANCH  15  20
ATOM     20  O   UNL     1      -3.729  -1.582 -14.268  0.00  0.00    -0.503 OA
ATOM     21  H   UNL     1      -3.067  -2.103 -14.766  0.00  0.00    +0.292 HD
ENDBRANCH  15  20
ENDBRANCH   5  12
BRANCH  10  22
ATOM     22  O   UNL     1      -6.579  -7.671  -5.990  0.00  0.00    -0.506 OA
ATOM     23  H   UNL     1      -6.987  -7.845  -5.130  0.00  0.00    +0.292 HD
ENDBRANCH  10  22
BRANCH   6  24
ATOM     24  O   UNL     1      -4.536  -6.985 -10.699  0.00  0.00    -0.453 OA
BRANCH  24  25
ATOM     25  C   UNL     1      -4.030  -8.331 -10.484  0.00  0.00    +0.340 C 
ATOM     26  O   UNL     1      -2.590  -8.376 -10.379  0.00  0.00    -0.331 OA
ATOM     27  C   UNL     1      -1.811  -8.352 -11.595  0.00  0.00    +0.179 C 
ATOM     28  C   UNL     1      -2.326  -9.269 -12.713  0.00  0.00    +0.177 C 
ATOM     29  C   UNL     1      -3.806  -9.042 -12.888  0.00  0.00    +0.180 C 
ATOM     30  C   UNL     1      -4.510  -9.352 -11.560  0.00  0.00    +0.221 C 
BRANCH  28  31
ATOM     31  O   UNL     1      -2.103 -10.655 -12.414  0.00  0.00    -0.386 OA
ATOM     32  H   UNL     1      -2.485 -11.187 -13.141  0.00  0.00    +0.210 HD
ENDBRANCH  28  31
BRANCH  29  33
ATOM     33  O   UNL     1      -4.065  -7.740 -13.426  0.00  0.00    -0.386 OA
ATOM     34  H   UNL     1      -4.454  -7.196 -12.712  0.00  0.00    +0.210 HD
ENDBRANCH  29  33
BRANCH  30  35
ATOM     35  O   UNL     1      -5.942  -9.471 -11.697  0.00  0.00    -0.337 OA
BRANCH  35  36
ATOM     36  C   UNL     1      -6.323 -10.713 -12.343  0.00  0.00    +0.282 C 
ATOM     37  O   UNL     1      -5.950 -10.784 -13.717  0.00  0.00    -0.341 OA
ATOM     38  C   UNL     1      -6.566  -9.764 -14.531  0.00  0.00    +0.178 C 
ATOM     39  C   UNL     1      -8.097  -9.922 -14.527  0.00  0.00    +0.177 C 
ATOM     40  C   UNL     1      -8.619  -9.943 -13.080  0.00  0.00    +0.179 C 
ATOM     41  C   UNL     1      -7.841 -10.960 -12.227  0.00  0.00    +0.201 C 
BRANCH  41  42
ATOM     42  O   UNL     1      -8.292 -10.904 -10.863  0.00  0.00    -0.384 OA
ATOM     43  H   UNL     1      -7.547 -10.573 -10.326  0.00  0.00    +0.210 HD
ENDBRANCH  41  42
BRANCH  40  44
ATOM     44  O   UNL     1      -8.524  -8.624 -12.527  0.00  0.00    -0.386 OA
ATOM     45  H   UNL     1      -8.331  -8.733 -11.576  0.00  0.00    +0.210 HD
ENDBRANCH  40  44
BRANCH  39  46
ATOM     46  O   UNL     1      -8.467 -11.133 -15.192  0.00  0.00    -0.386 OA
ATOM     47  H   UNL     1      -9.434 -11.123 -15.307  0.00  0.00    +0.210 HD
ENDBRANCH  39  46
BRANCH  38  48
ATOM     48  C   UNL     1      -5.962  -9.844 -15.947  0.00  0.00    +0.190 C 
BRANCH  48  49
ATOM     49  O   UNL     1      -4.550  -9.584 -15.955  0.00  0.00    -0.392 OA
ATOM     50  H   UNL     1      -4.407  -8.726 -15.514  0.00  0.00    +0.210 HD
ENDBRANCH  48  49
ENDBRANCH  38  48
ENDBRANCH  35  36
ENDBRANCH  30  35
BRANCH  27  51
ATOM     51  C   UNL     1      -0.363  -8.790 -11.288  0.00  0.00    +0.190 C 
BRANCH  51  52
ATOM     52  O   UNL     1       0.305  -7.909 -10.391  0.00  0.00    -0.392 OA
ATOM     53  H   UNL     1       0.005  -7.005 -10.570  0.00  0.00    +0.210 HD
ENDBRANCH  51  52
ENDBRANCH  27  51
ENDBRANCH  24  25
ENDBRANCH   6  24
BRANCH   1  54
ATOM     54  O   UNL     1      -7.115  -3.213  -4.259  0.00  0.00    -0.461 OA
BRANCH  54  57
ATOM     55  C   UNL     1      -8.481  -4.969  -1.276  0.00  0.00    +0.191 C 
ATOM     56  O   UNL     1      -8.366  -4.425  -2.611  0.00  0.00    -0.330 OA
ATOM     57  C   UNL     1      -7.138  -3.720  -2.891  0.00  0.00    +0.339 C 
ATOM     58  C   UNL     1      -7.013  -2.527  -1.903  0.00  0.00    +0.214 C 
ATOM     59  C   UNL     1      -7.045  -3.064  -0.460  0.00  0.00    +0.180 C 
ATOM     60  C   UNL     1      -8.328  -3.868  -0.209  0.00  0.00    +0.178 C 
BRANCH  58  61
ATOM     61  O   UNL     1      -8.090  -1.588  -2.096  0.00  0.00    -0.383 OA
ATOM     62  H   UNL     1      -8.866  -2.082  -2.415  0.00  0.00    +0.210 HD
ENDBRANCH  58  61
BRANCH  59  63
ATOM     63  O   UNL     1      -6.950  -2.006   0.503  0.00  0.00    -0.386 OA
ATOM     64  H   UNL     1      -7.191  -2.401   1.363  0.00  0.00    +0.210 HD
ENDBRANCH  59  63
BRANCH  60  65
ATOM     65  O   UNL     1      -8.287  -4.399   1.120  0.00  0.00    -0.386 OA
ATOM     66  H   UNL     1      -9.187  -4.700   1.348  0.00  0.00    +0.210 HD
ENDBRANCH  60  65
BRANCH  55  67
ATOM     67  C   UNL     1      -7.540  -6.173  -1.033  0.00  0.00    +0.266 C 
BRANCH  67  68
ATOM     68  O   UNL     1      -7.700  -7.192  -2.038  0.00  0.00    -0.459 OA
BRANCH  68  69
ATOM     69  C   UNL     1      -8.777  -8.003  -1.882  0.00  0.00    +0.332 C 
ATOM     70  O   UNL     1      -9.619  -7.923  -1.003  0.00  0.00    -0.246 OA
BRANCH  69  72
ATOM     71  C   UNL     1      -9.905  -9.624  -3.318  0.00  0.00    +0.015 C 
ATOM     72  C   UNL     1      -8.781  -8.965  -3.001  0.00  0.00    +0.092 C 
BRANCH  71  74
ATOM     73  C   UNL     1      -9.358 -10.382  -5.666  0.00  0.00    +0.012 A 
ATOM     74  C   UNL     1     -10.046 -10.552  -4.451  0.00  0.00    -0.021 A 
ATOM     75  C   UNL     1     -10.980 -11.592  -4.347  0.00  0.00    +0.057 A 
ATOM     76  C   UNL     1     -11.207 -12.431  -5.433  0.00  0.00    +0.159 A 
ATOM     77  C   UNL     1     -10.522 -12.253  -6.630  0.00  0.00    +0.158 A 
ATOM     78  C   UNL     1      -9.591 -11.232  -6.755  0.00  0.00    +0.050 A 
BRANCH  76  79
ATOM     79  O   UNL     1     -12.127 -13.434  -5.314  0.00  0.00    -0.503 OA
ATOM     80  H   UNL     1     -12.122 -13.875  -6.187  0.00  0.00    +0.292 HD
ENDBRANCH  76  79
BRANCH  77  81
ATOM     81  O   UNL     1     -10.812 -13.098  -7.664  0.00  0.00    -0.503 OA
ATOM     82  H   UNL     1     -10.309 -12.807  -8.445  0.00  0.00    +0.292 HD
ENDBRANCH  77  81
ENDBRANCH  71  74
ENDBRANCH  69  72
ENDBRANCH  68  69
ENDBRANCH  67  68
ENDBRANCH  55  67
ENDBRANCH  54  57
ENDBRANCH   1  54
TORSDOF 29
