REMARK  Name = 
REMARK  14 active torsions:
REMARK  status: ('A' for Active; 'I' for Inactive)
REMARK    1  A    between atoms: C_1  and  C_2
REMARK    2  A    between atoms: C_2  and  O_4
REMARK    3  A    between atoms: O_4  and  C_5
REMARK    4  A    between atoms: C_6  and  O_39
REMARK    5  A    between atoms: C_8  and  O_17
REMARK    6  A    between atoms: C_11  and  C_15
REMARK    7  A    between atoms: C_12  and  O_14
REMARK    8  A    between atoms: C_15  and  O_16
REMARK    9  A    between atoms: O_17  and  C_18
REMARK   10  A    between atoms: C_19  and  C_31
REMARK   11  A    between atoms: C_23  and  O_30
REMARK   12  A    between atoms: C_25  and  O_29
REMARK   13  A    between atoms: C_33  and  O_38
REMARK   14  A    between atoms: C_34  and  O_37
REMARK                            x       y       z     vdW  Elec       q    Type
REMARK                         _______ _______ _______ _____ _____    ______ ____
ROOT
ATOM      1  C   UNL     1       4.950  -2.187  -4.517  0.00  0.00    +0.214 A 
ATOM      2  C   UNL     1       5.034  -3.679  -4.757  0.00  0.00    +0.238 A 
ATOM      3  O   UNL     1       5.184  -4.488  -3.852  0.00  0.00    -0.283 OA
ATOM      4  C   UNL     1       4.869  -4.161  -6.145  0.00  0.00    +0.109 A 
ATOM      5  C   UNL     1       4.445  -3.247  -7.100  0.00  0.00    +0.147 A 
ATOM      6  C   UNL     1       4.254  -3.626  -8.430  0.00  0.00    +0.092 A 
ATOM      7  C   UNL     1       4.482  -4.947  -8.799  0.00  0.00    +0.124 A 
ATOM      8  C   UNL     1       4.885  -5.887  -7.860  0.00  0.00    +0.091 A 
ATOM      9  O   UNL     1       4.169  -1.943  -6.805  0.00  0.00    -0.451 OA
ATOM     10  C   UNL     1       5.081  -5.494  -6.533  0.00  0.00    +0.135 A 
ATOM     11  C   UNL     1       4.493  -1.450  -5.552  0.00  0.00    +0.181 A 
ENDROOT
BRANCH  11  12
ATOM     12  C   UNL     1       4.272   0.008  -5.514  0.00  0.00    +0.025 A 
ATOM     13  C   UNL     1       5.210   0.856  -6.127  0.00  0.00    +0.015 A 
ATOM     14  C   UNL     1       4.966   2.227  -6.237  0.00  0.00    +0.050 A 
ATOM     15  C   UNL     1       3.785   2.746  -5.731  0.00  0.00    +0.158 A 
ATOM     16  C   UNL     1       2.843   1.916  -5.126  0.00  0.00    +0.159 A 
ATOM     17  C   UNL     1       3.073   0.546  -5.018  0.00  0.00    +0.060 A 
BRANCH  15  18
ATOM     18  O   UNL     1       3.548   4.087  -5.837  0.00  0.00    -0.503 OA
ATOM     19  H   UNL     1       2.684   4.220  -5.400  0.00  0.00    +0.292 HD
ENDBRANCH  15  18
BRANCH  16  20
ATOM     20  O   UNL     1       1.693   2.501  -4.668  0.00  0.00    -0.503 OA
ATOM     21  H   UNL     1       1.161   1.817  -4.226  0.00  0.00    +0.292 HD
ENDBRANCH  16  20
ENDBRANCH  11  12
BRANCH   7  22
ATOM     22  O   UNL     1       4.318  -5.369 -10.085  0.00  0.00    -0.507 OA
ATOM     23  H   UNL     1       4.106  -4.604 -10.648  0.00  0.00    +0.292 HD
ENDBRANCH   7  22
BRANCH  10  24
ATOM     24  O   UNL     1       5.488  -6.440  -5.633  0.00  0.00    -0.506 OA
ATOM     25  H   UNL     1       5.485  -7.316  -6.051  0.00  0.00    +0.292 HD
ENDBRANCH  10  24
BRANCH   1  26
ATOM     26  O   UNL     1       5.290  -1.578  -3.298  0.00  0.00    -0.453 OA
BRANCH  26  31
ATOM     27  C   UNL     1       8.233  -3.367  -1.641  0.00  0.00    +0.242 C 
ATOM     28  C   UNL     1       7.956  -2.859  -0.217  0.00  0.00    +0.189 C 
ATOM     29  C   UNL     1       6.440  -2.646  -0.006  0.00  0.00    +0.180 C 
ATOM     30  O   UNL     1       5.906  -1.747  -1.009  0.00  0.00    -0.331 OA
ATOM     31  C   UNL     1       6.033  -2.346  -2.332  0.00  0.00    +0.341 C 
ATOM     32  C   UNL     1       7.547  -2.439  -2.674  0.00  0.00    +0.226 C 
BRANCH  28  33
ATOM     33  O   UNL     1       8.702  -1.649  -0.044  0.00  0.00    -0.385 OA
ATOM     34  H   UNL     1       8.550  -1.297   0.849  0.00  0.00    +0.210 HD
ENDBRANCH  28  33
BRANCH  32  35
ATOM     35  O   UNL     1       7.802  -2.854  -4.024  0.00  0.00    -0.382 OA
ATOM     36  H   UNL     1       8.642  -3.359  -4.038  0.00  0.00    +0.210 HD
ENDBRANCH  32  35
BRANCH  27  37
ATOM     37  O   UNL     1       7.737  -4.725  -1.740  0.00  0.00    -0.456 OA
BRANCH  37  39
ATOM     38  C   UNL     1       7.664  -6.848  -2.763  0.00  0.00    +0.136 C 
ATOM     39  C   UNL     1       8.284  -5.486  -2.730  0.00  0.00    +0.304 C 
ATOM     40  O   UNL     1       9.195  -5.119  -3.462  0.00  0.00    -0.251 OA
ENDBRANCH  37  39
ENDBRANCH  27  37
BRANCH  29  41
ATOM     41  C   UNL     1       6.140  -2.084   1.389  0.00  0.00    +0.190 C 
BRANCH  41  42
ATOM     42  O   UNL     1       4.735  -2.010   1.614  0.00  0.00    -0.392 OA
ATOM     43  H   UNL     1       4.389  -1.407   0.928  0.00  0.00    +0.210 HD
ENDBRANCH  41  42
ENDBRANCH  29  41
ENDBRANCH  26  31
ENDBRANCH   1  26
TORSDOF 13
