REMARK  Name = 
REMARK  18 active torsions:
REMARK  status: ('A' for Active; 'I' for Inactive)
REMARK    1  A    between atoms: C_3  and  O_50
REMARK    2  A    between atoms: C_4  and  O_49
REMARK    3  A    between atoms: C_6  and  C_7
REMARK    4  A    between atoms: C_8  and  O_34
REMARK    5  A    between atoms: C_12  and  O_33
REMARK    6  A    between atoms: C_14  and  O_18
REMARK    7  A    between atoms: O_18  and  C_19
REMARK    8  A    between atoms: C_21  and  O_32
REMARK    9  A    between atoms: C_22  and  O_31
REMARK   10  A    between atoms: C_24  and  O_30
REMARK   11  A    between atoms: C_26  and  C_28
REMARK   12  A    between atoms: C_28  and  O_29
REMARK   13  A    between atoms: O_34  and  C_35
REMARK   14  A    between atoms: C_37  and  O_48
REMARK   15  A    between atoms: C_38  and  O_47
REMARK   16  A    between atoms: C_39  and  O_46
REMARK   17  A    between atoms: C_41  and  C_43
REMARK   18  A    between atoms: C_43  and  O_45
REMARK                            x       y       z     vdW  Elec       q    Type
REMARK                         _______ _______ _______ _____ _____    ______ ____
ROOT
ATOM      1  C   UNL     1      -1.194  -2.738   0.247  0.00  0.00    +0.181 A 
ATOM      2  O   UNL     1      -0.560  -3.981   0.380  0.00  0.00    -0.451 OA
ATOM      3  C   UNL     1      -1.222  -5.147   0.070  0.00  0.00    +0.147 A 
ATOM      4  C   UNL     1      -2.549  -5.132  -0.333  0.00  0.00    +0.109 A 
ATOM      5  C   UNL     1      -3.168  -6.342  -0.635  0.00  0.00    +0.135 A 
ATOM      6  C   UNL     1      -2.467  -7.546  -0.556  0.00  0.00    +0.092 A 
ATOM      7  C   UNL     1      -1.133  -7.590  -0.129  0.00  0.00    +0.131 A 
ATOM      8  C   UNL     1      -3.247  -3.833  -0.458  0.00  0.00    +0.238 A 
ATOM      9  O   UNL     1      -4.433  -3.790  -0.780  0.00  0.00    -0.283 OA
ATOM     10  C   UNL     1      -0.507  -6.368   0.170  0.00  0.00    +0.093 A 
ATOM     11  C   UNL     1      -2.459  -2.575  -0.204  0.00  0.00    +0.214 A 
ENDROOT
BRANCH   1  13
ATOM     12  C   UNL     1      -0.757  -0.260   0.648  0.00  0.00    +0.015 A 
ATOM     13  C   UNL     1      -0.292  -1.577   0.489  0.00  0.00    +0.025 A 
ATOM     14  C   UNL     1       1.091  -1.758   0.418  0.00  0.00    +0.060 A 
ATOM     15  C   UNL     1       1.919  -0.651   0.267  0.00  0.00    +0.159 A 
ATOM     16  C   UNL     1       1.399   0.632   0.170  0.00  0.00    +0.158 A 
ATOM     17  C   UNL     1       0.059   0.847   0.416  0.00  0.00    +0.050 A 
BRANCH  16  18
ATOM     18  O   UNL     1       2.237   1.651  -0.176  0.00  0.00    -0.503 OA
ATOM     19  H   UNL     1       1.692   2.368  -0.551  0.00  0.00    +0.292 HD
ENDBRANCH  16  18
BRANCH  15  20
ATOM     20  O   UNL     1       3.264  -0.845   0.158  0.00  0.00    -0.503 OA
ATOM     21  H   UNL     1       3.629   0.058   0.079  0.00  0.00    +0.292 HD
ENDBRANCH  15  20
ENDBRANCH   1  13
BRANCH   5  22
ATOM     22  O   UNL     1      -4.478  -6.456  -1.018  0.00  0.00    -0.506 OA
ATOM     23  H   UNL     1      -4.915  -5.588  -0.902  0.00  0.00    +0.292 HD
ENDBRANCH   5  22
BRANCH  11  24
ATOM     24  O   UNL     1      -3.107  -1.355  -0.228  0.00  0.00    -0.453 OA
BRANCH  24  25
ATOM     25  C   UNL     1      -3.542  -0.703  -1.440  0.00  0.00    +0.340 C 
ATOM     26  O   UNL     1      -3.003   0.644  -1.565  0.00  0.00    -0.322 OA
ATOM     27  C   UNL     1      -3.467   1.657  -0.624  0.00  0.00    +0.261 C 
ATOM     28  C   UNL     1      -4.908   1.543  -0.084  0.00  0.00    +0.185 C 
ATOM     29  C   UNL     1      -5.404   0.099  -0.052  0.00  0.00    +0.180 C 
ATOM     30  C   UNL     1      -5.072  -0.536  -1.421  0.00  0.00    +0.214 C 
BRANCH  30  31
ATOM     31  O   UNL     1      -5.822  -1.714  -1.670  0.00  0.00    -0.383 OA
ATOM     32  H   UNL     1      -5.254  -2.502  -1.534  0.00  0.00    +0.210 HD
ENDBRANCH  30  31
BRANCH  29  33
ATOM     33  O   UNL     1      -6.801   0.112   0.255  0.00  0.00    -0.386 OA
ATOM     34  H   UNL     1      -7.262  -0.228  -0.534  0.00  0.00    +0.210 HD
ENDBRANCH  29  33
BRANCH  28  35
ATOM     35  O   UNL     1      -5.847   2.275  -0.891  0.00  0.00    -0.386 OA
ATOM     36  H   UNL     1      -6.688   2.246  -0.385  0.00  0.00    +0.210 HD
ENDBRANCH  28  35
BRANCH  27  37
ATOM     37  C   UNL     1      -3.231   3.037  -1.247  0.00  0.00    +0.337 C 
ATOM     38  O   UNL     1      -3.252   4.094  -0.625  0.00  0.00    -0.248 OA
BRANCH  37  39
ATOM     39  O   UNL     1      -2.951   2.970  -2.571  0.00  0.00    -0.479 OA
ATOM     40  H   UNL     1      -2.941   2.028  -2.845  0.00  0.00    +0.295 HD
ENDBRANCH  37  39
ENDBRANCH  27  37
ENDBRANCH  24  25
ENDBRANCH  11  24
BRANCH   7  41
ATOM     41  O   UNL     1      -0.410  -8.773   0.040  0.00  0.00    -0.461 OA
BRANCH  41  42
ATOM     42  C   UNL     1      -1.264  -9.937   0.194  0.00  0.00    +0.339 C 
ATOM     43  O   UNL     1      -2.103  -9.757   1.338  0.00  0.00    -0.331 OA
ATOM     44  C   UNL     1      -1.376  -9.890   2.572  0.00  0.00    +0.179 C 
ATOM     45  C   UNL     1      -1.017 -11.372   2.745  0.00  0.00    +0.177 C 
ATOM     46  C   UNL     1      -0.057 -11.771   1.613  0.00  0.00    +0.180 C 
ATOM     47  C   UNL     1      -0.594 -11.343   0.235  0.00  0.00    +0.214 C 
BRANCH  47  48
ATOM     48  O   UNL     1       0.387 -11.527  -0.790  0.00  0.00    -0.383 OA
ATOM     49  H   UNL     1       1.260 -11.588  -0.357  0.00  0.00    +0.210 HD
ENDBRANCH  47  48
BRANCH  46  50
ATOM     50  O   UNL     1       1.257 -11.242   1.821  0.00  0.00    -0.386 OA
ATOM     51  H   UNL     1       1.270 -10.315   1.555  0.00  0.00    +0.210 HD
ENDBRANCH  46  50
BRANCH  45  52
ATOM     52  O   UNL     1      -2.219 -12.152   2.691  0.00  0.00    -0.386 OA
ATOM     53  H   UNL     1      -1.992 -13.096   2.659  0.00  0.00    +0.210 HD
ENDBRANCH  45  52
BRANCH  44  54
ATOM     54  C   UNL     1      -2.243  -9.348   3.713  0.00  0.00    +0.190 C 
BRANCH  54  55
ATOM     55  O   UNL     1      -2.385  -7.924   3.626  0.00  0.00    -0.392 OA
ATOM     56  H   UNL     1      -1.504  -7.533   3.503  0.00  0.00    +0.210 HD
ENDBRANCH  54  55
ENDBRANCH  44  54
ENDBRANCH  41  42
ENDBRANCH   7  41
TORSDOF 18
