REMARK  Name = 
REMARK  30 active torsions:
REMARK  status: ('A' for Active; 'I' for Inactive)
REMARK    1  A    between atoms: C_1  and  O_2
REMARK    2  A    between atoms: O_2  and  C_3
REMARK    3  A    between atoms: C_4  and  O_68
REMARK    4  A    between atoms: C_7  and  C_9
REMARK    5  A    between atoms: C_10  and  C_11
REMARK    6  A    between atoms: C_11  and  O_13
REMARK    7  A    between atoms: O_13  and  C_14
REMARK    8  A    between atoms: C_15  and  O_67
REMARK    9  A    between atoms: C_16  and  O_66
REMARK   10  A    between atoms: C_17  and  C_64
REMARK   11  A    between atoms: C_19  and  O_20
REMARK   12  A    between atoms: O_20  and  C_21
REMARK   13  A    between atoms: C_22  and  O_63
REMARK   14  A    between atoms: C_23  and  O_62
REMARK   15  A    between atoms: C_24  and  C_60
REMARK   16  A    between atoms: C_26  and  O_27
REMARK   17  A    between atoms: O_27  and  C_28
REMARK   18  A    between atoms: C_29  and  C_52
REMARK   19  A    between atoms: C_33  and  O_40
REMARK   20  A    between atoms: C_35  and  O_39
REMARK   21  A    between atoms: O_40  and  C_41
REMARK   22  A    between atoms: C_42  and  O_51
REMARK   23  A    between atoms: C_43  and  O_50
REMARK   24  A    between atoms: C_44  and  O_49
REMARK   25  A    between atoms: C_45  and  C_47
REMARK   26  A    between atoms: C_47  and  O_48
REMARK   27  A    between atoms: C_54  and  O_59
REMARK   28  A    between atoms: C_55  and  O_58
REMARK   29  A    between atoms: C_60  and  O_61
REMARK   30  A    between atoms: C_64  and  O_65
REMARK                            x       y       z     vdW  Elec       q    Type
REMARK                         _______ _______ _______ _____ _____    ______ ____
ROOT
ATOM      1  C   UNL     1       9.836   0.083  -8.389  0.00  0.00    +0.221 C 
ATOM      2  C   UNL     1      10.525   0.799  -9.620  0.00  0.00    +0.340 C 
ATOM      3  O   UNL     1      10.639  -0.116 -10.741  0.00  0.00    -0.331 OA
ATOM      4  C   UNL     1      11.358  -1.336 -10.506  0.00  0.00    +0.179 C 
ATOM      5  C   UNL     1      10.815  -2.065  -9.267  0.00  0.00    +0.177 C 
ATOM      6  C   UNL     1      10.742  -1.115  -8.068  0.00  0.00    +0.180 C 
ENDROOT
BRANCH   5   7
ATOM      7  O   UNL     1      11.622  -3.199  -8.914  0.00  0.00    -0.386 OA
ATOM      8  H   UNL     1      11.755  -3.171  -7.944  0.00  0.00    +0.210 HD
ENDBRANCH   5   7
BRANCH   6   9
ATOM      9  O   UNL     1      10.377  -1.841  -6.892  0.00  0.00    -0.386 OA
ATOM     10  H   UNL     1       9.884  -2.638  -7.160  0.00  0.00    +0.210 HD
ENDBRANCH   6   9
BRANCH   4  11
ATOM     11  C   UNL     1      12.889  -1.152 -10.460  0.00  0.00    +0.190 C 
BRANCH  11  12
ATOM     12  O   UNL     1      13.603  -2.387 -10.475  0.00  0.00    -0.392 OA
ATOM     13  H   UNL     1      13.120  -2.995  -9.873  0.00  0.00    +0.210 HD
ENDBRANCH  11  12
ENDBRANCH   4  11
BRANCH   2  14
ATOM     14  O   UNL     1      11.855   1.276  -9.294  0.00  0.00    -0.453 OA
BRANCH  14  15
ATOM     15  C   UNL     1      12.020   2.548  -8.774  0.00  0.00    +0.214 A 
ATOM     16  C   UNL     1      11.311   3.721  -9.403  0.00  0.00    +0.238 A 
ATOM     17  O   UNL     1      10.755   3.600 -10.488  0.00  0.00    -0.283 OA
ATOM     18  C   UNL     1      11.361   5.011  -8.679  0.00  0.00    +0.109 A 
ATOM     19  C   UNL     1      12.142   5.068  -7.538  0.00  0.00    +0.147 A 
ATOM     20  C   UNL     1      12.158   6.206  -6.717  0.00  0.00    +0.093 A 
ATOM     21  C   UNL     1      11.517   7.360  -7.135  0.00  0.00    +0.131 A 
ATOM     22  C   UNL     1      10.795   7.343  -8.329  0.00  0.00    +0.092 A 
ATOM     23  O   UNL     1      12.971   4.054  -7.152  0.00  0.00    -0.451 OA
ATOM     24  C   UNL     1      10.674   6.160  -9.081  0.00  0.00    +0.135 A 
ATOM     25  C   UNL     1      12.912   2.823  -7.791  0.00  0.00    +0.181 A 
BRANCH  25  26
ATOM     26  C   UNL     1      13.882   1.869  -7.158  0.00  0.00    +0.025 A 
ATOM     27  C   UNL     1      14.177   2.025  -5.785  0.00  0.00    +0.015 A 
ATOM     28  C   UNL     1      14.970   1.109  -5.090  0.00  0.00    +0.050 A 
ATOM     29  C   UNL     1      15.493   0.029  -5.768  0.00  0.00    +0.158 A 
ATOM     30  C   UNL     1      15.355  -0.065  -7.148  0.00  0.00    +0.159 A 
ATOM     31  C   UNL     1      14.580   0.864  -7.856  0.00  0.00    +0.060 A 
BRANCH  29  32
ATOM     32  O   UNL     1      16.147  -0.942  -5.066  0.00  0.00    -0.503 OA
ATOM     33  H   UNL     1      16.294  -1.660  -5.714  0.00  0.00    +0.292 HD
ENDBRANCH  29  32
BRANCH  30  34
ATOM     34  O   UNL     1      16.009  -1.099  -7.761  0.00  0.00    -0.503 OA
ATOM     35  H   UNL     1      16.177  -0.858  -8.689  0.00  0.00    +0.292 HD
ENDBRANCH  30  34
ENDBRANCH  25  26
BRANCH  24  36
ATOM     36  O   UNL     1       9.907   6.175 -10.204  0.00  0.00    -0.506 OA
ATOM     37  H   UNL     1       9.365   6.973 -10.242  0.00  0.00    +0.292 HD
ENDBRANCH  24  36
BRANCH  21  38
ATOM     38  O   UNL     1      11.592   8.577  -6.511  0.00  0.00    -0.461 OA
BRANCH  38  39
ATOM     39  C   UNL     1      12.045   8.645  -5.147  0.00  0.00    +0.339 C 
ATOM     40  O   UNL     1      11.029   8.244  -4.222  0.00  0.00    -0.331 OA
ATOM     41  C   UNL     1       9.832   9.047  -4.315  0.00  0.00    +0.179 C 
ATOM     42  C   UNL     1      10.154  10.521  -4.011  0.00  0.00    +0.177 C 
ATOM     43  C   UNL     1      11.268  11.026  -4.947  0.00  0.00    +0.180 C 
ATOM     44  C   UNL     1      12.489  10.096  -4.836  0.00  0.00    +0.214 C 
BRANCH  44  45
ATOM     45  O   UNL     1      13.574  10.519  -5.666  0.00  0.00    -0.383 OA
ATOM     46  H   UNL     1      13.514  10.056  -6.519  0.00  0.00    +0.210 HD
ENDBRANCH  44  45
BRANCH  43  47
ATOM     47  O   UNL     1      11.605  12.375  -4.607  0.00  0.00    -0.386 OA
ATOM     48  H   UNL     1      11.810  12.383  -3.653  0.00  0.00    +0.210 HD
ENDBRANCH  43  47
BRANCH  42  49
ATOM     49  O   UNL     1      10.590  10.687  -2.648  0.00  0.00    -0.386 OA
ATOM     50  H   UNL     1      11.127   9.912  -2.397  0.00  0.00    +0.210 HD
ENDBRANCH  42  49
BRANCH  41  51
ATOM     51  C   UNL     1       8.791   8.477  -3.338  0.00  0.00    +0.190 C 
BRANCH  51  52
ATOM     52  O   UNL     1       8.431   7.138  -3.684  0.00  0.00    -0.392 OA
ATOM     53  H   UNL     1       8.200   7.118  -4.628  0.00  0.00    +0.210 HD
ENDBRANCH  51  52
ENDBRANCH  41  51
ENDBRANCH  38  39
ENDBRANCH  21  38
ENDBRANCH  14  15
ENDBRANCH   2  14
BRANCH   1  54
ATOM     54  O   UNL     1       8.442  -0.277  -8.687  0.00  0.00    -0.336 OA
BRANCH  54  56
ATOM     55  C   UNL     1       6.281  -1.345  -7.950  0.00  0.00    +0.263 C 
ATOM     56  C   UNL     1       7.694  -0.805  -7.576  0.00  0.00    +0.295 C 
ATOM     57  O   UNL     1       7.656   0.075  -6.450  0.00  0.00    -0.340 OA
ATOM     58  C   UNL     1       6.726   1.161  -6.510  0.00  0.00    +0.178 C 
ATOM     59  C   UNL     1       5.297   0.676  -6.787  0.00  0.00    +0.178 C 
ATOM     60  C   UNL     1       5.258  -0.212  -8.038  0.00  0.00    +0.191 C 
BRANCH  59  61
ATOM     61  O   UNL     1       4.416   1.798  -6.908  0.00  0.00    -0.386 OA
ATOM     62  H   UNL     1       3.960   1.736  -7.770  0.00  0.00    +0.210 HD
ENDBRANCH  59  61
BRANCH  60  63
ATOM     63  O   UNL     1       3.926  -0.727  -8.204  0.00  0.00    -0.385 OA
ATOM     64  H   UNL     1       3.793  -1.427  -7.538  0.00  0.00    +0.210 HD
ENDBRANCH  60  63
BRANCH  58  65
ATOM     65  C   UNL     1       7.180   2.282  -7.465  0.00  0.00    +0.190 C 
BRANCH  65  66
ATOM     66  O   UNL     1       8.482   2.767  -7.126  0.00  0.00    -0.392 OA
ATOM     67  H   UNL     1       8.538   2.785  -6.154  0.00  0.00    +0.210 HD
ENDBRANCH  65  66
ENDBRANCH  58  65
BRANCH  55  68
ATOM     68  O   UNL     1       5.825  -2.249  -6.882  0.00  0.00    -0.450 OA
BRANCH  68  69
ATOM     69  C   UNL     1       5.691  -3.567  -7.186  0.00  0.00    +0.332 C 
ATOM     70  O   UNL     1       5.877  -4.076  -8.277  0.00  0.00    -0.246 OA
BRANCH  69  72
ATOM     71  C   UNL     1       4.955  -5.606  -6.018  0.00  0.00    +0.015 C 
ATOM     72  C   UNL     1       5.279  -4.302  -5.964  0.00  0.00    +0.092 C 
BRANCH  71  75
ATOM     73  C   UNL     1       3.569  -6.719  -2.650  0.00  0.00    +0.162 A 
ATOM     74  C   UNL     1       3.938  -5.900  -3.725  0.00  0.00    +0.057 A 
ATOM     75  C   UNL     1       4.579  -6.437  -4.854  0.00  0.00    -0.021 A 
ATOM     76  C   UNL     1       4.827  -7.819  -4.889  0.00  0.00    +0.012 A 
ATOM     77  C   UNL     1       4.486  -8.639  -3.808  0.00  0.00    +0.050 A 
ATOM     78  C   UNL     1       3.866  -8.078  -2.702  0.00  0.00    +0.158 A 
BRANCH  78  79
ATOM     79  O   UNL     1       3.535  -8.903  -1.656  0.00  0.00    -0.503 OA
ATOM     80  H   UNL     1       3.101  -8.328  -0.999  0.00  0.00    +0.292 HD
ENDBRANCH  78  79
BRANCH  73  82
ATOM     81  C   UNL     1       2.198  -5.072  -1.658  0.00  0.00    +0.277 C 
ATOM     82  O   UNL     1       2.928  -6.288  -1.515  0.00  0.00    -0.491 OA
ENDBRANCH  73  82
ENDBRANCH  71  75
ENDBRANCH  69  72
ENDBRANCH  68  69
ENDBRANCH  55  68
ENDBRANCH  54  56
ENDBRANCH   1  54
TORSDOF 29
