REMARK  Name = 
REMARK  26 active torsions:
REMARK  status: ('A' for Active; 'I' for Inactive)
REMARK    1  A    between atoms: C_1  and  O_2
REMARK    2  A    between atoms: O_2  and  C_3
REMARK    3  A    between atoms: C_5  and  C_12
REMARK    4  A    between atoms: C_7  and  O_10
REMARK    5  A    between atoms: C_8  and  O_9
REMARK    6  A    between atoms: O_10  and  C_11
REMARK    7  A    between atoms: C_13  and  C_14
REMARK    8  A    between atoms: C_14  and  O_16
REMARK    9  A    between atoms: O_16  and  C_17
REMARK   10  A    between atoms: C_17  and  C_18
REMARK   11  A    between atoms: C_19  and  O_64
REMARK   12  A    between atoms: C_21  and  O_63
REMARK   13  A    between atoms: C_22  and  O_62
REMARK   14  A    between atoms: C_24  and  O_27
REMARK   15  A    between atoms: O_27  and  C_28
REMARK   16  A    between atoms: C_29  and  O_40
REMARK   17  A    between atoms: C_32  and  C_38
REMARK   18  A    between atoms: C_33  and  O_37
REMARK   19  A    between atoms: C_35  and  O_36
REMARK   20  A    between atoms: C_38  and  O_39
REMARK   21  A    between atoms: O_40  and  C_41
REMARK   22  A    between atoms: C_42  and  C_54
REMARK   23  A    between atoms: C_46  and  O_53
REMARK   24  A    between atoms: C_48  and  O_52
REMARK   25  A    between atoms: C_56  and  O_61
REMARK   26  A    between atoms: C_57  and  O_60
REMARK                            x       y       z     vdW  Elec       q    Type
REMARK                         _______ _______ _______ _____ _____    ______ ____
ROOT
ATOM      1  C   UNL     1       3.755  13.386   1.552  0.00  0.00    +0.221 C 
ATOM      2  C   UNL     1       3.863  14.534   0.531  0.00  0.00    +0.180 C 
ATOM      3  C   UNL     1       4.469  15.825   1.137  0.00  0.00    +0.177 C 
ATOM      4  C   UNL     1       4.245  16.063   2.648  0.00  0.00    +0.179 C 
ATOM      5  O   UNL     1       4.015  14.899   3.440  0.00  0.00    -0.331 OA
ATOM      6  C   UNL     1       3.111  13.954   2.859  0.00  0.00    +0.340 C 
ENDROOT
BRANCH   3   7
ATOM      7  O   UNL     1       4.103  16.999   0.404  0.00  0.00    -0.386 OA
ATOM      8  H   UNL     1       4.852  17.264  -0.156  0.00  0.00    +0.210 HD
ENDBRANCH   3   7
BRANCH   2   9
ATOM      9  O   UNL     1       2.602  14.797  -0.104  0.00  0.00    -0.386 OA
ATOM     10  H   UNL     1       2.062  13.989  -0.092  0.00  0.00    +0.210 HD
ENDBRANCH   2   9
BRANCH   4  11
ATOM     11  C   UNL     1       3.238  17.162   3.011  0.00  0.00    +0.190 C 
BRANCH  11  12
ATOM     12  O   UNL     1       3.020  17.246   4.426  0.00  0.00    -0.392 OA
ATOM     13  H   UNL     1       3.861  17.008   4.859  0.00  0.00    +0.210 HD
ENDBRANCH  11  12
ENDBRANCH   4  11
BRANCH   6  14
ATOM     14  O   UNL     1       1.768  14.444   2.637  0.00  0.00    -0.453 OA
BRANCH  14  15
ATOM     15  C   UNL     1       1.069  14.941   3.754  0.00  0.00    +0.214 A 
ATOM     16  C   UNL     1       1.219  14.349   5.133  0.00  0.00    +0.238 A 
ATOM     17  O   UNL     1       1.740  13.258   5.310  0.00  0.00    -0.283 OA
ATOM     18  C   UNL     1       0.575  15.069   6.249  0.00  0.00    +0.109 A 
ATOM     19  C   UNL     1      -0.428  16.012   5.921  0.00  0.00    +0.147 A 
ATOM     20  C   UNL     1      -1.165  16.656   6.881  0.00  0.00    +0.092 A 
ATOM     21  C   UNL     1      -0.939  16.394   8.219  0.00  0.00    +0.124 A 
ATOM     22  C   UNL     1       0.056  15.482   8.587  0.00  0.00    +0.091 A 
ATOM     23  O   UNL     1      -0.675  16.379   4.635  0.00  0.00    -0.451 OA
ATOM     24  C   UNL     1       0.790  14.829   7.611  0.00  0.00    +0.135 A 
ATOM     25  C   UNL     1       0.119  15.898   3.625  0.00  0.00    +0.181 A 
BRANCH  25  26
ATOM     26  C   UNL     1      -0.445  16.389   2.353  0.00  0.00    +0.025 A 
ATOM     27  C   UNL     1      -1.388  15.534   1.829  0.00  0.00    +0.015 A 
ATOM     28  C   UNL     1      -2.242  16.015   0.833  0.00  0.00    +0.050 A 
ATOM     29  C   UNL     1      -2.122  17.275   0.283  0.00  0.00    +0.158 A 
ATOM     30  C   UNL     1      -1.187  18.123   0.796  0.00  0.00    +0.159 A 
ATOM     31  C   UNL     1      -0.344  17.703   1.838  0.00  0.00    +0.060 A 
BRANCH  30  32
ATOM     32  O   UNL     1      -1.142  19.426   0.389  0.00  0.00    -0.503 OA
ATOM     33  H   UNL     1      -2.064  19.741   0.479  0.00  0.00    +0.292 HD
ENDBRANCH  30  32
BRANCH  29  34
ATOM     34  O   UNL     1      -2.988  17.594  -0.721  0.00  0.00    -0.503 OA
ATOM     35  H   UNL     1      -2.624  18.361  -1.203  0.00  0.00    +0.292 HD
ENDBRANCH  29  34
ENDBRANCH  25  26
BRANCH  24  36
ATOM     36  O   UNL     1       1.742  13.951   7.997  0.00  0.00    -0.506 OA
ATOM     37  H   UNL     1       1.777  13.859   8.964  0.00  0.00    +0.292 HD
ENDBRANCH  24  36
BRANCH  21  38
ATOM     38  O   UNL     1      -1.641  17.027   9.201  0.00  0.00    -0.507 OA
ATOM     39  H   UNL     1      -2.239  17.664   8.795  0.00  0.00    +0.292 HD
ENDBRANCH  21  38
ENDBRANCH  14  15
ENDBRANCH   6  14
BRANCH   1  40
ATOM     40  O   UNL     1       5.092  12.818   1.710  0.00  0.00    -0.337 OA
BRANCH  40  43
ATOM     41  C   UNL     1       4.528  10.680   4.582  0.00  0.00    +0.190 C 
ATOM     42  O   UNL     1       4.642  11.794   3.713  0.00  0.00    -0.339 OA
ATOM     43  C   UNL     1       5.100  11.555   2.399  0.00  0.00    +0.282 C 
ATOM     44  C   UNL     1       6.516  10.919   2.441  0.00  0.00    +0.201 C 
ATOM     45  C   UNL     1       6.522   9.695   3.398  0.00  0.00    +0.179 C 
ATOM     46  C   UNL     1       5.922  10.074   4.770  0.00  0.00    +0.178 C 
BRANCH  46  47
ATOM     47  O   UNL     1       5.859   8.958   5.653  0.00  0.00    -0.386 OA
ATOM     48  H   UNL     1       5.621   9.295   6.535  0.00  0.00    +0.210 HD
ENDBRANCH  46  47
BRANCH  45  49
ATOM     49  O   UNL     1       7.850   9.170   3.549  0.00  0.00    -0.386 OA
ATOM     50  H   UNL     1       8.430   9.876   3.879  0.00  0.00    +0.210 HD
ENDBRANCH  45  49
BRANCH  44  51
ATOM     51  O   UNL     1       6.967  10.534   1.131  0.00  0.00    -0.384 OA
ATOM     52  H   UNL     1       6.439   9.773   0.832  0.00  0.00    +0.210 HD
ENDBRANCH  44  51
BRANCH  41  53
ATOM     53  C   UNL     1       3.455   9.660   4.154  0.00  0.00    +0.266 C 
BRANCH  53  54
ATOM     54  O   UNL     1       2.168  10.291   4.002  0.00  0.00    -0.459 OA
BRANCH  54  55
ATOM     55  C   UNL     1       1.704  10.394   2.734  0.00  0.00    +0.332 C 
ATOM     56  O   UNL     1       2.288  10.030   1.724  0.00  0.00    -0.246 OA
BRANCH  55  58
ATOM     57  C   UNL     1      -0.185  11.263   1.536  0.00  0.00    +0.015 C 
ATOM     58  C   UNL     1       0.373  11.031   2.733  0.00  0.00    +0.092 C 
BRANCH  57  63
ATOM     59  C   UNL     1      -2.838  13.118  -0.333  0.00  0.00    +0.166 A 
ATOM     60  C   UNL     1      -3.887  13.204   0.627  0.00  0.00    +0.201 A 
ATOM     61  C   UNL     1      -3.713  12.677   1.915  0.00  0.00    +0.166 A 
ATOM     62  C   UNL     1      -2.513  11.990   2.197  0.00  0.00    +0.057 A 
ATOM     63  C   UNL     1      -1.479  11.897   1.263  0.00  0.00    -0.018 A 
ATOM     64  C   UNL     1      -1.659  12.450  -0.008  0.00  0.00    +0.057 A 
BRANCH  59  66
ATOM     65  C   UNL     1      -1.747  14.418  -2.023  0.00  0.00    +0.277 C 
ATOM     66  O   UNL     1      -2.956  13.817  -1.520  0.00  0.00    -0.491 OA
ENDBRANCH  59  66
BRANCH  61  67
ATOM     67  O   UNL     1      -4.499  12.754   3.028  0.00  0.00    -0.491 OA
ATOM     68  C   UNL     1      -5.752  13.412   3.059  0.00  0.00    +0.277 C 
ENDBRANCH  61  67
BRANCH  60  69
ATOM     69  O   UNL     1      -4.984  13.958   0.287  0.00  0.00    -0.501 OA
ATOM     70  H   UNL     1      -5.191  14.533   1.043  0.00  0.00    +0.292 HD
ENDBRANCH  60  69
ENDBRANCH  57  63
ENDBRANCH  55  58
ENDBRANCH  54  55
ENDBRANCH  53  54
ENDBRANCH  41  53
ENDBRANCH  40  43
ENDBRANCH   1  40
TORSDOF 24
