REMARK  Name = 
REMARK  21 active torsions:
REMARK  status: ('A' for Active; 'I' for Inactive)
REMARK    1  A    between atoms: C_1  and  C_2
REMARK    2  A    between atoms: C_3  and  O_60
REMARK    3  A    between atoms: C_5  and  O_59
REMARK    4  A    between atoms: C_6  and  O_58
REMARK    5  A    between atoms: C_8  and  O_11
REMARK    6  A    between atoms: O_11  and  C_12
REMARK    7  A    between atoms: C_12  and  C_13
REMARK    8  A    between atoms: C_14  and  O_57
REMARK    9  A    between atoms: C_16  and  O_56
REMARK   10  A    between atoms: C_18  and  O_44
REMARK   11  A    between atoms: C_19  and  O_22
REMARK   12  A    between atoms: O_22  and  C_23
REMARK   13  A    between atoms: C_24  and  C_36
REMARK   14  A    between atoms: C_28  and  O_35
REMARK   15  A    between atoms: C_30  and  O_34
REMARK   16  A    between atoms: C_38  and  O_43
REMARK   17  A    between atoms: C_39  and  O_42
REMARK   18  A    between atoms: O_44  and  C_45
REMARK   19  A    between atoms: C_45  and  C_47
REMARK   20  A    between atoms: C_48  and  C_49
REMARK   21  A    between atoms: C_52  and  O_55
REMARK                            x       y       z     vdW  Elec       q    Type
REMARK                         _______ _______ _______ _____ _____    ______ ____
ROOT
ATOM      1  C   UNL     1       3.190   3.765  -4.374  0.00  0.00    +0.179 C 
ATOM      2  O   UNL     1       3.757   4.754  -3.502  0.00  0.00    -0.330 OA
ATOM      3  C   UNL     1       2.876   5.709  -2.889  0.00  0.00    +0.352 C 
ATOM      4  C   UNL     1       1.874   6.390  -3.878  0.00  0.00    +0.276 C 
ATOM      5  C   UNL     1       1.193   5.296  -4.705  0.00  0.00    +0.192 C 
ATOM      6  C   UNL     1       2.233   4.420  -5.408  0.00  0.00    +0.178 C 
ENDROOT
BRANCH   6   7
ATOM      7  O   UNL     1       1.525   3.458  -6.206  0.00  0.00    -0.386 OA
ATOM      8  H   UNL     1       2.166   3.058  -6.823  0.00  0.00    +0.210 HD
ENDBRANCH   6   7
BRANCH   5   9
ATOM      9  O   UNL     1       0.294   5.845  -5.678  0.00  0.00    -0.385 OA
ATOM     10  H   UNL     1      -0.005   5.083  -6.215  0.00  0.00    +0.210 HD
ENDBRANCH   5   9
BRANCH   4  11
ATOM     11  O   UNL     1       2.520   7.353  -4.770  0.00  0.00    -0.449 OA
BRANCH  11  12
ATOM     12  C   UNL     1       1.997   8.618  -4.764  0.00  0.00    +0.332 C 
ATOM     13  O   UNL     1       1.116   9.039  -4.031  0.00  0.00    -0.246 OA
BRANCH  12  14
ATOM     14  C   UNL     1       2.634   9.412  -5.825  0.00  0.00    +0.092 C 
ATOM     15  C   UNL     1       2.319  10.706  -6.034  0.00  0.00    +0.015 C 
BRANCH  15  16
ATOM     16  C   UNL     1       2.862  11.453  -7.175  0.00  0.00    -0.025 A 
ATOM     17  C   UNL     1       4.125  12.057  -7.133  0.00  0.00    +0.011 A 
ATOM     18  C   UNL     1       4.675  12.615  -8.293  0.00  0.00    +0.046 A 
ATOM     19  C   UNL     1       3.962  12.575  -9.486  0.00  0.00    +0.117 A 
ATOM     20  C   UNL     1       2.680  12.039  -9.530  0.00  0.00    +0.046 A 
ATOM     21  C   UNL     1       2.130  11.483  -8.372  0.00  0.00    +0.011 A 
BRANCH  19  22
ATOM     22  O   UNL     1       4.563  13.061 -10.609  0.00  0.00    -0.507 OA
ATOM     23  H   UNL     1       4.017  12.825 -11.378  0.00  0.00    +0.292 HD
ENDBRANCH  19  22
ENDBRANCH  15  16
ENDBRANCH  12  14
ENDBRANCH  11  12
ENDBRANCH   4  11
BRANCH   3  24
ATOM     24  O   UNL     1       3.639   6.761  -2.275  0.00  0.00    -0.452 OA
BRANCH  24  25
ATOM     25  C   UNL     1       4.397   6.577  -1.124  0.00  0.00    +0.214 A 
ATOM     26  C   UNL     1       4.419   5.326  -0.311  0.00  0.00    +0.238 A 
ATOM     27  O   UNL     1       3.623   4.418  -0.513  0.00  0.00    -0.283 OA
ATOM     28  C   UNL     1       5.460   5.242   0.754  0.00  0.00    +0.109 A 
ATOM     29  C   UNL     1       6.133   6.392   1.133  0.00  0.00    +0.147 A 
ATOM     30  C   UNL     1       7.047   6.378   2.204  0.00  0.00    +0.092 A 
ATOM     31  C   UNL     1       7.291   5.193   2.890  0.00  0.00    +0.124 A 
ATOM     32  C   UNL     1       6.676   4.030   2.494  0.00  0.00    +0.091 A 
ATOM     33  O   UNL     1       5.981   7.567   0.453  0.00  0.00    -0.451 OA
ATOM     34  C   UNL     1       5.799   4.066   1.414  0.00  0.00    +0.135 A 
ATOM     35  C   UNL     1       5.244   7.549  -0.715  0.00  0.00    +0.181 A 
BRANCH  35  36
ATOM     36  C   UNL     1       5.666   8.594  -1.649  0.00  0.00    +0.025 A 
ATOM     37  C   UNL     1       6.526   8.171  -2.680  0.00  0.00    +0.015 A 
ATOM     38  C   UNL     1       7.070   9.085  -3.567  0.00  0.00    +0.050 A 
ATOM     39  C   UNL     1       6.662  10.407  -3.487  0.00  0.00    +0.158 A 
ATOM     40  C   UNL     1       5.784  10.837  -2.490  0.00  0.00    +0.159 A 
ATOM     41  C   UNL     1       5.321   9.944  -1.525  0.00  0.00    +0.060 A 
BRANCH  40  42
ATOM     42  O   UNL     1       5.355  12.134  -2.525  0.00  0.00    -0.503 OA
ATOM     43  H   UNL     1       4.896  12.345  -1.699  0.00  0.00    +0.292 HD
ENDBRANCH  40  42
BRANCH  39  44
ATOM     44  O   UNL     1       7.095  11.275  -4.445  0.00  0.00    -0.503 OA
ATOM     45  H   UNL     1       6.776  10.899  -5.282  0.00  0.00    +0.292 HD
ENDBRANCH  39  44
ENDBRANCH  35  36
BRANCH  34  46
ATOM     46  O   UNL     1       5.355   2.870   0.982  0.00  0.00    -0.506 OA
ATOM     47  H   UNL     1       5.465   2.248   1.721  0.00  0.00    +0.292 HD
ENDBRANCH  34  46
BRANCH  31  48
ATOM     48  O   UNL     1       8.153   5.088   3.934  0.00  0.00    -0.507 OA
ATOM     49  H   UNL     1       8.531   5.962   4.120  0.00  0.00    +0.292 HD
ENDBRANCH  31  48
ENDBRANCH  24  25
ENDBRANCH   3  24
BRANCH   1  50
ATOM     50  C   UNL     1       2.553   2.510  -3.689  0.00  0.00    +0.197 C 
BRANCH  50  51
ATOM     51  O   UNL     1       3.433   1.577  -3.071  0.00  0.00    -0.346 OA
BRANCH  51  55
ATOM     52  C   UNL     1       6.145   0.408   0.047  0.00  0.00    +0.041 C 
ATOM     53  C   UNL     1       4.706  -0.084  -0.123  0.00  0.00    +0.149 C 
ATOM     54  O   UNL     1       4.230   0.212  -1.440  0.00  0.00    -0.343 OA
ATOM     55  C   UNL     1       3.663   1.527  -1.655  0.00  0.00    +0.282 C 
ATOM     56  C   UNL     1       2.418   1.671  -0.727  0.00  0.00    +0.201 C 
ATOM     57  C   UNL     1       2.847   1.537   0.741  0.00  0.00    +0.179 C 
ATOM     58  C   UNL     1       3.674   0.258   0.985  0.00  0.00    +0.174 C 
BRANCH  58  59
ATOM     59  O   UNL     1       2.726  -0.840   1.036  0.00  0.00    -0.387 OA
ATOM     60  H   UNL     1       2.267  -0.829   0.168  0.00  0.00    +0.210 HD
ENDBRANCH  58  59
BRANCH  57  61
ATOM     61  O   UNL     1       1.721   1.577   1.637  0.00  0.00    -0.386 OA
ATOM     62  H   UNL     1       1.266   0.723   1.512  0.00  0.00    +0.210 HD
ENDBRANCH  57  61
BRANCH  56  63
ATOM     63  O   UNL     1       1.440   0.636  -0.978  0.00  0.00    -0.384 OA
ATOM     64  H   UNL     1       1.217   0.703  -1.922  0.00  0.00    +0.210 HD
ENDBRANCH  56  63
ENDBRANCH  51  55
ENDBRANCH  50  51
ENDBRANCH   1  50
TORSDOF 20
