REMARK  Name = 
REMARK  26 active torsions:
REMARK  status: ('A' for Active; 'I' for Inactive)
REMARK    1  A    between atoms: C_1  and  C_2
REMARK    2  A    between atoms: C_3  and  O_72
REMARK    3  A    between atoms: C_5  and  O_71
REMARK    4  A    between atoms: C_7  and  O_70
REMARK    5  A    between atoms: C_8  and  O_11
REMARK    6  A    between atoms: O_11  and  C_12
REMARK    7  A    between atoms: C_12  and  C_13
REMARK    8  A    between atoms: C_14  and  O_58
REMARK    9  A    between atoms: C_16  and  O_57
REMARK   10  A    between atoms: C_17  and  O_56
REMARK   11  A    between atoms: C_18  and  O_21
REMARK   12  A    between atoms: O_21  and  C_22
REMARK   13  A    between atoms: C_23  and  C_48
REMARK   14  A    between atoms: C_27  and  O_34
REMARK   15  A    between atoms: C_29  and  O_33
REMARK   16  A    between atoms: O_34  and  C_35
REMARK   17  A    between atoms: C_37  and  O_47
REMARK   18  A    between atoms: C_38  and  O_46
REMARK   19  A    between atoms: C_40  and  O_45
REMARK   20  A    between atoms: C_42  and  C_44
REMARK   21  A    between atoms: C_50  and  O_55
REMARK   22  A    between atoms: C_51  and  O_54
REMARK   23  A    between atoms: O_58  and  C_59
REMARK   24  A    between atoms: C_59  and  C_61
REMARK   25  A    between atoms: C_62  and  C_63
REMARK   26  A    between atoms: C_66  and  O_69
REMARK                            x       y       z     vdW  Elec       q    Type
REMARK                         _______ _______ _______ _____ _____    ______ ____
ROOT
ATOM      1  C   UNL     1       3.145   3.985  -4.318  0.00  0.00    +0.191 C 
ATOM      2  O   UNL     1       3.697   4.978  -3.420  0.00  0.00    -0.330 OA
ATOM      3  C   UNL     1       2.821   5.962  -2.839  0.00  0.00    +0.340 C 
ATOM      4  C   UNL     1       1.881   6.637  -3.888  0.00  0.00    +0.215 C 
ATOM      5  C   UNL     1       1.144   5.522  -4.648  0.00  0.00    +0.192 C 
ATOM      6  C   UNL     1       2.143   4.592  -5.347  0.00  0.00    +0.239 C 
ENDROOT
BRANCH   5   7
ATOM      7  O   UNL     1       0.224   6.063  -5.605  0.00  0.00    -0.385 OA
ATOM      8  H   UNL     1       0.710   6.741  -6.112  0.00  0.00    +0.210 HD
ENDBRANCH   5   7
BRANCH   4   9
ATOM      9  O   UNL     1       2.553   7.511  -4.813  0.00  0.00    -0.383 OA
ATOM     10  H   UNL     1       3.285   7.007  -5.218  0.00  0.00    +0.210 HD
ENDBRANCH   4   9
BRANCH   6  11
ATOM     11  O   UNL     1       2.837   5.397  -6.338  0.00  0.00    -0.453 OA
BRANCH  11  12
ATOM     12  C   UNL     1       3.288   4.751  -7.433  0.00  0.00    +0.332 C 
ATOM     13  O   UNL     1       3.264   3.533  -7.560  0.00  0.00    -0.246 OA
BRANCH  12  14
ATOM     14  C   UNL     1       3.798   5.673  -8.454  0.00  0.00    +0.092 C 
ATOM     15  C   UNL     1       3.496   6.980  -8.517  0.00  0.00    +0.015 C 
BRANCH  15  16
ATOM     16  C   UNL     1       4.064   7.804  -9.580  0.00  0.00    -0.025 A 
ATOM     17  C   UNL     1       5.323   8.388  -9.395  0.00  0.00    +0.011 A 
ATOM     18  C   UNL     1       5.910   9.145 -10.408  0.00  0.00    +0.046 A 
ATOM     19  C   UNL     1       5.248   9.301 -11.617  0.00  0.00    +0.117 A 
ATOM     20  C   UNL     1       3.988   8.743 -11.816  0.00  0.00    +0.046 A 
ATOM     21  C   UNL     1       3.396   7.995 -10.798  0.00  0.00    +0.011 A 
BRANCH  19  22
ATOM     22  O   UNL     1       5.874  10.013 -12.596  0.00  0.00    -0.507 OA
ATOM     23  H   UNL     1       5.394   9.878 -13.430  0.00  0.00    +0.292 HD
ENDBRANCH  19  22
ENDBRANCH  15  16
ENDBRANCH  12  14
ENDBRANCH  11  12
ENDBRANCH   6  11
BRANCH   3  24
ATOM     24  O   UNL     1       3.578   6.996  -2.147  0.00  0.00    -0.453 OA
BRANCH  24  25
ATOM     25  C   UNL     1       4.158   6.750  -0.896  0.00  0.00    +0.214 A 
ATOM     26  C   UNL     1       3.484   5.862   0.129  0.00  0.00    +0.238 A 
ATOM     27  O   UNL     1       2.599   5.072  -0.164  0.00  0.00    -0.283 OA
ATOM     28  C   UNL     1       3.904   5.997   1.540  0.00  0.00    +0.109 A 
ATOM     29  C   UNL     1       5.129   6.594   1.762  0.00  0.00    +0.147 A 
ATOM     30  C   UNL     1       5.643   6.763   3.049  0.00  0.00    +0.093 A 
ATOM     31  C   UNL     1       4.905   6.381   4.171  0.00  0.00    +0.131 A 
ATOM     32  C   UNL     1       3.649   5.803   3.964  0.00  0.00    +0.092 A 
ATOM     33  O   UNL     1       5.898   7.077   0.748  0.00  0.00    -0.451 OA
ATOM     34  C   UNL     1       3.167   5.587   2.659  0.00  0.00    +0.135 A 
ATOM     35  C   UNL     1       5.274   7.394  -0.449  0.00  0.00    +0.181 A 
BRANCH  35  36
ATOM     36  C   UNL     1       5.978   8.545  -1.084  0.00  0.00    +0.025 A 
ATOM     37  C   UNL     1       5.237   9.526  -1.754  0.00  0.00    +0.015 A 
ATOM     38  C   UNL     1       5.857  10.624  -2.350  0.00  0.00    +0.050 A 
ATOM     39  C   UNL     1       7.206  10.848  -2.129  0.00  0.00    +0.158 A 
ATOM     40  C   UNL     1       7.941   9.989  -1.323  0.00  0.00    +0.159 A 
ATOM     41  C   UNL     1       7.352   8.814  -0.844  0.00  0.00    +0.060 A 
BRANCH  40  42
ATOM     42  O   UNL     1       9.200  10.378  -0.954  0.00  0.00    -0.503 OA
ATOM     43  H   UNL     1       9.681   9.632  -0.567  0.00  0.00    +0.292 HD
ENDBRANCH  40  42
BRANCH  39  44
ATOM     44  O   UNL     1       7.785  11.960  -2.665  0.00  0.00    -0.503 OA
ATOM     45  H   UNL     1       7.433  12.704  -2.151  0.00  0.00    +0.292 HD
ENDBRANCH  39  44
ENDBRANCH  35  36
BRANCH  34  46
ATOM     46  O   UNL     1       1.928   5.018   2.570  0.00  0.00    -0.506 OA
ATOM     47  H   UNL     1       2.047   4.080   2.292  0.00  0.00    +0.292 HD
ENDBRANCH  34  46
BRANCH  31  48
ATOM     48  O   UNL     1       5.310   6.560   5.484  0.00  0.00    -0.461 OA
BRANCH  48  49
ATOM     49  C   UNL     1       6.710   6.861   5.660  0.00  0.00    +0.339 C 
ATOM     50  O   UNL     1       7.529   5.750   5.277  0.00  0.00    -0.334 OA
ATOM     51  C   UNL     1       7.348   4.619   6.142  0.00  0.00    +0.150 C 
ATOM     52  C   UNL     1       8.102   3.449   5.526  0.00  0.00    +0.041 C 
ATOM     53  C   UNL     1       7.850   4.948   7.558  0.00  0.00    +0.174 C 
ATOM     54  C   UNL     1       7.115   6.179   8.120  0.00  0.00    +0.180 C 
ATOM     55  C   UNL     1       7.093   7.317   7.089  0.00  0.00    +0.214 C 
BRANCH  55  56
ATOM     56  O   UNL     1       6.334   8.442   7.532  0.00  0.00    -0.383 OA
ATOM     57  H   UNL     1       5.390   8.217   7.450  0.00  0.00    +0.210 HD
ENDBRANCH  55  56
BRANCH  54  58
ATOM     58  O   UNL     1       5.806   5.806   8.577  0.00  0.00    -0.386 OA
ATOM     59  H   UNL     1       5.298   5.427   7.840  0.00  0.00    +0.210 HD
ENDBRANCH  54  58
BRANCH  53  60
ATOM     60  O   UNL     1       7.679   3.828   8.428  0.00  0.00    -0.387 OA
ATOM     61  H   UNL     1       6.924   4.032   9.016  0.00  0.00    +0.210 HD
ENDBRANCH  53  60
ENDBRANCH  48  49
ENDBRANCH  31  48
ENDBRANCH  24  25
ENDBRANCH   3  24
BRANCH   1  62
ATOM     62  C   UNL     1       2.507   2.728  -3.635  0.00  0.00    +0.198 C 
BRANCH  62  63
ATOM     63  O   UNL     1       3.374   1.758  -3.051  0.00  0.00    -0.346 OA
BRANCH  63  67
ATOM     64  C   UNL     1       6.247   0.666   0.025  0.00  0.00    +0.041 C 
ATOM     65  C   UNL     1       4.822   0.139  -0.133  0.00  0.00    +0.149 C 
ATOM     66  O   UNL     1       4.318   0.454  -1.440  0.00  0.00    -0.343 OA
ATOM     67  C   UNL     1       3.777   1.775  -1.678  0.00  0.00    +0.282 C 
ATOM     68  C   UNL     1       2.659   2.012  -0.629  0.00  0.00    +0.201 C 
ATOM     69  C   UNL     1       3.341   1.987   0.763  0.00  0.00    +0.179 C 
ATOM     70  C   UNL     1       3.921   0.591   1.032  0.00  0.00    +0.174 C 
BRANCH  70  71
ATOM     71  O   UNL     1       2.855  -0.347   1.251  0.00  0.00    -0.387 OA
ATOM     72  H   UNL     1       2.198  -0.200   0.534  0.00  0.00    +0.210 HD
ENDBRANCH  70  71
BRANCH  69  73
ATOM     73  O   UNL     1       2.469   2.392   1.836  0.00  0.00    -0.386 OA
ATOM     74  H   UNL     1       2.500   1.674   2.502  0.00  0.00    +0.210 HD
ENDBRANCH  69  73
BRANCH  68  75
ATOM     75  O   UNL     1       1.657   0.968  -0.707  0.00  0.00    -0.384 OA
ATOM     76  H   UNL     1       1.627   0.690  -1.644  0.00  0.00    +0.210 HD
ENDBRANCH  68  75
ENDBRANCH  63  67
ENDBRANCH  62  63
ENDBRANCH   1  62
TORSDOF 24
