REMARK  Name = 
REMARK  16 active torsions:
REMARK  status: ('A' for Active; 'I' for Inactive)
REMARK    1  A    between atoms: C_2  and  O_47
REMARK    2  A    between atoms: C_4  and  O_46
REMARK    3  A    between atoms: C_6  and  O_45
REMARK    4  A    between atoms: C_7  and  O_10
REMARK    5  A    between atoms: O_10  and  C_11
REMARK    6  A    between atoms: C_11  and  C_12
REMARK    7  A    between atoms: C_13  and  O_44
REMARK    8  A    between atoms: C_15  and  O_43
REMARK    9  A    between atoms: C_16  and  O_42
REMARK   10  A    between atoms: C_17  and  O_20
REMARK   11  A    between atoms: O_20  and  C_21
REMARK   12  A    between atoms: C_22  and  C_34
REMARK   13  A    between atoms: C_26  and  O_33
REMARK   14  A    between atoms: C_28  and  O_32
REMARK   15  A    between atoms: C_36  and  O_41
REMARK   16  A    between atoms: C_37  and  O_40
REMARK                            x       y       z     vdW  Elec       q    Type
REMARK                         _______ _______ _______ _____ _____    ______ ____
ROOT
ATOM      1  C   UNL     1       3.502  -3.579   0.161  0.00  0.00    +0.179 C 
ATOM      2  O   UNL     1       4.783  -3.389  -0.520  0.00  0.00    -0.331 OA
ATOM      3  C   UNL     1       4.611  -3.428  -1.960  0.00  0.00    +0.340 C 
ATOM      4  C   UNL     1       4.239  -4.868  -2.353  0.00  0.00    +0.214 C 
ATOM      5  C   UNL     1       2.909  -5.246  -1.682  0.00  0.00    +0.180 C 
ATOM      6  C   UNL     1       2.961  -4.990  -0.159  0.00  0.00    +0.177 C 
ENDROOT
BRANCH   6   7
ATOM      7  O   UNL     1       1.680  -5.210   0.425  0.00  0.00    -0.386 OA
ATOM      8  H   UNL     1       1.804  -5.335   1.382  0.00  0.00    +0.210 HD
ENDBRANCH   6   7
BRANCH   5   9
ATOM      9  O   UNL     1       2.644  -6.637  -1.936  0.00  0.00    -0.386 OA
ATOM     10  H   UNL     1       3.516  -7.080  -1.924  0.00  0.00    +0.210 HD
ENDBRANCH   5   9
BRANCH   4  11
ATOM     11  O   UNL     1       5.240  -5.813  -1.901  0.00  0.00    -0.383 OA
ATOM     12  H   UNL     1       5.740  -5.373  -1.187  0.00  0.00    +0.210 HD
ENDBRANCH   4  11
BRANCH   3  13
ATOM     13  O   UNL     1       5.790  -2.983  -2.649  0.00  0.00    -0.453 OA
BRANCH  13  14
ATOM     14  C   UNL     1       5.569  -1.927  -3.548  0.00  0.00    +0.214 A 
ATOM     15  C   UNL     1       4.295  -1.869  -4.353  0.00  0.00    +0.238 A 
ATOM     16  O   UNL     1       3.483  -2.789  -4.316  0.00  0.00    -0.283 OA
ATOM     17  C   UNL     1       4.060  -0.685  -5.191  0.00  0.00    +0.109 A 
ATOM     18  C   UNL     1       5.112   0.208  -5.349  0.00  0.00    +0.147 A 
ATOM     19  C   UNL     1       4.987   1.294  -6.221  0.00  0.00    +0.092 A 
ATOM     20  C   UNL     1       3.797   1.479  -6.921  0.00  0.00    +0.124 A 
ATOM     21  C   UNL     1       2.721   0.618  -6.741  0.00  0.00    +0.091 A 
ATOM     22  O   UNL     1       6.305   0.078  -4.685  0.00  0.00    -0.451 OA
ATOM     23  C   UNL     1       2.849  -0.459  -5.867  0.00  0.00    +0.135 A 
ATOM     24  C   UNL     1       6.489  -0.966  -3.776  0.00  0.00    +0.181 A 
BRANCH  24  25
ATOM     25  C   UNL     1       7.830  -0.908  -3.116  0.00  0.00    +0.025 A 
ATOM     26  C   UNL     1       8.916  -0.332  -3.810  0.00  0.00    +0.015 A 
ATOM     27  C   UNL     1      10.189  -0.232  -3.233  0.00  0.00    +0.050 A 
ATOM     28  C   UNL     1      10.388  -0.713  -1.952  0.00  0.00    +0.158 A 
ATOM     29  C   UNL     1       9.338  -1.284  -1.244  0.00  0.00    +0.159 A 
ATOM     30  C   UNL     1       8.065  -1.370  -1.806  0.00  0.00    +0.060 A 
BRANCH  29  31
ATOM     31  O   UNL     1       9.605  -1.755   0.014  0.00  0.00    -0.503 OA
ATOM     32  H   UNL     1       8.814  -2.223   0.336  0.00  0.00    +0.292 HD
ENDBRANCH  29  31
BRANCH  28  33
ATOM     33  O   UNL     1      11.626  -0.621  -1.386  0.00  0.00    -0.503 OA
ATOM     34  H   UNL     1      11.529  -1.019  -0.499  0.00  0.00    +0.292 HD
ENDBRANCH  28  33
ENDBRANCH  24  25
BRANCH  23  35
ATOM     35  O   UNL     1       1.767  -1.269  -5.666  0.00  0.00    -0.506 OA
ATOM     36  H   UNL     1       1.082  -1.085  -6.330  0.00  0.00    +0.292 HD
ENDBRANCH  23  35
BRANCH  20  37
ATOM     37  O   UNL     1       3.630   2.504  -7.803  0.00  0.00    -0.507 OA
ATOM     38  H   UNL     1       4.463   2.997  -7.889  0.00  0.00    +0.292 HD
ENDBRANCH  20  37
ENDBRANCH  13  14
ENDBRANCH   3  13
BRANCH   1  39
ATOM     39  C   UNL     1       2.559  -2.399  -0.176  0.00  0.00    +0.197 C 
BRANCH  39  40
ATOM     40  O   UNL     1       1.370  -2.251   0.598  0.00  0.00    -0.346 OA
BRANCH  40  43
ATOM     41  C   UNL     1       0.862   1.251  -0.136  0.00  0.00    +0.197 C 
ATOM     42  O   UNL     1       1.426   0.063   0.394  0.00  0.00    -0.346 OA
ATOM     43  C   UNL     1       0.652  -1.109   0.086  0.00  0.00    +0.281 C 
ATOM     44  C   UNL     1      -0.751  -0.990   0.717  0.00  0.00    +0.201 C 
ATOM     45  C   UNL     1      -1.415   0.278   0.149  0.00  0.00    +0.178 C 
ATOM     46  C   UNL     1      -0.534   1.499   0.434  0.00  0.00    +0.171 C 
BRANCH  46  47
ATOM     47  O   UNL     1      -1.117   2.668  -0.146  0.00  0.00    -0.387 OA
ATOM     48  H   UNL     1      -0.644   3.437   0.222  0.00  0.00    +0.210 HD
ENDBRANCH  46  47
BRANCH  45  49
ATOM     49  O   UNL     1      -2.725   0.490   0.683  0.00  0.00    -0.386 OA
ATOM     50  H   UNL     1      -2.946   1.419   0.477  0.00  0.00    +0.210 HD
ENDBRANCH  45  49
BRANCH  44  51
ATOM     51  O   UNL     1      -0.633  -0.875   2.149  0.00  0.00    -0.384 OA
ATOM     52  H   UNL     1       0.313  -0.997   2.356  0.00  0.00    +0.210 HD
ENDBRANCH  44  51
ENDBRANCH  40  43
ENDBRANCH  39  40
ENDBRANCH   1  39
TORSDOF 16
