REMARK  Name = 
REMARK  22 active torsions:
REMARK  status: ('A' for Active; 'I' for Inactive)
REMARK    1  A    between atoms: C_1  and  C_2
REMARK    2  A    between atoms: C_3  and  O_62
REMARK    3  A    between atoms: C_5  and  O_61
REMARK    4  A    between atoms: C_6  and  O_60
REMARK    5  A    between atoms: C_8  and  O_11
REMARK    6  A    between atoms: O_11  and  C_12
REMARK    7  A    between atoms: C_14  and  O_59
REMARK    8  A    between atoms: C_19  and  C_50
REMARK    9  A    between atoms: C_20  and  O_23
REMARK   10  A    between atoms: O_23  and  C_24
REMARK   11  A    between atoms: C_26  and  O_37
REMARK   12  A    between atoms: C_27  and  O_36
REMARK   13  A    between atoms: C_29  and  O_35
REMARK   14  A    between atoms: C_31  and  C_33
REMARK   15  A    between atoms: C_33  and  O_34
REMARK   16  A    between atoms: O_37  and  C_38
REMARK   17  A    between atoms: C_40  and  O_49
REMARK   18  A    between atoms: C_41  and  O_48
REMARK   19  A    between atoms: C_43  and  O_47
REMARK   20  A    between atoms: C_52  and  O_57
REMARK   21  A    between atoms: C_53  and  O_56
REMARK   22  A    between atoms: O_57  and  C_58
REMARK                            x       y       z     vdW  Elec       q    Type
REMARK                         _______ _______ _______ _____ _____    ______ ____
ROOT
ATOM      1  C   UNL     1       2.537   2.933  -2.907  0.00  0.00    +0.131 A 
ATOM      2  C   UNL     1       1.328   3.500  -2.494  0.00  0.00    +0.093 A 
ATOM      3  C   UNL     1       1.266   4.850  -2.120  0.00  0.00    +0.147 A 
ATOM      4  O   UNL     1       0.062   5.347  -1.689  0.00  0.00    -0.451 OA
ATOM      5  C   UNL     1      -0.165   6.731  -1.782  0.00  0.00    +0.181 A 
ATOM      6  C   UNL     1       0.860   7.634  -1.839  0.00  0.00    +0.214 A 
ATOM      7  C   UNL     1       2.246   7.040  -1.741  0.00  0.00    +0.238 A 
ATOM      8  O   UNL     1       3.215   7.660  -1.323  0.00  0.00    -0.283 OA
ATOM      9  C   UNL     1       2.395   5.646  -2.170  0.00  0.00    +0.109 A 
ATOM     10  C   UNL     1       3.604   5.094  -2.606  0.00  0.00    +0.135 A 
ATOM     11  C   UNL     1       3.675   3.744  -2.968  0.00  0.00    +0.092 A 
ENDROOT
BRANCH   5  12
ATOM     12  C   UNL     1      -1.643   7.029  -1.825  0.00  0.00    +0.025 A 
ATOM     13  C   UNL     1      -2.568   5.980  -2.050  0.00  0.00    +0.015 A 
ATOM     14  C   UNL     1      -3.944   6.212  -2.173  0.00  0.00    +0.050 A 
ATOM     15  C   UNL     1      -4.424   7.505  -2.056  0.00  0.00    +0.158 A 
ATOM     16  C   UNL     1      -3.556   8.564  -1.769  0.00  0.00    +0.162 A 
ATOM     17  C   UNL     1      -2.180   8.315  -1.635  0.00  0.00    +0.061 A 
BRANCH  16  18
ATOM     18  O   UNL     1      -4.182   9.779  -1.645  0.00  0.00    -0.491 OA
ATOM     19  C   UNL     1      -3.338  10.892  -1.399  0.00  0.00    +0.277 C 
ENDBRANCH  16  18
BRANCH  15  20
ATOM     20  O   UNL     1      -5.754   7.737  -2.239  0.00  0.00    -0.503 OA
ATOM     21  H   UNL     1      -5.856   8.706  -2.147  0.00  0.00    +0.292 HD
ENDBRANCH  15  20
ENDBRANCH   5  12
BRANCH  10  22
ATOM     22  O   UNL     1       4.718   5.876  -2.730  0.00  0.00    -0.506 OA
ATOM     23  H   UNL     1       5.468   5.332  -3.014  0.00  0.00    +0.292 HD
ENDBRANCH  10  22
BRANCH   6  24
ATOM     24  O   UNL     1       0.681   8.999  -2.098  0.00  0.00    -0.453 OA
BRANCH  24  25
ATOM     25  C   UNL     1       1.574   9.951  -1.485  0.00  0.00    +0.340 C 
ATOM     26  O   UNL     1       0.871  10.763  -0.506  0.00  0.00    -0.331 OA
ATOM     27  C   UNL     1       0.143  11.889  -1.010  0.00  0.00    +0.179 C 
ATOM     28  C   UNL     1       1.035  12.822  -1.830  0.00  0.00    +0.177 C 
ATOM     29  C   UNL     1       1.578  12.030  -3.011  0.00  0.00    +0.180 C 
ATOM     30  C   UNL     1       2.403  10.832  -2.500  0.00  0.00    +0.221 C 
BRANCH  28  31
ATOM     31  O   UNL     1       2.107  13.334  -1.019  0.00  0.00    -0.386 OA
ATOM     32  H   UNL     1       2.727  13.804  -1.613  0.00  0.00    +0.210 HD
ENDBRANCH  28  31
BRANCH  29  33
ATOM     33  O   UNL     1       0.524  11.613  -3.881  0.00  0.00    -0.386 OA
ATOM     34  H   UNL     1       0.910  10.974  -4.512  0.00  0.00    +0.210 HD
ENDBRANCH  29  33
BRANCH  30  35
ATOM     35  O   UNL     1       3.095  10.143  -3.587  0.00  0.00    -0.337 OA
BRANCH  35  36
ATOM     36  C   UNL     1       3.926  11.012  -4.417  0.00  0.00    +0.282 C 
ATOM     37  O   UNL     1       4.592  10.289  -5.466  0.00  0.00    -0.346 OA
ATOM     38  C   UNL     1       5.814   9.605  -5.155  0.00  0.00    +0.197 C 
ATOM     39  C   UNL     1       6.767  10.269  -4.143  0.00  0.00    +0.171 C 
ATOM     40  C   UNL     1       5.984  10.921  -3.008  0.00  0.00    +0.178 C 
ATOM     41  C   UNL     1       4.968  11.872  -3.658  0.00  0.00    +0.201 C 
BRANCH  41  42
ATOM     42  O   UNL     1       4.417  12.810  -2.727  0.00  0.00    -0.384 OA
ATOM     43  H   UNL     1       4.913  12.727  -1.896  0.00  0.00    +0.210 HD
ENDBRANCH  41  42
BRANCH  40  44
ATOM     44  O   UNL     1       5.392   9.954  -2.150  0.00  0.00    -0.386 OA
ATOM     45  H   UNL     1       4.717   9.419  -2.625  0.00  0.00    +0.210 HD
ENDBRANCH  40  44
BRANCH  39  46
ATOM     46  O   UNL     1       7.564  11.275  -4.792  0.00  0.00    -0.387 OA
ATOM     47  H   UNL     1       8.169  11.655  -4.126  0.00  0.00    +0.210 HD
ENDBRANCH  39  46
ENDBRANCH  35  36
ENDBRANCH  30  35
BRANCH  27  48
ATOM     48  C   UNL     1      -0.492  12.657   0.167  0.00  0.00    +0.190 C 
BRANCH  48  49
ATOM     49  O   UNL     1       0.451  13.138   1.117  0.00  0.00    -0.392 OA
ATOM     50  H   UNL     1       1.335  13.060   0.701  0.00  0.00    +0.210 HD
ENDBRANCH  48  49
ENDBRANCH  27  48
ENDBRANCH  24  25
ENDBRANCH   6  24
BRANCH   1  51
ATOM     51  O   UNL     1       2.752   1.630  -3.292  0.00  0.00    -0.461 OA
BRANCH  51  55
ATOM     52  C   UNL     1      -1.309   0.517  -2.585  0.00  0.00    +0.041 C 
ATOM     53  C   UNL     1      -0.129  -0.200  -1.930  0.00  0.00    +0.150 C 
ATOM     54  O   UNL     1       1.060   0.595  -1.995  0.00  0.00    -0.334 OA
ATOM     55  C   UNL     1       1.624   0.743  -3.305  0.00  0.00    +0.339 C 
ATOM     56  C   UNL     1       2.031  -0.645  -3.862  0.00  0.00    +0.214 C 
ATOM     57  C   UNL     1       0.789  -1.551  -3.881  0.00  0.00    +0.180 C 
ATOM     58  C   UNL     1       0.112  -1.603  -2.501  0.00  0.00    +0.174 C 
BRANCH  58  59
ATOM     59  O   UNL     1       0.966  -2.351  -1.615  0.00  0.00    -0.387 OA
ATOM     60  H   UNL     1       1.787  -1.820  -1.508  0.00  0.00    +0.210 HD
ENDBRANCH  58  59
BRANCH  57  61
ATOM     61  O   UNL     1       1.176  -2.879  -4.273  0.00  0.00    -0.386 OA
ATOM     62  H   UNL     1       1.196  -3.408  -3.447  0.00  0.00    +0.210 HD
ENDBRANCH  57  61
BRANCH  56  63
ATOM     63  O   UNL     1       3.041  -1.282  -3.052  0.00  0.00    -0.383 OA
ATOM     64  H   UNL     1       3.216  -2.143  -3.487  0.00  0.00    +0.210 HD
ENDBRANCH  56  63
ENDBRANCH  51  55
ENDBRANCH   1  51
TORSDOF 20
