REMARK  Name = 
REMARK  25 active torsions:
REMARK  status: ('A' for Active; 'I' for Inactive)
REMARK    1  A    between atoms: C_1  and  C_2
REMARK    2  A    between atoms: C_3  and  O_70
REMARK    3  A    between atoms: C_5  and  O_69
REMARK    4  A    between atoms: C_7  and  O_68
REMARK    5  A    between atoms: C_8  and  O_11
REMARK    6  A    between atoms: O_11  and  C_12
REMARK    7  A    between atoms: C_14  and  O_67
REMARK    8  A    between atoms: C_19  and  C_59
REMARK    9  A    between atoms: C_20  and  O_23
REMARK   10  A    between atoms: O_23  and  C_24
REMARK   11  A    between atoms: C_26  and  O_37
REMARK   12  A    between atoms: C_27  and  O_36
REMARK   13  A    between atoms: C_29  and  O_35
REMARK   14  A    between atoms: C_31  and  C_33
REMARK   15  A    between atoms: C_33  and  O_34
REMARK   16  A    between atoms: O_37  and  C_38
REMARK   17  A    between atoms: C_40  and  O_58
REMARK   18  A    between atoms: C_41  and  O_49
REMARK   19  A    between atoms: C_42  and  O_48
REMARK   20  A    between atoms: C_44  and  C_46
REMARK   21  A    between atoms: C_46  and  O_47
REMARK   22  A    between atoms: O_49  and  C_50
REMARK   23  A    between atoms: C_50  and  C_52
REMARK   24  A    between atoms: C_61  and  O_66
REMARK   25  A    between atoms: C_62  and  O_65
REMARK                            x       y       z     vdW  Elec       q    Type
REMARK                         _______ _______ _______ _____ _____    ______ ____
ROOT
ATOM      1  C   UNL     1       1.973   2.620  -2.310  0.00  0.00    +0.131 A 
ATOM      2  C   UNL     1       0.745   3.254  -2.088  0.00  0.00    +0.093 A 
ATOM      3  C   UNL     1       0.672   4.640  -1.864  0.00  0.00    +0.147 A 
ATOM      4  O   UNL     1      -0.570   5.174  -1.616  0.00  0.00    -0.451 OA
ATOM      5  C   UNL     1      -0.743   6.531  -1.864  0.00  0.00    +0.181 A 
ATOM      6  C   UNL     1       0.258   7.431  -2.002  0.00  0.00    +0.214 A 
ATOM      7  C   UNL     1       1.613   6.899  -1.629  0.00  0.00    +0.238 A 
ATOM      8  O   UNL     1       2.458   7.594  -1.088  0.00  0.00    -0.283 OA
ATOM      9  C   UNL     1       1.810   5.438  -1.868  0.00  0.00    +0.109 A 
ATOM     10  C   UNL     1       3.039   4.812  -2.119  0.00  0.00    +0.135 A 
ATOM     11  C   UNL     1       3.123   3.421  -2.328  0.00  0.00    +0.092 A 
ENDROOT
BRANCH   5  12
ATOM     12  C   UNL     1      -2.169   6.938  -1.972  0.00  0.00    +0.025 A 
ATOM     13  C   UNL     1      -3.094   6.138  -2.654  0.00  0.00    +0.015 A 
ATOM     14  C   UNL     1      -4.423   6.567  -2.792  0.00  0.00    +0.050 A 
ATOM     15  C   UNL     1      -4.802   7.792  -2.261  0.00  0.00    +0.158 A 
ATOM     16  C   UNL     1      -3.894   8.567  -1.549  0.00  0.00    +0.159 A 
ATOM     17  C   UNL     1      -2.594   8.135  -1.375  0.00  0.00    +0.060 A 
BRANCH  16  18
ATOM     18  O   UNL     1      -4.322   9.769  -1.057  0.00  0.00    -0.503 OA
ATOM     19  H   UNL     1      -3.548  10.231  -0.683  0.00  0.00    +0.292 HD
ENDBRANCH  16  18
BRANCH  15  20
ATOM     20  O   UNL     1      -6.072   8.245  -2.454  0.00  0.00    -0.503 OA
ATOM     21  H   UNL     1      -6.081   9.126  -2.030  0.00  0.00    +0.292 HD
ENDBRANCH  15  20
ENDBRANCH   5  12
BRANCH  10  22
ATOM     22  O   UNL     1       4.180   5.560  -2.209  0.00  0.00    -0.506 OA
ATOM     23  H   UNL     1       4.937   4.980  -2.392  0.00  0.00    +0.292 HD
ENDBRANCH  10  22
BRANCH   6  24
ATOM     24  O   UNL     1      -0.024   8.704  -2.501  0.00  0.00    -0.453 OA
BRANCH  24  25
ATOM     25  C   UNL     1       0.760   9.906  -2.307  0.00  0.00    +0.340 C 
ATOM     26  O   UNL     1       0.301  10.561  -1.088  0.00  0.00    -0.331 OA
ATOM     27  C   UNL     1       0.148  11.994  -1.013  0.00  0.00    +0.179 C 
ATOM     28  C   UNL     1       0.462  12.814  -2.270  0.00  0.00    +0.177 C 
ATOM     29  C   UNL     1      -0.106  12.065  -3.461  0.00  0.00    +0.180 C 
ATOM     30  C   UNL     1       0.723  10.780  -3.620  0.00  0.00    +0.221 C 
BRANCH  28  31
ATOM     31  O   UNL     1       1.872  13.025  -2.416  0.00  0.00    -0.386 OA
ATOM     32  H   UNL     1       2.001  13.558  -3.225  0.00  0.00    +0.210 HD
ENDBRANCH  28  31
BRANCH  29  33
ATOM     33  O   UNL     1      -1.505  11.830  -3.302  0.00  0.00    -0.386 OA
ATOM     34  H   UNL     1      -1.794  11.250  -4.031  0.00  0.00    +0.210 HD
ENDBRANCH  29  33
BRANCH  30  35
ATOM     35  O   UNL     1       0.416  10.061  -4.839  0.00  0.00    -0.337 OA
BRANCH  35  36
ATOM     36  C   UNL     1       0.475  10.811  -6.078  0.00  0.00    +0.283 C 
ATOM     37  O   UNL     1       0.274   9.896  -7.175  0.00  0.00    -0.340 OA
ATOM     38  C   UNL     1       1.375   8.983  -7.369  0.00  0.00    +0.179 C 
ATOM     39  C   UNL     1       2.700   9.740  -7.656  0.00  0.00    +0.189 C 
ATOM     40  C   UNL     1       2.936  10.666  -6.453  0.00  0.00    +0.241 C 
ATOM     41  C   UNL     1       1.771  11.654  -6.344  0.00  0.00    +0.213 C 
BRANCH  41  42
ATOM     42  O   UNL     1       2.046  12.657  -5.356  0.00  0.00    -0.383 OA
ATOM     43  H   UNL     1       3.007  12.820  -5.398  0.00  0.00    +0.210 HD
ENDBRANCH  41  42
BRANCH  39  44
ATOM     44  O   UNL     1       2.550  10.460  -8.890  0.00  0.00    -0.385 OA
ATOM     45  H   UNL     1       3.306  11.079  -8.992  0.00  0.00    +0.210 HD
ENDBRANCH  39  44
BRANCH  40  46
ATOM     46  O   UNL     1       4.240  11.289  -6.294  0.00  0.00    -0.452 OA
BRANCH  46  47
ATOM     47  C   UNL     1       4.902  11.949  -7.264  0.00  0.00    +0.340 C 
ATOM     48  O   UNL     1       4.490  12.139  -8.394  0.00  0.00    -0.245 OA
BRANCH  47  49
ATOM     49  C   UNL     1       6.199  12.457  -6.718  0.00  0.00    +0.059 A 
ATOM     50  C   UNL     1       6.795  11.905  -5.571  0.00  0.00    +0.015 A 
ATOM     51  C   UNL     1       8.006  12.416  -5.085  0.00  0.00    +0.001 A 
ATOM     52  C   UNL     1       8.624  13.482  -5.732  0.00  0.00    +0.000 A 
ATOM     53  C   UNL     1       8.044  14.035  -6.874  0.00  0.00    +0.001 A 
ATOM     54  C   UNL     1       6.841  13.518  -7.372  0.00  0.00    +0.015 A 
ENDBRANCH  47  49
ENDBRANCH  46  47
ENDBRANCH  40  46
BRANCH  38  55
ATOM     55  C   UNL     1       1.026   7.987  -8.479  0.00  0.00    +0.190 C 
BRANCH  55  56
ATOM     56  O   UNL     1       2.032   6.978  -8.583  0.00  0.00    -0.392 OA
ATOM     57  H   UNL     1       2.703   7.314  -9.202  0.00  0.00    +0.210 HD
ENDBRANCH  55  56
ENDBRANCH  38  55
ENDBRANCH  35  36
ENDBRANCH  30  35
BRANCH  27  58
ATOM     58  C   UNL     1       0.939  12.525   0.187  0.00  0.00    +0.190 C 
BRANCH  58  59
ATOM     59  O   UNL     1       0.456  11.916   1.383  0.00  0.00    -0.392 OA
ATOM     60  H   UNL     1       0.405  10.961   1.178  0.00  0.00    +0.210 HD
ENDBRANCH  58  59
ENDBRANCH  27  58
ENDBRANCH  24  25
ENDBRANCH   6  24
BRANCH   1  61
ATOM     61  O   UNL     1       2.175   1.272  -2.493  0.00  0.00    -0.461 OA
BRANCH  61  65
ATOM     62  C   UNL     1      -1.990   0.530  -2.076  0.00  0.00    +0.041 C 
ATOM     63  C   UNL     1      -0.944  -0.211  -1.245  0.00  0.00    +0.150 C 
ATOM     64  O   UNL     1       0.312   0.483  -1.277  0.00  0.00    -0.334 OA
ATOM     65  C   UNL     1       1.002   0.434  -2.533  0.00  0.00    +0.339 C 
ATOM     66  C   UNL     1       1.375  -1.047  -2.803  0.00  0.00    +0.214 C 
ATOM     67  C   UNL     1       0.049  -1.832  -2.933  0.00  0.00    +0.180 C 
ATOM     68  C   UNL     1      -0.799  -1.688  -1.652  0.00  0.00    +0.174 C 
BRANCH  66  69
ATOM     69  O   UNL     1       2.140  -1.582  -1.697  0.00  0.00    -0.383 OA
ATOM     70  H   UNL     1       2.594  -0.826  -1.279  0.00  0.00    +0.210 HD
ENDBRANCH  66  69
BRANCH  67  71
ATOM     71  O   UNL     1       0.283  -3.204  -3.261  0.00  0.00    -0.386 OA
ATOM     72  H   UNL     1      -0.370  -3.746  -2.780  0.00  0.00    +0.210 HD
ENDBRANCH  67  71
BRANCH  68  73
ATOM     73  O   UNL     1      -0.206  -2.422  -0.572  0.00  0.00    -0.387 OA
ATOM     74  H   UNL     1       0.748  -2.186  -0.560  0.00  0.00    +0.210 HD
ENDBRANCH  68  73
ENDBRANCH  61  65
ENDBRANCH   1  61
TORSDOF 24
