REMARK  Name = 
REMARK  16 active torsions:
REMARK  status: ('A' for Active; 'I' for Inactive)
REMARK    1  A    between atoms: C_3  and  O_42
REMARK    2  A    between atoms: C_4  and  O_41
REMARK    3  A    between atoms: C_6  and  C_7
REMARK    4  A    between atoms: C_8  and  O_20
REMARK    5  A    between atoms: C_12  and  O_19
REMARK    6  A    between atoms: C_14  and  O_18
REMARK    7  A    between atoms: O_20  and  C_21
REMARK    8  A    between atoms: C_23  and  O_40
REMARK    9  A    between atoms: C_24  and  O_39
REMARK   10  A    between atoms: C_25  and  O_38
REMARK   11  A    between atoms: C_27  and  C_30
REMARK   12  A    between atoms: C_30  and  O_31
REMARK   13  A    between atoms: O_31  and  C_32
REMARK   14  A    between atoms: C_32  and  C_34
REMARK   15  A    between atoms: C_34  and  C_35
REMARK   16  A    between atoms: C_35  and  O_37
REMARK                            x       y       z     vdW  Elec       q    Type
REMARK                         _______ _______ _______ _____ _____    ______ ____
ROOT
ATOM      1  C   UNL     1      -1.244  -2.787   0.222  0.00  0.00    +0.181 A 
ATOM      2  O   UNL     1      -0.604  -4.019   0.371  0.00  0.00    -0.451 OA
ATOM      3  C   UNL     1      -1.297  -5.191   0.288  0.00  0.00    +0.147 A 
ATOM      4  C   UNL     1      -2.668  -5.232   0.108  0.00  0.00    +0.109 A 
ATOM      5  C   UNL     1      -3.299  -6.487   0.005  0.00  0.00    +0.135 A 
ATOM      6  C   UNL     1      -2.568  -7.674   0.086  0.00  0.00    +0.091 A 
ATOM      7  C   UNL     1      -1.192  -7.604   0.284  0.00  0.00    +0.124 A 
ATOM      8  C   UNL     1      -3.389  -3.948   0.045  0.00  0.00    +0.238 A 
ATOM      9  O   UNL     1      -4.615  -3.958  -0.030  0.00  0.00    -0.283 OA
ATOM     10  C   UNL     1      -0.553  -6.372   0.385  0.00  0.00    +0.092 A 
ATOM     11  C   UNL     1      -2.588  -2.668   0.051  0.00  0.00    +0.214 A 
ENDROOT
BRANCH   1  13
ATOM     12  C   UNL     1      -0.545  -0.320   0.147  0.00  0.00    +0.015 A 
ATOM     13  C   UNL     1      -0.226  -1.683   0.168  0.00  0.00    +0.025 A 
ATOM     14  C   UNL     1       1.134  -2.010  -0.013  0.00  0.00    +0.060 A 
ATOM     15  C   UNL     1       2.049  -1.044  -0.414  0.00  0.00    +0.159 A 
ATOM     16  C   UNL     1       1.639   0.257  -0.659  0.00  0.00    +0.158 A 
ATOM     17  C   UNL     1       0.352   0.642  -0.332  0.00  0.00    +0.050 A 
BRANCH  16  18
ATOM     18  O   UNL     1       2.529   1.117  -1.233  0.00  0.00    -0.503 OA
ATOM     19  H   UNL     1       2.015   1.829  -1.656  0.00  0.00    +0.292 HD
ENDBRANCH  16  18
BRANCH  15  20
ATOM     20  O   UNL     1       3.349  -1.401  -0.625  0.00  0.00    -0.503 OA
ATOM     21  H   UNL     1       3.792  -0.570  -0.890  0.00  0.00    +0.292 HD
ENDBRANCH  15  20
ENDBRANCH   1  13
BRANCH   7  22
ATOM     22  O   UNL     1      -0.427  -8.727   0.383  0.00  0.00    -0.507 OA
ATOM     23  H   UNL     1      -0.997  -9.513   0.316  0.00  0.00    +0.292 HD
ENDBRANCH   7  22
BRANCH   5  24
ATOM     24  O   UNL     1      -4.647  -6.628  -0.196  0.00  0.00    -0.506 OA
ATOM     25  H   UNL     1      -5.053  -5.734  -0.203  0.00  0.00    +0.292 HD
ENDBRANCH   5  24
BRANCH  11  26
ATOM     26  O   UNL     1      -3.311  -1.480   0.089  0.00  0.00    -0.453 OA
BRANCH  26  27
ATOM     27  C   UNL     1      -3.419  -0.654  -1.089  0.00  0.00    +0.340 C 
ATOM     28  O   UNL     1      -3.456   0.745  -0.740  0.00  0.00    -0.330 OA
ATOM     29  C   UNL     1      -4.605   1.203   0.014  0.00  0.00    +0.191 C 
ATOM     30  C   UNL     1      -5.968   0.622  -0.437  0.00  0.00    +0.178 C 
ATOM     31  C   UNL     1      -5.887  -0.796  -1.018  0.00  0.00    +0.180 C 
ATOM     32  C   UNL     1      -4.666  -0.929  -1.930  0.00  0.00    +0.214 C 
BRANCH  32  33
ATOM     33  O   UNL     1      -4.654  -2.215  -2.558  0.00  0.00    -0.383 OA
ATOM     34  H   UNL     1      -3.737  -2.411  -2.815  0.00  0.00    +0.210 HD
ENDBRANCH  32  33
BRANCH  31  35
ATOM     35  O   UNL     1      -7.084  -1.055  -1.778  0.00  0.00    -0.386 OA
ATOM     36  H   UNL     1      -6.842  -1.787  -2.383  0.00  0.00    +0.210 HD
ENDBRANCH  31  35
BRANCH  30  37
ATOM     37  O   UNL     1      -6.502   1.466  -1.482  0.00  0.00    -0.386 OA
ATOM     38  H   UNL     1      -7.299   0.982  -1.792  0.00  0.00    +0.210 HD
ENDBRANCH  30  37
BRANCH  29  39
ATOM     39  C   UNL     1      -4.321   1.035   1.514  0.00  0.00    +0.266 C 
BRANCH  39  40
ATOM     40  O   UNL     1      -5.284   1.678   2.367  0.00  0.00    -0.462 OA
BRANCH  40  41
ATOM     41  C   UNL     1      -5.106   3.015   2.576  0.00  0.00    +0.318 C 
ATOM     42  O   UNL     1      -4.229   3.690   2.047  0.00  0.00    -0.250 OA
BRANCH  41  43
ATOM     43  C   UNL     1      -5.991   3.518   3.672  0.00  0.00    +0.240 C 
BRANCH  43  44
ATOM     44  C   UNL     1      -7.443   3.206   3.497  0.00  0.00    +0.316 C 
ATOM     45  O   UNL     1      -7.954   2.718   2.503  0.00  0.00    -0.250 OA
BRANCH  44  46
ATOM     46  O   UNL     1      -8.182   3.573   4.575  0.00  0.00    -0.480 OA
ATOM     47  H   UNL     1      -7.681   3.978   5.303  0.00  0.00    +0.295 HD
ENDBRANCH  44  46
ENDBRANCH  43  44
ENDBRANCH  41  43
ENDBRANCH  40  41
ENDBRANCH  39  40
ENDBRANCH  29  39
ENDBRANCH  26  27
ENDBRANCH  11  26
TORSDOF 16
