REMARK  Name = 
REMARK  23 active torsions:
REMARK  status: ('A' for Active; 'I' for Inactive)
REMARK    1  A    between atoms: C_1  and  C_2
REMARK    2  A    between atoms: C_3  and  O_63
REMARK    3  A    between atoms: C_5  and  O_62
REMARK    4  A    between atoms: C_6  and  O_61
REMARK    5  A    between atoms: C_8  and  O_11
REMARK    6  A    between atoms: O_11  and  C_12
REMARK    7  A    between atoms: C_13  and  O_60
REMARK    8  A    between atoms: C_15  and  O_59
REMARK    9  A    between atoms: C_17  and  C_57
REMARK   10  A    between atoms: C_19  and  O_21
REMARK   11  A    between atoms: O_21  and  C_22
REMARK   12  A    between atoms: C_22  and  C_23
REMARK   13  A    between atoms: C_24  and  O_56
REMARK   14  A    between atoms: C_26  and  O_55
REMARK   15  A    between atoms: C_28  and  O_54
REMARK   16  A    between atoms: C_29  and  O_32
REMARK   17  A    between atoms: O_32  and  C_33
REMARK   18  A    between atoms: C_34  and  C_46
REMARK   19  A    between atoms: C_38  and  O_45
REMARK   20  A    between atoms: C_40  and  O_44
REMARK   21  A    between atoms: C_48  and  O_53
REMARK   22  A    between atoms: C_49  and  O_52
REMARK   23  A    between atoms: C_57  and  O_58
REMARK                            x       y       z     vdW  Elec       q    Type
REMARK                         _______ _______ _______ _____ _____    ______ ____
ROOT
ATOM      1  C   UNL     1       1.356  -0.281  -1.971  0.00  0.00    +0.179 C 
ATOM      2  O   UNL     1       2.783  -0.334  -2.292  0.00  0.00    -0.331 OA
ATOM      3  C   UNL     1       3.246  -0.334  -3.672  0.00  0.00    +0.340 C 
ATOM      4  C   UNL     1       2.392  -1.187  -4.649  0.00  0.00    +0.214 C 
ATOM      5  C   UNL     1       0.906  -1.083  -4.317  0.00  0.00    +0.180 C 
ATOM      6  C   UNL     1       0.608  -1.306  -2.833  0.00  0.00    +0.177 C 
ENDROOT
BRANCH   6   7
ATOM      7  O   UNL     1      -0.814  -1.291  -2.669  0.00  0.00    -0.386 OA
ATOM      8  H   UNL     1      -1.000  -1.042  -1.740  0.00  0.00    +0.210 HD
ENDBRANCH   6   7
BRANCH   5   9
ATOM      9  O   UNL     1       0.160  -2.032  -5.088  0.00  0.00    -0.386 OA
ATOM     10  H   UNL     1      -0.719  -2.067  -4.656  0.00  0.00    +0.210 HD
ENDBRANCH   5   9
BRANCH   4  11
ATOM     11  O   UNL     1       2.846  -2.552  -4.773  0.00  0.00    -0.383 OA
ATOM     12  H   UNL     1       2.371  -3.103  -4.130  0.00  0.00    +0.210 HD
ENDBRANCH   4  11
BRANCH   3  13
ATOM     13  O   UNL     1       4.628  -0.845  -3.832  0.00  0.00    -0.453 OA
BRANCH  13  14
ATOM     14  C   UNL     1       5.702  -0.022  -4.070  0.00  0.00    +0.214 A 
ATOM     15  C   UNL     1       5.700   1.351  -3.485  0.00  0.00    +0.238 A 
ATOM     16  O   UNL     1       4.663   1.985  -3.336  0.00  0.00    -0.283 OA
ATOM     17  C   UNL     1       6.964   1.984  -3.251  0.00  0.00    +0.109 A 
ATOM     18  C   UNL     1       8.029   1.634  -4.086  0.00  0.00    +0.147 A 
ATOM     19  C   UNL     1       9.178   2.430  -4.073  0.00  0.00    +0.092 A 
ATOM     20  C   UNL     1       9.243   3.518  -3.189  0.00  0.00    +0.124 A 
ATOM     21  C   UNL     1       8.209   3.811  -2.301  0.00  0.00    +0.091 A 
ATOM     22  O   UNL     1       7.928   0.553  -4.940  0.00  0.00    -0.451 OA
ATOM     23  C   UNL     1       7.076   3.025  -2.324  0.00  0.00    +0.135 A 
ATOM     24  C   UNL     1       6.824  -0.306  -4.825  0.00  0.00    +0.181 A 
BRANCH  24  25
ATOM     25  C   UNL     1       6.931  -1.544  -5.669  0.00  0.00    +0.025 A 
ATOM     26  C   UNL     1       8.148  -2.218  -5.935  0.00  0.00    +0.015 A 
ATOM     27  C   UNL     1       8.178  -3.408  -6.710  0.00  0.00    +0.050 A 
ATOM     28  C   UNL     1       6.995  -3.921  -7.217  0.00  0.00    +0.158 A 
ATOM     29  C   UNL     1       5.808  -3.235  -7.026  0.00  0.00    +0.159 A 
ATOM     30  C   UNL     1       5.784  -2.046  -6.301  0.00  0.00    +0.060 A 
BRANCH  28  31
ATOM     31  O   UNL     1       6.991  -5.107  -7.889  0.00  0.00    -0.503 OA
ATOM     32  H   UNL     1       6.046  -5.276  -8.082  0.00  0.00    +0.292 HD
ENDBRANCH  28  31
BRANCH  29  33
ATOM     33  O   UNL     1       4.653  -3.762  -7.538  0.00  0.00    -0.503 OA
ATOM     34  H   UNL     1       3.910  -3.295  -7.108  0.00  0.00    +0.292 HD
ENDBRANCH  29  33
ENDBRANCH  24  25
BRANCH  23  35
ATOM     35  O   UNL     1       6.064   3.238  -1.440  0.00  0.00    -0.506 OA
ATOM     36  H   UNL     1       6.089   4.163  -1.135  0.00  0.00    +0.292 HD
ENDBRANCH  23  35
BRANCH  20  37
ATOM     37  O   UNL     1      10.314   4.363  -3.136  0.00  0.00    -0.507 OA
ATOM     38  H   UNL     1      10.939   4.137  -3.849  0.00  0.00    +0.292 HD
ENDBRANCH  20  37
ENDBRANCH  13  14
ENDBRANCH   3  13
BRANCH   1  39
ATOM     39  C   UNL     1       0.621   1.141  -1.824  0.00  0.00    +0.197 C 
BRANCH  39  40
ATOM     40  O   UNL     1      -0.772   1.058  -1.290  0.00  0.00    -0.346 OA
BRANCH  40  42
ATOM     41  C   UNL     1      -3.144   2.283  -1.039  0.00  0.00    +0.208 C 
ATOM     42  C   UNL     1      -1.524   2.319  -1.364  0.00  0.00    +0.282 C 
ATOM     43  O   UNL     1      -0.922   3.337  -0.548  0.00  0.00    -0.341 OA
ATOM     44  C   UNL     1      -1.346   4.683  -0.851  0.00  0.00    +0.178 C 
ATOM     45  C   UNL     1      -2.879   4.854  -0.788  0.00  0.00    +0.177 C 
ATOM     46  C   UNL     1      -3.628   3.697  -1.470  0.00  0.00    +0.179 C 
BRANCH  46  47
ATOM     47  O   UNL     1      -5.043   3.886  -1.314  0.00  0.00    -0.386 OA
ATOM     48  H   UNL     1      -5.470   3.498  -2.101  0.00  0.00    +0.210 HD
ENDBRANCH  46  47
BRANCH  45  49
ATOM     49  O   UNL     1      -3.261   6.095  -1.411  0.00  0.00    -0.386 OA
ATOM     50  H   UNL     1      -4.237   6.106  -1.444  0.00  0.00    +0.210 HD
ENDBRANCH  45  49
BRANCH  44  51
ATOM     51  C   UNL     1      -0.714   5.212  -2.162  0.00  0.00    +0.190 C 
BRANCH  51  52
ATOM     52  O   UNL     1       0.702   5.031  -2.166  0.00  0.00    -0.392 OA
ATOM     53  H   UNL     1       1.051   5.421  -1.345  0.00  0.00    +0.210 HD
ENDBRANCH  51  52
ENDBRANCH  44  51
BRANCH  41  54
ATOM     54  O   UNL     1      -3.434   1.862   0.312  0.00  0.00    -0.338 OA
BRANCH  54  58
ATOM     55  C   UNL     1      -5.239   1.980   4.577  0.00  0.00    +0.041 C 
ATOM     56  C   UNL     1      -4.931   1.015   3.426  0.00  0.00    +0.149 C 
ATOM     57  O   UNL     1      -4.168   1.700   2.437  0.00  0.00    -0.343 OA
ATOM     58  C   UNL     1      -4.627   2.076   1.122  0.00  0.00    +0.282 C 
ATOM     59  C   UNL     1      -6.001   1.425   0.707  0.00  0.00    +0.201 C 
ATOM     60  C   UNL     1      -6.918   1.088   1.915  0.00  0.00    +0.179 C 
ATOM     61  C   UNL     1      -6.180   0.266   2.965  0.00  0.00    +0.174 C 
BRANCH  61  62
ATOM     62  O   UNL     1      -5.837  -1.024   2.423  0.00  0.00    -0.387 OA
ATOM     63  H   UNL     1      -5.274  -0.870   1.646  0.00  0.00    +0.210 HD
ENDBRANCH  61  62
BRANCH  60  64
ATOM     64  O   UNL     1      -8.072   0.349   1.464  0.00  0.00    -0.386 OA
ATOM     65  H   UNL     1      -7.749  -0.561   1.292  0.00  0.00    +0.210 HD
ENDBRANCH  60  64
BRANCH  59  66
ATOM     66  O   UNL     1      -5.820   0.235  -0.082  0.00  0.00    -0.384 OA
ATOM     67  H   UNL     1      -6.537   0.250  -0.747  0.00  0.00    +0.210 HD
ENDBRANCH  59  66
ENDBRANCH  54  58
ENDBRANCH  41  54
ENDBRANCH  40  42
ENDBRANCH  39  40
ENDBRANCH   1  39
TORSDOF 22
