REMARK  Name = 
REMARK  18 active torsions:
REMARK  status: ('A' for Active; 'I' for Inactive)
REMARK    1  A    between atoms: C_3  and  O_49
REMARK    2  A    between atoms: C_4  and  O_48
REMARK    3  A    between atoms: C_6  and  C_7
REMARK    4  A    between atoms: C_8  and  O_20
REMARK    5  A    between atoms: C_12  and  O_19
REMARK    6  A    between atoms: C_14  and  O_18
REMARK    7  A    between atoms: O_20  and  C_21
REMARK    8  A    between atoms: C_23  and  O_33
REMARK    9  A    between atoms: C_24  and  O_32
REMARK   10  A    between atoms: C_25  and  O_31
REMARK   11  A    between atoms: C_27  and  C_29
REMARK   12  A    between atoms: C_29  and  O_30
REMARK   13  A    between atoms: O_33  and  C_34
REMARK   14  A    between atoms: C_36  and  O_47
REMARK   15  A    between atoms: C_38  and  O_46
REMARK   16  A    between atoms: C_39  and  O_45
REMARK   17  A    between atoms: C_41  and  C_43
REMARK   18  A    between atoms: C_43  and  O_44
REMARK                            x       y       z     vdW  Elec       q    Type
REMARK                         _______ _______ _______ _____ _____    ______ ____
ROOT
ATOM      1  C   UNL     1      -4.022  -0.822  -1.341  0.00  0.00    +0.340 C 
ATOM      2  O   UNL     1      -3.785   0.193  -2.353  0.00  0.00    -0.331 OA
ATOM      3  C   UNL     1      -3.240  -0.267  -3.616  0.00  0.00    +0.179 C 
ATOM      4  C   UNL     1      -2.158  -1.378  -3.533  0.00  0.00    +0.177 C 
ATOM      5  C   UNL     1      -2.361  -2.305  -2.342  0.00  0.00    +0.180 C 
ATOM      6  C   UNL     1      -2.657  -1.467  -1.076  0.00  0.00    +0.221 C 
ENDROOT
BRANCH   5   7
ATOM      7  O   UNL     1      -1.229  -3.174  -2.214  0.00  0.00    -0.386 OA
ATOM      8  H   UNL     1      -0.473  -2.617  -1.966  0.00  0.00    +0.210 HD
ENDBRANCH   5   7
BRANCH   4   9
ATOM      9  O   UNL     1      -0.827  -0.841  -3.432  0.00  0.00    -0.386 OA
ATOM     10  H   UNL     1      -0.234  -1.528  -3.797  0.00  0.00    +0.210 HD
ENDBRANCH   4   9
BRANCH   6  11
ATOM     11  O   UNL     1      -2.454  -2.237   0.100  0.00  0.00    -0.337 OA
BRANCH  11  12
ATOM     12  C   UNL     1      -3.147  -1.950   1.311  0.00  0.00    +0.282 C 
ATOM     13  O   UNL     1      -2.729  -0.759   1.990  0.00  0.00    -0.341 OA
ATOM     14  C   UNL     1      -1.368  -0.755   2.455  0.00  0.00    +0.178 C 
ATOM     15  C   UNL     1      -0.928  -2.038   3.195  0.00  0.00    +0.177 C 
ATOM     16  C   UNL     1      -1.446  -3.301   2.499  0.00  0.00    +0.179 C 
ATOM     17  C   UNL     1      -2.939  -3.190   2.194  0.00  0.00    +0.201 C 
BRANCH  17  18
ATOM     18  O   UNL     1      -3.712  -3.108   3.396  0.00  0.00    -0.384 OA
ATOM     19  H   UNL     1      -3.198  -3.587   4.076  0.00  0.00    +0.210 HD
ENDBRANCH  17  18
BRANCH  16  20
ATOM     20  O   UNL     1      -1.211  -4.445   3.333  0.00  0.00    -0.386 OA
ATOM     21  H   UNL     1      -0.254  -4.450   3.529  0.00  0.00    +0.210 HD
ENDBRANCH  16  20
BRANCH  15  22
ATOM     22  O   UNL     1       0.510  -2.121   3.269  0.00  0.00    -0.386 OA
ATOM     23  H   UNL     1       0.848  -2.427   2.410  0.00  0.00    +0.210 HD
ENDBRANCH  15  22
BRANCH  14  24
ATOM     24  C   UNL     1      -1.148   0.513   3.322  0.00  0.00    +0.190 C 
BRANCH  24  25
ATOM     25  O   UNL     1      -1.563   0.350   4.678  0.00  0.00    -0.392 OA
ATOM     26  H   UNL     1      -2.360   0.889   4.817  0.00  0.00    +0.210 HD
ENDBRANCH  24  25
ENDBRANCH  14  24
ENDBRANCH  11  12
ENDBRANCH   6  11
BRANCH   3  27
ATOM     27  C   UNL     1      -2.650   0.970  -4.335  0.00  0.00    +0.190 C 
BRANCH  27  28
ATOM     28  O   UNL     1      -3.598   2.016  -4.536  0.00  0.00    -0.392 OA
ATOM     29  H   UNL     1      -4.488   1.626  -4.520  0.00  0.00    +0.210 HD
ENDBRANCH  27  28
ENDBRANCH   3  27
BRANCH   1  30
ATOM     30  O   UNL     1      -5.120  -1.643  -1.786  0.00  0.00    -0.453 OA
BRANCH  30  41
ATOM     31  C   UNL     1      -7.117  -2.338  -0.590  0.00  0.00    +0.181 A 
ATOM     32  O   UNL     1      -7.950  -3.412  -0.190  0.00  0.00    -0.451 OA
ATOM     33  C   UNL     1      -7.488  -4.712  -0.229  0.00  0.00    +0.147 A 
ATOM     34  C   UNL     1      -6.157  -5.014  -0.456  0.00  0.00    +0.109 A 
ATOM     35  C   UNL     1      -5.699  -6.353  -0.370  0.00  0.00    +0.135 A 
ATOM     36  C   UNL     1      -6.562  -7.397  -0.087  0.00  0.00    +0.091 A 
ATOM     37  C   UNL     1      -7.904  -7.111   0.053  0.00  0.00    +0.124 A 
ATOM     38  C   UNL     1      -5.271  -3.920  -0.832  0.00  0.00    +0.238 A 
ATOM     39  O   UNL     1      -4.093  -4.198  -1.021  0.00  0.00    -0.283 OA
ATOM     40  C   UNL     1      -8.371  -5.780  -0.007  0.00  0.00    +0.092 A 
ATOM     41  C   UNL     1      -5.825  -2.529  -0.983  0.00  0.00    +0.214 A 
BRANCH  31  43
ATOM     42  C   UNL     1      -7.157   0.246  -0.576  0.00  0.00    +0.015 A 
ATOM     43  C   UNL     1      -7.836  -0.991  -0.546  0.00  0.00    +0.025 A 
ATOM     44  C   UNL     1      -9.231  -0.889  -0.366  0.00  0.00    +0.060 A 
ATOM     45  C   UNL     1      -9.866   0.365  -0.288  0.00  0.00    +0.159 A 
ATOM     46  C   UNL     1      -9.152   1.556  -0.366  0.00  0.00    +0.158 A 
ATOM     47  C   UNL     1      -7.782   1.502  -0.495  0.00  0.00    +0.050 A 
BRANCH  46  48
ATOM     48  O   UNL     1      -9.829   2.743  -0.305  0.00  0.00    -0.503 OA
ATOM     49  H   UNL     1      -9.184   3.472  -0.453  0.00  0.00    +0.292 HD
ENDBRANCH  46  48
BRANCH  45  50
ATOM     50  O   UNL     1     -11.224   0.430  -0.129  0.00  0.00    -0.503 OA
ATOM     51  H   UNL     1     -11.423   1.387  -0.096  0.00  0.00    +0.292 HD
ENDBRANCH  45  50
ENDBRANCH  31  43
BRANCH  37  52
ATOM     52  O   UNL     1      -8.819  -8.101   0.302  0.00  0.00    -0.507 OA
ATOM     53  H   UNL     1      -8.353  -8.952   0.370  0.00  0.00    +0.292 HD
ENDBRANCH  37  52
BRANCH  35  54
ATOM     54  O   UNL     1      -4.390  -6.718  -0.558  0.00  0.00    -0.506 OA
ATOM     55  H   UNL     1      -3.871  -5.910  -0.781  0.00  0.00    +0.292 HD
ENDBRANCH  35  54
ENDBRANCH  30  41
ENDBRANCH   1  30
TORSDOF 18
