REMARK  Name = 
REMARK  12 active torsions:
REMARK  status: ('A' for Active; 'I' for Inactive)
REMARK    1  A    between atoms: C_3  and  O_37
REMARK    2  A    between atoms: C_4  and  O_36
REMARK    3  A    between atoms: C_6  and  C_7
REMARK    4  A    between atoms: C_8  and  O_35
REMARK    5  A    between atoms: C_12  and  O_34
REMARK    6  A    between atoms: C_14  and  O_18
REMARK    7  A    between atoms: O_18  and  C_19
REMARK    8  A    between atoms: C_21  and  O_33
REMARK    9  A    between atoms: C_22  and  O_32
REMARK   10  A    between atoms: C_24  and  O_31
REMARK   11  A    between atoms: C_26  and  C_28
REMARK   12  A    between atoms: C_28  and  O_30
REMARK                            x       y       z     vdW  Elec       q    Type
REMARK                         _______ _______ _______ _____ _____    ______ ____
ROOT
ATOM      1  C   UNL     1      -1.412  -2.548  -0.175  0.00  0.00    +0.181 A 
ATOM      2  O   UNL     1      -0.671  -3.728   0.025  0.00  0.00    -0.451 OA
ATOM      3  C   UNL     1      -1.295  -4.950  -0.156  0.00  0.00    +0.147 A 
ATOM      4  C   UNL     1      -2.647  -5.039  -0.473  0.00  0.00    +0.109 A 
ATOM      5  C   UNL     1      -3.257  -6.274  -0.648  0.00  0.00    +0.135 A 
ATOM      6  C   UNL     1      -2.525  -7.434  -0.491  0.00  0.00    +0.092 A 
ATOM      7  C   UNL     1      -1.173  -7.396  -0.123  0.00  0.00    +0.131 A 
ATOM      8  C   UNL     1      -3.434  -3.819  -0.640  0.00  0.00    +0.238 A 
ATOM      9  O   UNL     1      -4.637  -3.893  -0.883  0.00  0.00    -0.283 OA
ATOM     10  C   UNL     1      -0.549  -6.139   0.011  0.00  0.00    +0.093 A 
ATOM     11  C   UNL     1      -2.716  -2.540  -0.538  0.00  0.00    +0.208 A 
ENDROOT
BRANCH   1  13
ATOM     12  C   UNL     1      -1.260  -0.093   0.467  0.00  0.00    +0.015 A 
ATOM     13  C   UNL     1      -0.638  -1.276  -0.001  0.00  0.00    +0.025 A 
ATOM     14  C   UNL     1       0.721  -1.204  -0.334  0.00  0.00    +0.060 A 
ATOM     15  C   UNL     1       1.383   0.025  -0.296  0.00  0.00    +0.159 A 
ATOM     16  C   UNL     1       0.720   1.195   0.068  0.00  0.00    +0.158 A 
ATOM     17  C   UNL     1      -0.603   1.144   0.468  0.00  0.00    +0.050 A 
BRANCH  15  18
ATOM     18  O   UNL     1       2.702   0.085  -0.648  0.00  0.00    -0.503 OA
ATOM     19  H   UNL     1       2.942   1.029  -0.549  0.00  0.00    +0.292 HD
ENDBRANCH  15  18
BRANCH  16  20
ATOM     20  O   UNL     1       1.413   2.370   0.011  0.00  0.00    -0.503 OA
ATOM     21  H   UNL     1       0.798   3.101   0.198  0.00  0.00    +0.292 HD
ENDBRANCH  16  20
ENDBRANCH   1  13
BRANCH   5  22
ATOM     22  O   UNL     1      -4.582  -6.439  -0.949  0.00  0.00    -0.506 OA
ATOM     23  H   UNL     1      -4.999  -5.547  -0.995  0.00  0.00    +0.292 HD
ENDBRANCH   5  22
BRANCH  11  24
ATOM     24  O   UNL     1      -3.459  -1.416  -0.858  0.00  0.00    -0.501 OA
ATOM     25  H   UNL     1      -2.876  -0.791  -1.319  0.00  0.00    +0.292 HD
ENDBRANCH  11  24
BRANCH   7  26
ATOM     26  O   UNL     1      -0.430  -8.539   0.165  0.00  0.00    -0.461 OA
BRANCH  26  27
ATOM     27  C   UNL     1      -1.248  -9.717   0.386  0.00  0.00    +0.340 C 
ATOM     28  O   UNL     1      -2.124  -9.490   1.503  0.00  0.00    -0.322 OA
ATOM     29  C   UNL     1      -1.417  -9.597   2.751  0.00  0.00    +0.261 C 
ATOM     30  C   UNL     1      -1.066 -11.064   2.978  0.00  0.00    +0.185 C 
ATOM     31  C   UNL     1      -0.027 -11.453   1.919  0.00  0.00    +0.180 C 
ATOM     32  C   UNL     1      -0.491 -11.073   0.500  0.00  0.00    +0.214 C 
BRANCH  29  33
ATOM     33  C   UNL     1      -2.266  -9.047   3.887  0.00  0.00    +0.337 C 
ATOM     34  O   UNL     1      -1.969  -9.107   5.072  0.00  0.00    -0.248 OA
BRANCH  33  35
ATOM     35  O   UNL     1      -3.374  -8.407   3.432  0.00  0.00    -0.479 OA
ATOM     36  H   UNL     1      -3.417  -8.518   2.454  0.00  0.00    +0.295 HD
ENDBRANCH  33  35
ENDBRANCH  29  33
BRANCH  30  37
ATOM     37  O   UNL     1      -2.242 -11.866   2.790  0.00  0.00    -0.386 OA
ATOM     38  H   UNL     1      -2.112 -12.713   3.252  0.00  0.00    +0.210 HD
ENDBRANCH  30  37
BRANCH  31  39
ATOM     39  O   UNL     1       1.252 -10.884   2.208  0.00  0.00    -0.386 OA
ATOM     40  H   UNL     1       1.343 -10.036   1.733  0.00  0.00    +0.210 HD
ENDBRANCH  31  39
BRANCH  32  41
ATOM     41  O   UNL     1       0.583 -11.170  -0.440  0.00  0.00    -0.383 OA
ATOM     42  H   UNL     1       1.344 -11.578   0.014  0.00  0.00    +0.210 HD
ENDBRANCH  32  41
ENDBRANCH  26  27
ENDBRANCH   7  26
TORSDOF 12
