REMARK  Name = 
REMARK  13 active torsions:
REMARK  status: ('A' for Active; 'I' for Inactive)
REMARK    1  A    between atoms: C_1  and  O_2
REMARK    2  A    between atoms: O_2  and  C_3
REMARK    3  A    between atoms: C_4  and  C_30
REMARK    4  A    between atoms: C_10  and  O_15
REMARK    5  A    between atoms: C_12  and  O_14
REMARK    6  A    between atoms: O_15  and  C_16
REMARK    7  A    between atoms: C_18  and  O_29
REMARK    8  A    between atoms: C_19  and  O_28
REMARK    9  A    between atoms: C_21  and  O_27
REMARK   10  A    between atoms: C_23  and  C_25
REMARK   11  A    between atoms: C_25  and  O_26
REMARK   12  A    between atoms: C_32  and  O_37
REMARK   13  A    between atoms: C_33  and  O_36
REMARK                            x       y       z     vdW  Elec       q    Type
REMARK                         _______ _______ _______ _____ _____    ______ ____
ROOT
ATOM      1  C   UNL     1       3.000   1.224   0.389  0.00  0.00    +0.211 A 
ATOM      2  C   UNL     1       2.465   2.605   0.116  0.00  0.00    +0.238 A 
ATOM      3  O   UNL     1       1.362   2.799  -0.390  0.00  0.00    -0.283 OA
ATOM      4  C   UNL     1       3.294   3.756   0.499  0.00  0.00    +0.110 A 
ATOM      5  C   UNL     1       2.953   5.088   0.160  0.00  0.00    +0.142 A 
ATOM      6  C   UNL     1       3.801   6.123   0.571  0.00  0.00    +0.092 A 
ATOM      7  C   UNL     1       4.897   5.842   1.381  0.00  0.00    +0.124 A 
ATOM      8  C   UNL     1       5.216   4.539   1.737  0.00  0.00    +0.092 A 
ATOM      9  C   UNL     1       4.435   3.485   1.265  0.00  0.00    +0.147 A 
ATOM     10  O   UNL     1       4.834   2.221   1.607  0.00  0.00    -0.451 OA
ATOM     11  C   UNL     1       4.147   1.123   1.104  0.00  0.00    +0.181 A 
ENDROOT
BRANCH  11  12
ATOM     12  C   UNL     1       4.768  -0.191   1.485  0.00  0.00    +0.025 A 
ATOM     13  C   UNL     1       5.381  -0.354   2.745  0.00  0.00    +0.015 A 
ATOM     14  C   UNL     1       5.911  -1.587   3.148  0.00  0.00    +0.050 A 
ATOM     15  C   UNL     1       5.830  -2.674   2.294  0.00  0.00    +0.158 A 
ATOM     16  C   UNL     1       5.270  -2.531   1.031  0.00  0.00    +0.159 A 
ATOM     17  C   UNL     1       4.765  -1.299   0.615  0.00  0.00    +0.060 A 
BRANCH  15  18
ATOM     18  O   UNL     1       6.294  -3.892   2.701  0.00  0.00    -0.503 OA
ATOM     19  H   UNL     1       6.089  -4.494   1.957  0.00  0.00    +0.292 HD
ENDBRANCH  15  18
BRANCH  16  20
ATOM     20  O   UNL     1       5.227  -3.641   0.229  0.00  0.00    -0.503 OA
ATOM     21  H   UNL     1       4.780  -3.398  -0.600  0.00  0.00    +0.292 HD
ENDBRANCH  16  20
ENDBRANCH  11  12
BRANCH   1  23
ATOM     22  C   UNL     1       1.242   0.211  -0.923  0.00  0.00    +0.277 C 
ATOM     23  O   UNL     1       2.327   0.079  -0.016  0.00  0.00    -0.488 OA
ENDBRANCH   1  23
BRANCH   7  24
ATOM     24  O   UNL     1       5.676   6.847   1.874  0.00  0.00    -0.507 OA
ATOM     25  H   UNL     1       5.238   7.699   1.710  0.00  0.00    +0.292 HD
ENDBRANCH   7  24
BRANCH   5  26
ATOM     26  O   UNL     1       1.785   5.299  -0.541  0.00  0.00    -0.460 OA
BRANCH  26  27
ATOM     27  C   UNL     1       1.359   6.644  -0.811  0.00  0.00    +0.339 C 
ATOM     28  O   UNL     1       1.006   7.364   0.370  0.00  0.00    -0.331 OA
ATOM     29  C   UNL     1      -0.234   6.976   0.992  0.00  0.00    +0.179 C 
ATOM     30  C   UNL     1      -1.428   7.029   0.013  0.00  0.00    +0.177 C 
ATOM     31  C   UNL     1      -1.128   6.202  -1.241  0.00  0.00    +0.180 C 
ATOM     32  C   UNL     1       0.212   6.649  -1.844  0.00  0.00    +0.214 C 
BRANCH  30  33
ATOM     33  O   UNL     1      -1.687   8.389  -0.362  0.00  0.00    -0.386 OA
ATOM     34  H   UNL     1      -2.491   8.404  -0.912  0.00  0.00    +0.210 HD
ENDBRANCH  30  33
BRANCH  31  35
ATOM     35  O   UNL     1      -1.194   4.802  -0.957  0.00  0.00    -0.386 OA
ATOM     36  H   UNL     1      -0.396   4.503  -0.479  0.00  0.00    +0.210 HD
ENDBRANCH  31  35
BRANCH  32  37
ATOM     37  O   UNL     1       0.540   5.885  -3.009  0.00  0.00    -0.383 OA
ATOM     38  H   UNL     1       0.690   4.969  -2.708  0.00  0.00    +0.210 HD
ENDBRANCH  32  37
BRANCH  29  39
ATOM     39  C   UNL     1      -0.470   7.944   2.169  0.00  0.00    +0.190 C 
BRANCH  39  40
ATOM     40  O   UNL     1       0.555   7.852   3.169  0.00  0.00    -0.392 OA
ATOM     41  H   UNL     1       0.842   6.928   3.218  0.00  0.00    +0.210 HD
ENDBRANCH  39  40
ENDBRANCH  29  39
ENDBRANCH  26  27
ENDBRANCH   5  26
TORSDOF 12
