REMARK  Name = 
REMARK  21 active torsions:
REMARK  status: ('A' for Active; 'I' for Inactive)
REMARK    1  A    between atoms: C_1  and  C_2
REMARK    2  A    between atoms: C_3  and  O_60
REMARK    3  A    between atoms: C_5  and  O_59
REMARK    4  A    between atoms: C_6  and  O_58
REMARK    5  A    between atoms: C_8  and  O_11
REMARK    6  A    between atoms: O_11  and  C_12
REMARK    7  A    between atoms: C_13  and  O_57
REMARK    8  A    between atoms: C_15  and  O_56
REMARK    9  A    between atoms: C_18  and  O_20
REMARK   10  A    between atoms: O_20  and  C_21
REMARK   11  A    between atoms: C_22  and  C_48
REMARK   12  A    between atoms: C_26  and  O_33
REMARK   13  A    between atoms: C_28  and  O_32
REMARK   14  A    between atoms: O_33  and  C_34
REMARK   15  A    between atoms: C_36  and  O_47
REMARK   16  A    between atoms: C_37  and  O_46
REMARK   17  A    between atoms: C_39  and  O_45
REMARK   18  A    between atoms: C_41  and  C_43
REMARK   19  A    between atoms: C_43  and  O_44
REMARK   20  A    between atoms: C_50  and  O_55
REMARK   21  A    between atoms: C_51  and  O_54
REMARK                            x       y       z     vdW  Elec       q    Type
REMARK                         _______ _______ _______ _____ _____    ______ ____
ROOT
ATOM      1  C   UNL     1       0.162   0.747  -2.990  0.00  0.00    +0.214 A 
ATOM      2  C   UNL     1      -0.154  -0.701  -2.709  0.00  0.00    +0.238 A 
ATOM      3  O   UNL     1       0.064  -1.580  -3.531  0.00  0.00    -0.283 OA
ATOM      4  C   UNL     1      -0.740  -1.013  -1.379  0.00  0.00    +0.109 A 
ATOM      5  C   UNL     1      -1.273   0.051  -0.662  0.00  0.00    +0.147 A 
ATOM      6  C   UNL     1      -1.775  -0.117   0.639  0.00  0.00    +0.093 A 
ATOM      7  C   UNL     1      -1.772  -1.375   1.239  0.00  0.00    +0.131 A 
ATOM      8  C   UNL     1      -1.273  -2.461   0.509  0.00  0.00    +0.092 A 
ATOM      9  O   UNL     1      -1.353   1.312  -1.188  0.00  0.00    -0.451 OA
ATOM     10  C   UNL     1      -0.760  -2.282  -0.788  0.00  0.00    +0.135 A 
ATOM     11  C   UNL     1      -0.499   1.656  -2.228  0.00  0.00    +0.181 A 
ENDROOT
BRANCH  11  12
ATOM     12  C   UNL     1      -0.374   3.130  -2.250  0.00  0.00    +0.025 A 
ATOM     13  C   UNL     1       0.589   3.723  -1.417  0.00  0.00    +0.015 A 
ATOM     14  C   UNL     1       0.653   5.116  -1.287  0.00  0.00    +0.050 A 
ATOM     15  C   UNL     1      -0.236   5.906  -1.999  0.00  0.00    +0.158 A 
ATOM     16  C   UNL     1      -1.175   5.335  -2.854  0.00  0.00    +0.159 A 
ATOM     17  C   UNL     1      -1.275   3.948  -2.965  0.00  0.00    +0.060 A 
BRANCH  16  18
ATOM     18  O   UNL     1      -1.974   6.191  -3.560  0.00  0.00    -0.503 OA
ATOM     19  H   UNL     1      -2.445   5.694  -4.252  0.00  0.00    +0.292 HD
ENDBRANCH  16  18
BRANCH  15  20
ATOM     20  O   UNL     1      -0.180   7.261  -1.846  0.00  0.00    -0.503 OA
ATOM     21  H   UNL     1      -0.949   7.608  -2.341  0.00  0.00    +0.292 HD
ENDBRANCH  15  20
ENDBRANCH  11  12
BRANCH  10  22
ATOM     22  O   UNL     1      -0.263  -3.364  -1.457  0.00  0.00    -0.506 OA
ATOM     23  H   UNL     1      -0.276  -4.157  -0.898  0.00  0.00    +0.292 HD
ENDBRANCH  10  22
BRANCH   7  24
ATOM     24  O   UNL     1      -2.180  -1.648   2.524  0.00  0.00    -0.461 OA
BRANCH  24  25
ATOM     25  C   UNL     1      -3.075  -0.702   3.151  0.00  0.00    +0.339 C 
ATOM     26  O   UNL     1      -2.404   0.455   3.659  0.00  0.00    -0.331 OA
ATOM     27  C   UNL     1      -1.437   0.169   4.686  0.00  0.00    +0.179 C 
ATOM     28  C   UNL     1      -2.020  -0.608   5.892  0.00  0.00    +0.177 C 
ATOM     29  C   UNL     1      -2.935  -1.764   5.465  0.00  0.00    +0.180 C 
ATOM     30  C   UNL     1      -3.857  -1.379   4.299  0.00  0.00    +0.214 C 
BRANCH  29  31
ATOM     31  O   UNL     1      -2.175  -2.939   5.161  0.00  0.00    -0.386 OA
ATOM     32  H   UNL     1      -2.042  -2.984   4.194  0.00  0.00    +0.210 HD
ENDBRANCH  29  31
BRANCH  30  33
ATOM     33  O   UNL     1      -4.577  -2.528   3.828  0.00  0.00    -0.383 OA
ATOM     34  H   UNL     1      -4.271  -3.303   4.336  0.00  0.00    +0.210 HD
ENDBRANCH  30  33
BRANCH  28  35
ATOM     35  O   UNL     1      -2.772   0.265   6.744  0.00  0.00    -0.386 OA
ATOM     36  H   UNL     1      -2.883  -0.185   7.603  0.00  0.00    +0.210 HD
ENDBRANCH  28  35
BRANCH  27  37
ATOM     37  C   UNL     1      -0.825   1.515   5.135  0.00  0.00    +0.190 C 
BRANCH  37  38
ATOM     38  O   UNL     1      -0.296   2.270   4.041  0.00  0.00    -0.392 OA
ATOM     39  H   UNL     1      -0.275   1.692   3.260  0.00  0.00    +0.210 HD
ENDBRANCH  37  38
ENDBRANCH  27  37
ENDBRANCH  24  25
ENDBRANCH   7  24
BRANCH   1  40
ATOM     40  O   UNL     1       1.111   0.931  -3.980  0.00  0.00    -0.453 OA
BRANCH  40  42
ATOM     41  C   UNL     1       2.423   2.947  -4.565  0.00  0.00    +0.221 C 
ATOM     42  C   UNL     1       1.137   2.097  -4.792  0.00  0.00    +0.340 C 
ATOM     43  O   UNL     1       1.000   1.767  -6.181  0.00  0.00    -0.337 OA
ATOM     44  C   UNL     1       0.730   2.933  -6.954  0.00  0.00    +0.198 C 
ATOM     45  C   UNL     1       1.852   3.968  -6.858  0.00  0.00    +0.171 C 
ATOM     46  C   UNL     1       2.215   4.249  -5.384  0.00  0.00    +0.180 C 
BRANCH  46  47
ATOM     47  O   UNL     1       3.304   5.179  -5.332  0.00  0.00    -0.386 OA
ATOM     48  H   UNL     1       3.391   5.514  -4.424  0.00  0.00    +0.210 HD
ENDBRANCH  46  47
BRANCH  45  49
ATOM     49  O   UNL     1       1.396   5.164  -7.509  0.00  0.00    -0.387 OA
ATOM     50  H   UNL     1       1.324   5.871  -6.844  0.00  0.00    +0.210 HD
ENDBRANCH  45  49
BRANCH  41  51
ATOM     51  O   UNL     1       3.636   2.220  -4.879  0.00  0.00    -0.337 OA
BRANCH  51  55
ATOM     52  C   UNL     1       7.362   4.003  -5.831  0.00  0.00    +0.041 C 
ATOM     53  C   UNL     1       7.266   2.862  -4.810  0.00  0.00    +0.149 C 
ATOM     54  O   UNL     1       6.023   2.130  -4.918  0.00  0.00    -0.343 OA
ATOM     55  C   UNL     1       4.862   2.905  -4.560  0.00  0.00    +0.282 C 
ATOM     56  C   UNL     1       4.968   3.348  -3.077  0.00  0.00    +0.201 C 
ATOM     57  C   UNL     1       6.263   4.131  -2.859  0.00  0.00    +0.179 C 
ATOM     58  C   UNL     1       7.483   3.356  -3.369  0.00  0.00    +0.174 C 
BRANCH  58  59
ATOM     59  O   UNL     1       7.699   2.241  -2.486  0.00  0.00    -0.387 OA
ATOM     60  H   UNL     1       6.958   1.615  -2.651  0.00  0.00    +0.210 HD
ENDBRANCH  58  59
BRANCH  57  61
ATOM     61  O   UNL     1       6.399   4.409  -1.456  0.00  0.00    -0.386 OA
ATOM     62  H   UNL     1       7.007   3.719  -1.112  0.00  0.00    +0.210 HD
ENDBRANCH  57  61
BRANCH  56  63
ATOM     63  O   UNL     1       4.924   2.219  -2.183  0.00  0.00    -0.384 OA
ATOM     64  H   UNL     1       4.989   2.590  -1.283  0.00  0.00    +0.210 HD
ENDBRANCH  56  63
ENDBRANCH  51  55
ENDBRANCH  41  51
ENDBRANCH  40  42
ENDBRANCH   1  40
TORSDOF 20
