REMARK  Name = 
REMARK  18 active torsions:
REMARK  status: ('A' for Active; 'I' for Inactive)
REMARK    1  A    between atoms: C_1  and  O_2
REMARK    2  A    between atoms: O_2  and  C_3
REMARK    3  A    between atoms: C_4  and  O_48
REMARK    4  A    between atoms: C_7  and  C_9
REMARK    5  A    between atoms: C_10  and  O_22
REMARK    6  A    between atoms: C_14  and  O_21
REMARK    7  A    between atoms: C_16  and  O_20
REMARK    8  A    between atoms: O_22  and  C_23
REMARK    9  A    between atoms: C_25  and  O_36
REMARK   10  A    between atoms: C_26  and  O_35
REMARK   11  A    between atoms: C_28  and  O_34
REMARK   12  A    between atoms: C_30  and  C_32
REMARK   13  A    between atoms: C_32  and  O_33
REMARK   14  A    between atoms: O_36  and  C_37
REMARK   15  A    between atoms: C_39  and  O_47
REMARK   16  A    between atoms: C_41  and  C_44
REMARK   17  A    between atoms: C_41  and  O_46
REMARK   18  A    between atoms: C_44  and  O_45
REMARK                            x       y       z     vdW  Elec       q    Type
REMARK                         _______ _______ _______ _____ _____    ______ ____
ROOT
ATOM      1  O   UNL     1       3.942  -3.074  -3.311  0.00  0.00    -0.453 OA
ENDROOT
BRANCH   1  12
ATOM      2  C   UNL     1       3.322  -5.463  -3.739  0.00  0.00    +0.181 A 
ATOM      3  O   UNL     1       2.521  -6.599  -3.369  0.00  0.00    -0.451 OA
ATOM      4  C   UNL     1       1.621  -6.543  -2.327  0.00  0.00    +0.147 A 
ATOM      5  C   UNL     1       1.333  -5.359  -1.698  0.00  0.00    +0.109 A 
ATOM      6  C   UNL     1       0.391  -5.268  -0.648  0.00  0.00    +0.135 A 
ATOM      7  C   UNL     1      -0.310  -6.383  -0.233  0.00  0.00    +0.091 A 
ATOM      8  C   UNL     1      -0.050  -7.583  -0.876  0.00  0.00    +0.124 A 
ATOM      9  C   UNL     1       1.941  -4.168  -2.228  0.00  0.00    +0.238 A 
ATOM     10  O   UNL     1       1.381  -3.140  -1.872  0.00  0.00    -0.283 OA
ATOM     11  C   UNL     1       0.913  -7.676  -1.905  0.00  0.00    +0.092 A 
ATOM     12  C   UNL     1       3.136  -4.243  -3.142  0.00  0.00    +0.214 A 
BRANCH   2  15
ATOM     13  C   UNL     1       5.933  -5.329  -6.670  0.00  0.00    +0.162 A 
ATOM     14  C   UNL     1       5.144  -4.937  -5.555  0.00  0.00    +0.061 A 
ATOM     15  C   UNL     1       4.287  -5.840  -4.881  0.00  0.00    +0.025 A 
ATOM     16  C   UNL     1       4.304  -7.173  -5.380  0.00  0.00    +0.015 A 
ATOM     17  C   UNL     1       5.094  -7.575  -6.477  0.00  0.00    +0.050 A 
ATOM     18  C   UNL     1       5.901  -6.652  -7.112  0.00  0.00    +0.158 A 
BRANCH  18  19
ATOM     19  O   UNL     1       6.660  -7.067  -8.173  0.00  0.00    -0.503 OA
ATOM     20  H   UNL     1       7.178  -6.288  -8.454  0.00  0.00    +0.292 HD
ENDBRANCH  18  19
BRANCH  13  22
ATOM     21  C   UNL     1       6.496  -3.182  -7.557  0.00  0.00    +0.277 C 
ATOM     22  O   UNL     1       6.837  -4.544  -7.339  0.00  0.00    -0.491 OA
ENDBRANCH  13  22
ENDBRANCH   2  15
BRANCH   8  23
ATOM     23  O   UNL     1      -0.756  -8.694  -0.521  0.00  0.00    -0.507 OA
ATOM     24  H   UNL     1      -1.399  -8.449   0.173  0.00  0.00    +0.292 HD
ENDBRANCH   8  23
BRANCH   6  25
ATOM     25  O   UNL     1       0.094  -4.100   0.003  0.00  0.00    -0.506 OA
ATOM     26  H   UNL     1       0.513  -3.362  -0.504  0.00  0.00    +0.292 HD
ENDBRANCH   6  25
ENDBRANCH   1  12
BRANCH   1  27
ATOM     27  C   UNL     1       3.754  -2.086  -2.246  0.00  0.00    +0.340 C 
ATOM     28  O   UNL     1       2.615  -1.232  -2.432  0.00  0.00    -0.331 OA
ATOM     29  C   UNL     1       2.732  -0.181  -3.388  0.00  0.00    +0.179 C 
ATOM     30  C   UNL     1       3.875   0.779  -3.001  0.00  0.00    +0.177 C 
ATOM     31  C   UNL     1       5.171  -0.027  -2.809  0.00  0.00    +0.180 C 
ATOM     32  C   UNL     1       4.933  -1.183  -1.830  0.00  0.00    +0.221 C 
BRANCH  31  33
ATOM     33  O   UNL     1       5.711  -0.516  -4.031  0.00  0.00    -0.386 OA
ATOM     34  H   UNL     1       6.356  -1.212  -3.789  0.00  0.00    +0.210 HD
ENDBRANCH  31  33
BRANCH  30  35
ATOM     35  O   UNL     1       3.629   1.457  -1.762  0.00  0.00    -0.386 OA
ATOM     36  H   UNL     1       4.229   2.223  -1.705  0.00  0.00    +0.210 HD
ENDBRANCH  30  35
BRANCH  32  37
ATOM     37  O   UNL     1       6.129  -1.905  -1.481  0.00  0.00    -0.337 OA
BRANCH  37  38
ATOM     38  C   UNL     1       7.085  -1.088  -0.788  0.00  0.00    +0.282 C 
ATOM     39  O   UNL     1       8.235  -1.827  -0.355  0.00  0.00    -0.346 OA
ATOM     40  C   UNL     1       8.713  -1.223   0.877  0.00  0.00    +0.202 C 
ATOM     41  C   UNL     1       7.802  -0.032   1.202  0.00  0.00    +0.142 C 
ATOM     42  C   UNL     1       6.523  -0.431   0.485  0.00  0.00    +0.206 C 
BRANCH  42  43
ATOM     43  O   UNL     1       5.747  -1.359   1.263  0.00  0.00    -0.384 OA
ATOM     44  H   UNL     1       5.401  -2.037   0.650  0.00  0.00    +0.210 HD
ENDBRANCH  42  43
BRANCH  41  45
ATOM     45  O   UNL     1       8.295   1.186   0.603  0.00  0.00    -0.381 OA
ATOM     46  H   UNL     1       8.785   0.979  -0.212  0.00  0.00    +0.210 HD
ENDBRANCH  41  45
BRANCH  41  47
ATOM     47  C   UNL     1       7.594   0.211   2.704  0.00  0.00    +0.195 C 
BRANCH  47  48
ATOM     48  O   UNL     1       7.167  -0.945   3.408  0.00  0.00    -0.392 OA
ATOM     49  H   UNL     1       6.376  -1.284   2.913  0.00  0.00    +0.210 HD
ENDBRANCH  47  48
ENDBRANCH  41  47
ENDBRANCH  37  38
ENDBRANCH  32  37
BRANCH  29  50
ATOM     50  C   UNL     1       1.330   0.459  -3.542  0.00  0.00    +0.190 C 
BRANCH  50  51
ATOM     51  O   UNL     1       0.826   1.132  -2.392  0.00  0.00    -0.392 OA
ATOM     52  H   UNL     1       0.398   0.458  -1.834  0.00  0.00    +0.210 HD
ENDBRANCH  50  51
ENDBRANCH  29  50
ENDBRANCH   1  27
TORSDOF 17
