REMARK  Name = 
REMARK  20 active torsions:
REMARK  status: ('A' for Active; 'I' for Inactive)
REMARK    1  A    between atoms: C_3  and  O_58
REMARK    2  A    between atoms: C_6  and  C_7
REMARK    3  A    between atoms: C_8  and  C_9
REMARK    4  A    between atoms: C_9  and  O_11
REMARK    5  A    between atoms: O_11  and  C_12
REMARK    6  A    between atoms: C_12  and  C_13
REMARK    7  A    between atoms: C_15  and  O_57
REMARK    8  A    between atoms: C_17  and  O_45
REMARK    9  A    between atoms: C_18  and  O_44
REMARK   10  A    between atoms: C_19  and  O_22
REMARK   11  A    between atoms: O_22  and  C_23
REMARK   12  A    between atoms: C_24  and  C_36
REMARK   13  A    between atoms: C_28  and  O_35
REMARK   14  A    between atoms: C_30  and  O_34
REMARK   15  A    between atoms: C_38  and  O_43
REMARK   16  A    between atoms: C_39  and  O_42
REMARK   17  A    between atoms: O_45  and  C_46
REMARK   18  A    between atoms: C_46  and  C_48
REMARK   19  A    between atoms: C_49  and  C_50
REMARK   20  A    between atoms: C_53  and  O_56
REMARK                            x       y       z     vdW  Elec       q    Type
REMARK                         _______ _______ _______ _____ _____    ______ ____
ROOT
ATOM      1  C   UNL     1      -7.555   4.010  -0.504  0.00  0.00    +0.192 C 
ATOM      2  O   UNL     1      -8.381   3.007  -1.138  0.00  0.00    -0.330 OA
ATOM      3  C   UNL     1      -8.111   2.893  -2.548  0.00  0.00    +0.341 C 
ATOM      4  C   UNL     1      -8.536   4.201  -3.239  0.00  0.00    +0.226 C 
ATOM      5  C   UNL     1      -7.747   5.350  -2.629  0.00  0.00    +0.242 C 
ATOM      6  C   UNL     1      -7.848   5.397  -1.102  0.00  0.00    +0.190 C 
ENDROOT
BRANCH   6   7
ATOM      7  O   UNL     1      -6.927   6.392  -0.640  0.00  0.00    -0.385 OA
ATOM      8  H   UNL     1      -6.758   6.245   0.306  0.00  0.00    +0.210 HD
ENDBRANCH   6   7
BRANCH   4   9
ATOM      9  O   UNL     1      -9.955   4.428  -3.104  0.00  0.00    -0.382 OA
ATOM     10  H   UNL     1     -10.282   3.798  -2.434  0.00  0.00    +0.210 HD
ENDBRANCH   4   9
BRANCH   5  11
ATOM     11  O   UNL     1      -8.282   6.586  -3.132  0.00  0.00    -0.453 OA
BRANCH  11  12
ATOM     12  C   UNL     1      -7.418   7.369  -3.802  0.00  0.00    +0.332 C 
ATOM     13  O   UNL     1      -6.286   7.093  -4.158  0.00  0.00    -0.246 OA
BRANCH  12  14
ATOM     14  C   UNL     1      -8.102   8.650  -4.022  0.00  0.00    +0.092 C 
ATOM     15  C   UNL     1      -7.442   9.622  -4.661  0.00  0.00    +0.015 C 
BRANCH  15  16
ATOM     16  C   UNL     1      -7.981  10.971  -4.851  0.00  0.00    -0.025 A 
ATOM     17  C   UNL     1      -9.352  11.228  -4.977  0.00  0.00    +0.011 A 
ATOM     18  C   UNL     1      -9.806  12.541  -5.114  0.00  0.00    +0.046 A 
ATOM     19  C   UNL     1      -8.894  13.588  -5.127  0.00  0.00    +0.117 A 
ATOM     20  C   UNL     1      -7.534  13.344  -5.051  0.00  0.00    +0.046 A 
ATOM     21  C   UNL     1      -7.070  12.033  -4.919  0.00  0.00    +0.011 A 
BRANCH  19  22
ATOM     22  O   UNL     1      -9.380  14.856  -5.229  0.00  0.00    -0.507 OA
ATOM     23  H   UNL     1      -8.644  15.471  -5.087  0.00  0.00    +0.292 HD
ENDBRANCH  19  22
ENDBRANCH  15  16
ENDBRANCH  12  14
ENDBRANCH  11  12
ENDBRANCH   5  11
BRANCH   3  24
ATOM     24  O   UNL     1      -8.937   1.889  -3.133  0.00  0.00    -0.453 OA
BRANCH  24  25
ATOM     25  C   UNL     1      -8.494   0.623  -3.455  0.00  0.00    +0.214 A 
ATOM     26  C   UNL     1      -7.154   0.101  -3.051  0.00  0.00    +0.238 A 
ATOM     27  O   UNL     1      -6.237   0.850  -2.743  0.00  0.00    -0.283 OA
ATOM     28  C   UNL     1      -6.962  -1.357  -3.104  0.00  0.00    +0.109 A 
ATOM     29  C   UNL     1      -7.932  -2.115  -3.757  0.00  0.00    +0.147 A 
ATOM     30  C   UNL     1      -7.822  -3.509  -3.799  0.00  0.00    +0.092 A 
ATOM     31  C   UNL     1      -6.723  -4.127  -3.205  0.00  0.00    +0.124 A 
ATOM     32  C   UNL     1      -5.728  -3.380  -2.585  0.00  0.00    +0.091 A 
ATOM     33  O   UNL     1      -9.002  -1.547  -4.408  0.00  0.00    -0.451 OA
ATOM     34  C   UNL     1      -5.849  -1.994  -2.533  0.00  0.00    +0.135 A 
ATOM     35  C   UNL     1      -9.276  -0.199  -4.196  0.00  0.00    +0.181 A 
BRANCH  35  36
ATOM     36  C   UNL     1     -10.529   0.275  -4.867  0.00  0.00    +0.025 A 
ATOM     37  C   UNL     1     -11.651  -0.565  -4.994  0.00  0.00    +0.015 A 
ATOM     38  C   UNL     1     -12.827  -0.118  -5.619  0.00  0.00    +0.050 A 
ATOM     39  C   UNL     1     -12.889   1.174  -6.119  0.00  0.00    +0.158 A 
ATOM     40  C   UNL     1     -11.787   2.012  -6.034  0.00  0.00    +0.159 A 
ATOM     41  C   UNL     1     -10.608   1.563  -5.443  0.00  0.00    +0.060 A 
BRANCH  40  42
ATOM     42  O   UNL     1     -11.906   3.278  -6.540  0.00  0.00    -0.503 OA
ATOM     43  H   UNL     1     -11.134   3.795  -6.248  0.00  0.00    +0.292 HD
ENDBRANCH  40  42
BRANCH  39  44
ATOM     44  O   UNL     1     -14.045   1.622  -6.690  0.00  0.00    -0.503 OA
ATOM     45  H   UNL     1     -13.857   2.551  -6.932  0.00  0.00    +0.292 HD
ENDBRANCH  39  44
ENDBRANCH  35  36
BRANCH  34  46
ATOM     46  O   UNL     1      -4.874  -1.276  -1.901  0.00  0.00    -0.506 OA
ATOM     47  H   UNL     1      -4.114  -1.842  -1.695  0.00  0.00    +0.292 HD
ENDBRANCH  34  46
BRANCH  31  48
ATOM     48  O   UNL     1      -6.571  -5.482  -3.205  0.00  0.00    -0.507 OA
ATOM     49  H   UNL     1      -7.343  -5.894  -3.626  0.00  0.00    +0.292 HD
ENDBRANCH  31  48
ENDBRANCH  24  25
ENDBRANCH   3  24
BRANCH   1  50
ATOM     50  C   UNL     1      -7.844   3.992   1.014  0.00  0.00    +0.266 C 
BRANCH  50  51
ATOM     51  O   UNL     1      -7.108   4.926   1.840  0.00  0.00    -0.459 OA
BRANCH  51  52
ATOM     52  C   UNL     1      -5.795   4.651   2.062  0.00  0.00    +0.332 C 
ATOM     53  O   UNL     1      -5.085   3.967   1.347  0.00  0.00    -0.246 OA
BRANCH  52  55
ATOM     54  C   UNL     1      -4.117   5.136   3.783  0.00  0.00    +0.015 C 
ATOM     55  C   UNL     1      -5.380   5.276   3.344  0.00  0.00    +0.092 C 
BRANCH  54  57
ATOM     56  C   UNL     1      -4.047   6.757   5.733  0.00  0.00    +0.011 A 
ATOM     57  C   UNL     1      -3.584   5.606   5.078  0.00  0.00    -0.025 A 
ATOM     58  C   UNL     1      -2.512   4.902   5.654  0.00  0.00    +0.011 A 
ATOM     59  C   UNL     1      -1.922   5.331   6.847  0.00  0.00    +0.046 A 
ATOM     60  C   UNL     1      -2.389   6.479   7.470  0.00  0.00    +0.117 A 
ATOM     61  C   UNL     1      -3.452   7.193   6.928  0.00  0.00    +0.046 A 
BRANCH  60  62
ATOM     62  O   UNL     1      -1.765   6.879   8.614  0.00  0.00    -0.507 OA
ATOM     63  H   UNL     1      -2.121   7.742   8.881  0.00  0.00    +0.292 HD
ENDBRANCH  60  62
ENDBRANCH  54  57
ENDBRANCH  52  55
ENDBRANCH  51  52
ENDBRANCH  50  51
ENDBRANCH   1  50
TORSDOF 20
