REMARK  Name = 
REMARK  18 active torsions:
REMARK  status: ('A' for Active; 'I' for Inactive)
REMARK    1  A    between atoms: C_1  and  C_2
REMARK    2  A    between atoms: C_3  and  O_44
REMARK    3  A    between atoms: C_5  and  O_43
REMARK    4  A    between atoms: C_6  and  O_33
REMARK    5  A    between atoms: C_8  and  O_11
REMARK    6  A    between atoms: O_11  and  C_12
REMARK    7  A    between atoms: C_13  and  C_25
REMARK    8  A    between atoms: C_17  and  O_24
REMARK    9  A    between atoms: C_19  and  O_23
REMARK   10  A    between atoms: C_27  and  O_32
REMARK   11  A    between atoms: C_28  and  O_31
REMARK   12  A    between atoms: O_33  and  C_34
REMARK   13  A    between atoms: C_34  and  C_36
REMARK   14  A    between atoms: C_39  and  O_42
REMARK   15  A    between atoms: O_44  and  C_45
REMARK   16  A    between atoms: C_45  and  C_47
REMARK   17  A    between atoms: C_48  and  C_49
REMARK   18  A    between atoms: C_52  and  O_55
REMARK                            x       y       z     vdW  Elec       q    Type
REMARK                         _______ _______ _______ _____ _____    ______ ____
ROOT
ATOM      1  C   UNL     1       1.015   0.058   0.235  0.00  0.00    +0.042 C 
ATOM      2  C   UNL     1       2.539   0.007   0.094  0.00  0.00    +0.163 C 
ATOM      3  O   UNL     1       3.012   0.941  -0.900  0.00  0.00    -0.332 OA
ATOM      4  C   UNL     1       2.698   0.583  -2.268  0.00  0.00    +0.352 C 
ATOM      5  C   UNL     1       3.294  -0.801  -2.604  0.00  0.00    +0.277 C 
ATOM      6  C   UNL     1       2.778  -1.835  -1.603  0.00  0.00    +0.204 C 
ATOM      7  C   UNL     1       3.071  -1.418  -0.153  0.00  0.00    +0.237 C 
ENDROOT
BRANCH   6   8
ATOM      8  O   UNL     1       3.334  -3.124  -1.883  0.00  0.00    -0.384 OA
ATOM      9  H   UNL     1       4.300  -3.011  -1.940  0.00  0.00    +0.210 HD
ENDBRANCH   6   8
BRANCH   5  10
ATOM     10  O   UNL     1       4.733  -0.687  -2.463  0.00  0.00    -0.449 OA
BRANCH  10  11
ATOM     11  C   UNL     1       5.511  -0.781  -3.557  0.00  0.00    +0.340 C 
ATOM     12  O   UNL     1       5.175  -1.199  -4.650  0.00  0.00    -0.245 OA
BRANCH  11  13
ATOM     13  C   UNL     1       6.879  -0.325  -3.197  0.00  0.00    +0.059 A 
ATOM     14  C   UNL     1       7.154   0.293  -1.967  0.00  0.00    +0.018 A 
ATOM     15  C   UNL     1       8.469   0.575  -1.603  0.00  0.00    +0.046 A 
ATOM     16  C   UNL     1       9.498   0.258  -2.477  0.00  0.00    +0.117 A 
ATOM     17  C   UNL     1       9.235  -0.261  -3.742  0.00  0.00    +0.046 A 
ATOM     18  C   UNL     1       7.919  -0.552  -4.105  0.00  0.00    +0.018 A 
BRANCH  16  19
ATOM     19  O   UNL     1      10.775   0.447  -2.042  0.00  0.00    -0.507 OA
ATOM     20  H   UNL     1      11.358  -0.134  -2.559  0.00  0.00    +0.292 HD
ENDBRANCH  16  19
ENDBRANCH  11  13
ENDBRANCH  10  11
ENDBRANCH   5  10
BRANCH   7  21
ATOM     21  O   UNL     1       4.509  -1.380   0.059  0.00  0.00    -0.453 OA
BRANCH  21  22
ATOM     22  C   UNL     1       5.073  -2.313   0.859  0.00  0.00    +0.332 C 
ATOM     23  O   UNL     1       4.501  -3.188   1.481  0.00  0.00    -0.246 OA
BRANCH  22  24
ATOM     24  C   UNL     1       6.529  -2.071   0.868  0.00  0.00    +0.092 C 
ATOM     25  C   UNL     1       7.384  -2.955   1.400  0.00  0.00    +0.015 C 
BRANCH  25  26
ATOM     26  C   UNL     1       8.821  -2.678   1.431  0.00  0.00    -0.025 A 
ATOM     27  C   UNL     1       9.645  -3.037   0.357  0.00  0.00    +0.011 A 
ATOM     28  C   UNL     1      11.010  -2.735   0.388  0.00  0.00    +0.046 A 
ATOM     29  C   UNL     1      11.545  -2.068   1.483  0.00  0.00    +0.117 A 
ATOM     30  C   UNL     1      10.742  -1.711   2.562  0.00  0.00    +0.046 A 
ATOM     31  C   UNL     1       9.378  -2.015   2.532  0.00  0.00    +0.011 A 
BRANCH  29  32
ATOM     32  O   UNL     1      12.879  -1.782   1.467  0.00  0.00    -0.507 OA
ATOM     33  H   UNL     1      13.089  -1.250   2.252  0.00  0.00    +0.292 HD
ENDBRANCH  29  32
ENDBRANCH  25  26
ENDBRANCH  22  24
ENDBRANCH  21  22
ENDBRANCH   7  21
BRANCH   4  34
ATOM     34  O   UNL     1       3.242   1.598  -3.138  0.00  0.00    -0.452 OA
BRANCH  34  35
ATOM     35  C   UNL     1       3.046   1.473  -4.512  0.00  0.00    +0.214 A 
ATOM     36  C   UNL     1       1.844   0.753  -5.056  0.00  0.00    +0.238 A 
ATOM     37  O   UNL     1       0.972   0.322  -4.310  0.00  0.00    -0.283 OA
ATOM     38  C   UNL     1       1.762   0.542  -6.509  0.00  0.00    +0.109 A 
ATOM     39  C   UNL     1       2.735   1.138  -7.300  0.00  0.00    +0.147 A 
ATOM     40  C   UNL     1       2.698   1.007  -8.691  0.00  0.00    +0.092 A 
ATOM     41  C   UNL     1       1.678   0.261  -9.279  0.00  0.00    +0.124 A 
ATOM     42  C   UNL     1       0.708  -0.359  -8.501  0.00  0.00    +0.091 A 
ATOM     43  O   UNL     1       3.773   1.865  -6.784  0.00  0.00    -0.451 OA
ATOM     44  C   UNL     1       0.752  -0.222  -7.115  0.00  0.00    +0.135 A 
ATOM     45  C   UNL     1       3.944   1.956  -5.404  0.00  0.00    +0.181 A 
BRANCH  45  46
ATOM     46  C   UNL     1       5.263   2.585  -5.057  0.00  0.00    +0.025 A 
ATOM     47  C   UNL     1       6.331   2.473  -5.979  0.00  0.00    +0.015 A 
ATOM     48  C   UNL     1       7.595   3.019  -5.724  0.00  0.00    +0.050 A 
ATOM     49  C   UNL     1       7.812   3.681  -4.531  0.00  0.00    +0.158 A 
ATOM     50  C   UNL     1       6.783   3.822  -3.612  0.00  0.00    +0.159 A 
ATOM     51  C   UNL     1       5.515   3.291  -3.865  0.00  0.00    +0.060 A 
BRANCH  50  52
ATOM     52  O   UNL     1       7.067   4.502  -2.454  0.00  0.00    -0.503 OA
ATOM     53  H   UNL     1       6.249   4.562  -1.930  0.00  0.00    +0.292 HD
ENDBRANCH  50  52
BRANCH  49  54
ATOM     54  O   UNL     1       9.051   4.189  -4.268  0.00  0.00    -0.503 OA
ATOM     55  H   UNL     1       8.987   4.539  -3.356  0.00  0.00    +0.292 HD
ENDBRANCH  49  54
ENDBRANCH  45  46
BRANCH  44  56
ATOM     56  O   UNL     1      -0.200  -0.855  -6.366  0.00  0.00    -0.506 OA
ATOM     57  H   UNL     1      -0.757  -1.415  -6.931  0.00  0.00    +0.292 HD
ENDBRANCH  44  56
BRANCH  41  58
ATOM     58  O   UNL     1       1.589   0.106 -10.627  0.00  0.00    -0.507 OA
ATOM     59  H   UNL     1       2.321   0.584 -11.057  0.00  0.00    +0.292 HD
ENDBRANCH  41  58
ENDBRANCH  34  35
ENDBRANCH   4  34
TORSDOF 17
