REMARK  Name = 
REMARK  14 active torsions:
REMARK  status: ('A' for Active; 'I' for Inactive)
REMARK    1  A    between atoms: C_3  and  O_41
REMARK    2  A    between atoms: C_4  and  O_40
REMARK    3  A    between atoms: C_6  and  C_7
REMARK    4  A    between atoms: C_8  and  O_24
REMARK    5  A    between atoms: C_12  and  O_23
REMARK    6  A    between atoms: C_14  and  O_18
REMARK    7  A    between atoms: O_18  and  S_19
REMARK    8  A    between atoms: S_19  and  O_22
REMARK    9  A    between atoms: O_24  and  C_25
REMARK   10  A    between atoms: C_27  and  O_39
REMARK   11  A    between atoms: C_28  and  O_38
REMARK   12  A    between atoms: C_29  and  O_37
REMARK   13  A    between atoms: C_31  and  C_34
REMARK   14  A    between atoms: C_34  and  O_36
REMARK                            x       y       z     vdW  Elec       q    Type
REMARK                         _______ _______ _______ _____ _____    ______ ____
ROOT
ATOM      1  C   UNL     1      -1.261  -2.742   0.328  0.00  0.00    +0.181 A 
ATOM      2  O   UNL     1      -0.600  -3.964   0.483  0.00  0.00    -0.451 OA
ATOM      3  C   UNL     1      -1.219  -5.139   0.159  0.00  0.00    +0.147 A 
ATOM      4  C   UNL     1      -2.545  -5.196  -0.229  0.00  0.00    +0.109 A 
ATOM      5  C   UNL     1      -3.106  -6.441  -0.551  0.00  0.00    +0.135 A 
ATOM      6  C   UNL     1      -2.346  -7.617  -0.492  0.00  0.00    +0.095 A 
ATOM      7  C   UNL     1      -1.016  -7.556  -0.094  0.00  0.00    +0.166 A 
ATOM      8  C   UNL     1      -3.283  -3.927  -0.330  0.00  0.00    +0.238 A 
ATOM      9  O   UNL     1      -4.457  -3.941  -0.693  0.00  0.00    -0.283 OA
ATOM     10  C   UNL     1      -0.451  -6.312   0.219  0.00  0.00    +0.096 A 
ATOM     11  C   UNL     1      -2.552  -2.641  -0.085  0.00  0.00    +0.214 A 
ENDROOT
BRANCH   1  13
ATOM     12  C   UNL     1      -0.743  -0.255   0.573  0.00  0.00    +0.015 A 
ATOM     13  C   UNL     1      -0.321  -1.590   0.514  0.00  0.00    +0.025 A 
ATOM     14  C   UNL     1       1.068  -1.811   0.491  0.00  0.00    +0.060 A 
ATOM     15  C   UNL     1       1.944  -0.750   0.293  0.00  0.00    +0.159 A 
ATOM     16  C   UNL     1       1.468   0.540   0.114  0.00  0.00    +0.158 A 
ATOM     17  C   UNL     1       0.127   0.808   0.311  0.00  0.00    +0.050 A 
BRANCH  15  18
ATOM     18  O   UNL     1       3.284  -0.997   0.214  0.00  0.00    -0.503 OA
ATOM     19  H   UNL     1       3.685  -0.115   0.075  0.00  0.00    +0.292 HD
ENDBRANCH  15  18
BRANCH  16  20
ATOM     20  O   UNL     1       2.351   1.508  -0.266  0.00  0.00    -0.503 OA
ATOM     21  H   UNL     1       1.839   2.228  -0.674  0.00  0.00    +0.292 HD
ENDBRANCH  16  20
ENDBRANCH   1  13
BRANCH   5  22
ATOM     22  O   UNL     1      -4.405  -6.595  -0.958  0.00  0.00    -0.506 OA
ATOM     23  H   UNL     1      -4.849  -5.722  -0.937  0.00  0.00    +0.292 HD
ENDBRANCH   5  22
BRANCH   7  24
ATOM     24  O   UNL     1      -0.155  -8.628  -0.041  0.00  0.00    -0.325 OA
BRANCH  24  25
ATOM     25  S   UNL     1      -0.689 -10.142   0.269  0.00  0.00    +0.251 S 
ATOM     26  O   UNL     1      -1.341 -10.674  -0.911  0.00  0.00    -0.108 OA
ATOM     27  O   UNL     1      -1.310 -10.163   1.571  0.00  0.00    -0.108 OA
BRANCH  25  28
ATOM     28  O   UNL     1       0.688 -10.964   0.453  0.00  0.00    -0.222 OA
ATOM     29  H   UNL     1       0.798 -11.121   1.417  0.00  0.00    +0.248 HD
ENDBRANCH  25  28
ENDBRANCH  24  25
ENDBRANCH   7  24
BRANCH  11  30
ATOM     30  O   UNL     1      -3.284  -1.455  -0.149  0.00  0.00    -0.453 OA
BRANCH  30  31
ATOM     31  C   UNL     1      -3.383  -0.758  -1.411  0.00  0.00    +0.340 C 
ATOM     32  O   UNL     1      -3.146   0.660  -1.251  0.00  0.00    -0.322 OA
ATOM     33  C   UNL     1      -4.163   1.434  -0.592  0.00  0.00    +0.261 C 
ATOM     34  C   UNL     1      -5.634   0.978  -0.675  0.00  0.00    +0.185 C 
ATOM     35  C   UNL     1      -5.810  -0.501  -1.016  0.00  0.00    +0.180 C 
ATOM     36  C   UNL     1      -4.771  -0.898  -2.068  0.00  0.00    +0.214 C 
BRANCH  33  37
ATOM     37  C   UNL     1      -3.778   1.705   0.855  0.00  0.00    +0.337 C 
ATOM     38  O   UNL     1      -4.096   1.004   1.799  0.00  0.00    -0.248 OA
BRANCH  37  39
ATOM     39  O   UNL     1      -2.968   2.787   1.007  0.00  0.00    -0.479 OA
ATOM     40  H   UNL     1      -2.781   3.263   0.173  0.00  0.00    +0.295 HD
ENDBRANCH  37  39
ENDBRANCH  33  37
BRANCH  34  41
ATOM     41  O   UNL     1      -6.293   1.745  -1.712  0.00  0.00    -0.386 OA
ATOM     42  H   UNL     1      -7.146   1.273  -1.851  0.00  0.00    +0.210 HD
ENDBRANCH  34  41
BRANCH  35  43
ATOM     43  O   UNL     1      -7.143  -0.693  -1.522  0.00  0.00    -0.386 OA
ATOM     44  H   UNL     1      -7.106  -1.544  -2.007  0.00  0.00    +0.210 HD
ENDBRANCH  35  43
BRANCH  36  45
ATOM     45  O   UNL     1      -5.071  -2.174  -2.627  0.00  0.00    -0.383 OA
ATOM     46  H   UNL     1      -4.435  -2.830  -2.289  0.00  0.00    +0.210 HD
ENDBRANCH  36  45
ENDBRANCH  30  31
ENDBRANCH  11  30
TORSDOF 14
