REMARK  Name = 
REMARK  16 active torsions:
REMARK  status: ('A' for Active; 'I' for Inactive)
REMARK    1  A    between atoms: C_1  and  C_2
REMARK    2  A    between atoms: C_2  and  C_3
REMARK    3  A    between atoms: C_3  and  C_4
REMARK    4  A    between atoms: C_4  and  O_5
REMARK    5  A    between atoms: O_5  and  C_6
REMARK    6  A    between atoms: C_6  and  C_8
REMARK    7  A    between atoms: C_9  and  O_41
REMARK    8  A    between atoms: C_11  and  O_40
REMARK    9  A    between atoms: C_13  and  O_39
REMARK   10  A    between atoms: C_14  and  O_17
REMARK   11  A    between atoms: O_17  and  C_18
REMARK   12  A    between atoms: C_19  and  C_31
REMARK   13  A    between atoms: C_23  and  O_30
REMARK   14  A    between atoms: C_25  and  O_29
REMARK   15  A    between atoms: C_33  and  O_38
REMARK   16  A    between atoms: C_34  and  O_37
REMARK                            x       y       z     vdW  Elec       q    Type
REMARK                         _______ _______ _______ _____ _____    ______ ____
ROOT
ATOM      1  C   UNL     1       4.447  -7.494  -0.351  0.00  0.00    +0.214 A 
ATOM      2  C   UNL     1       3.358  -6.497  -0.623  0.00  0.00    +0.238 A 
ATOM      3  O   UNL     1       3.616  -5.315  -0.832  0.00  0.00    -0.283 OA
ATOM      4  C   UNL     1       1.961  -6.971  -0.600  0.00  0.00    +0.109 A 
ATOM      5  C   UNL     1       1.741  -8.340  -0.605  0.00  0.00    +0.147 A 
ATOM      6  C   UNL     1       0.450  -8.876  -0.570  0.00  0.00    +0.092 A 
ATOM      7  C   UNL     1      -0.640  -8.017  -0.558  0.00  0.00    +0.124 A 
ATOM      8  C   UNL     1      -0.450  -6.641  -0.579  0.00  0.00    +0.091 A 
ATOM      9  O   UNL     1       2.767  -9.227  -0.659  0.00  0.00    -0.451 OA
ATOM     10  C   UNL     1       0.847  -6.119  -0.589  0.00  0.00    +0.135 A 
ATOM     11  C   UNL     1       4.069  -8.803  -0.417  0.00  0.00    +0.181 A 
ENDROOT
BRANCH  11  12
ATOM     12  C   UNL     1       4.917 -10.013  -0.158  0.00  0.00    +0.025 A 
ATOM     13  C   UNL     1       5.878 -10.000   0.853  0.00  0.00    +0.015 A 
ATOM     14  C   UNL     1       6.498 -11.180   1.270  0.00  0.00    +0.050 A 
ATOM     15  C   UNL     1       6.115 -12.400   0.722  0.00  0.00    +0.158 A 
ATOM     16  C   UNL     1       5.188 -12.440  -0.313  0.00  0.00    +0.159 A 
ATOM     17  C   UNL     1       4.604 -11.250  -0.771  0.00  0.00    +0.060 A 
BRANCH  15  18
ATOM     18  O   UNL     1       6.620 -13.561   1.234  0.00  0.00    -0.503 OA
ATOM     19  H   UNL     1       6.906 -13.382   2.144  0.00  0.00    +0.292 HD
ENDBRANCH  15  18
BRANCH  16  20
ATOM     20  O   UNL     1       4.821 -13.658  -0.823  0.00  0.00    -0.503 OA
ATOM     21  H   UNL     1       4.407 -13.538  -1.690  0.00  0.00    +0.292 HD
ENDBRANCH  16  20
ENDBRANCH  11  12
BRANCH   7  22
ATOM     22  O   UNL     1      -1.922  -8.477  -0.526  0.00  0.00    -0.507 OA
ATOM     23  H   UNL     1      -1.919  -9.447  -0.458  0.00  0.00    +0.292 HD
ENDBRANCH   7  22
BRANCH  10  24
ATOM     24  O   UNL     1       1.005  -4.764  -0.562  0.00  0.00    -0.506 OA
ATOM     25  H   UNL     1       0.150  -4.326  -0.697  0.00  0.00    +0.292 HD
ENDBRANCH  10  24
BRANCH   1  26
ATOM     26  O   UNL     1       5.757  -7.084  -0.082  0.00  0.00    -0.453 OA
BRANCH  26  29
ATOM     27  C   UNL     1       7.196  -3.781  -0.983  0.00  0.00    +0.261 C 
ATOM     28  O   UNL     1       6.421  -4.978  -1.005  0.00  0.00    -0.322 OA
ATOM     29  C   UNL     1       6.105  -5.686   0.212  0.00  0.00    +0.340 C 
ATOM     30  C   UNL     1       7.304  -5.728   1.219  0.00  0.00    +0.214 C 
ATOM     31  C   UNL     1       7.955  -4.341   1.295  0.00  0.00    +0.180 C 
ATOM     32  C   UNL     1       8.451  -3.958  -0.099  0.00  0.00    +0.185 C 
BRANCH  27  33
ATOM     33  C   UNL     1       6.757  -2.273  -0.839  0.00  0.00    +0.339 C 
ATOM     34  O   UNL     1       7.511  -1.375  -1.245  0.00  0.00    -0.248 OA
BRANCH  33  35
ATOM     35  O   UNL     1       5.640  -2.033  -0.113  0.00  0.00    -0.463 OA
BRANCH  35  36
ATOM     36  C   UNL     1       5.499  -0.697   0.469  0.00  0.00    +0.232 C 
BRANCH  36  37
ATOM     37  C   UNL     1       5.292   0.482  -0.503  0.00  0.00    +0.041 C 
BRANCH  37  39
ATOM     38  C   UNL     1       3.904   2.020   1.052  0.00  0.00    +0.004 C 
ATOM     39  C   UNL     1       5.140   1.859   0.179  0.00  0.00    -0.000 C 
ENDBRANCH  37  39
ENDBRANCH  36  37
ENDBRANCH  35  36
ENDBRANCH  33  35
ENDBRANCH  27  33
BRANCH  30  40
ATOM     40  O   UNL     1       8.296  -6.712   0.857  0.00  0.00    -0.383 OA
ATOM     41  H   UNL     1       8.213  -6.901  -0.093  0.00  0.00    +0.210 HD
ENDBRANCH  30  40
BRANCH  31  42
ATOM     42  O   UNL     1       9.039  -4.285   2.227  0.00  0.00    -0.386 OA
ATOM     43  H   UNL     1       9.585  -3.525   1.929  0.00  0.00    +0.210 HD
ENDBRANCH  31  42
BRANCH  32  44
ATOM     44  O   UNL     1       9.323  -2.825   0.028  0.00  0.00    -0.386 OA
ATOM     45  H   UNL     1       9.227  -2.253  -0.762  0.00  0.00    +0.210 HD
ENDBRANCH  32  44
ENDBRANCH  26  29
ENDBRANCH   1  26
TORSDOF 15
