REMARK  Name = 
REMARK  10 active torsions:
REMARK  status: ('A' for Active; 'I' for Inactive)
REMARK    1  A    between atoms: C_1  and  O_2
REMARK    2  A    between atoms: O_2  and  C_3
REMARK    3  A    between atoms: C_5  and  O_28
REMARK    4  A    between atoms: C_10  and  C_16
REMARK    5  A    between atoms: C_11  and  O_14
REMARK    6  A    between atoms: O_14  and  C_15
REMARK    7  A    between atoms: C_18  and  O_27
REMARK    8  A    between atoms: C_19  and  O_22
REMARK    9  A    between atoms: O_22  and  S_23
REMARK   10  A    between atoms: S_23  and  O_26
REMARK                            x       y       z     vdW  Elec       q    Type
REMARK                         _______ _______ _______ _____ _____    ______ ____
ROOT
ATOM      1  C   UNL     1       3.252  -0.570  -1.132  0.00  0.00    +0.127 A 
ATOM      2  C   UNL     1       3.982   0.144  -2.087  0.00  0.00    +0.092 A 
ATOM      3  C   UNL     1       4.568  -0.519  -3.173  0.00  0.00    +0.147 A 
ATOM      4  O   UNL     1       5.291   0.252  -4.048  0.00  0.00    -0.451 OA
ATOM      5  C   UNL     1       5.822  -0.346  -5.177  0.00  0.00    +0.181 A 
ATOM      6  C   UNL     1       5.756  -1.659  -5.471  0.00  0.00    +0.211 A 
ATOM      7  C   UNL     1       5.069  -2.549  -4.476  0.00  0.00    +0.238 A 
ATOM      8  O   UNL     1       5.055  -3.767  -4.600  0.00  0.00    -0.283 OA
ATOM      9  C   UNL     1       4.416  -1.893  -3.323  0.00  0.00    +0.109 A 
ATOM     10  C   UNL     1       3.655  -2.599  -2.377  0.00  0.00    +0.135 A 
ATOM     11  C   UNL     1       3.072  -1.941  -1.291  0.00  0.00    +0.092 A 
ENDROOT
BRANCH   5  12
ATOM     12  C   UNL     1       6.471   0.629  -6.077  0.00  0.00    +0.025 A 
ATOM     13  C   UNL     1       5.695   1.342  -7.001  0.00  0.00    +0.015 A 
ATOM     14  C   UNL     1       6.267   2.340  -7.801  0.00  0.00    +0.053 A 
ATOM     15  C   UNL     1       7.626   2.630  -7.693  0.00  0.00    +0.200 A 
ATOM     16  C   UNL     1       8.409   1.890  -6.799  0.00  0.00    +0.162 A 
ATOM     17  C   UNL     1       7.844   0.894  -5.996  0.00  0.00    +0.061 A 
BRANCH  16  18
ATOM     18  O   UNL     1       9.749   2.167  -6.722  0.00  0.00    -0.503 OA
ATOM     19  H   UNL     1      10.165   1.552  -6.097  0.00  0.00    +0.292 HD
ENDBRANCH  16  18
BRANCH  15  20
ATOM     20  O   UNL     1       8.264   3.644  -8.363  0.00  0.00    -0.321 OA
BRANCH  20  21
ATOM     21  S   UNL     1       7.712   4.254  -9.762  0.00  0.00    +0.251 S 
ATOM     22  O   UNL     1       6.496   4.998  -9.522  0.00  0.00    -0.108 OA
ATOM     23  O   UNL     1       7.793   3.229 -10.781  0.00  0.00    -0.108 OA
BRANCH  21  24
ATOM     24  O   UNL     1       8.854   5.322 -10.151  0.00  0.00    -0.222 OA
ATOM     25  H   UNL     1       9.608   4.829 -10.528  0.00  0.00    +0.248 HD
ENDBRANCH  21  24
ENDBRANCH  20  21
ENDBRANCH  15  20
ENDBRANCH   5  12
BRANCH   1  27
ATOM     26  C   UNL     1       2.522  -0.553   1.116  0.00  0.00    +0.277 C 
ATOM     27  O   UNL     1       2.726   0.163  -0.102  0.00  0.00    -0.495 OA
ENDBRANCH   1  27
BRANCH   6  28
ATOM     28  O   UNL     1       6.285  -2.129  -6.669  0.00  0.00    -0.488 OA
ATOM     29  C   UNL     1       6.634  -3.507  -6.730  0.00  0.00    +0.277 C 
ENDBRANCH   6  28
BRANCH  10  30
ATOM     30  O   UNL     1       3.455  -3.946  -2.495  0.00  0.00    -0.506 OA
ATOM     31  H   UNL     1       2.929  -4.285  -1.754  0.00  0.00    +0.292 HD
ENDBRANCH  10  30
TORSDOF 8
