REMARK  Name = 
REMARK  18 active torsions:
REMARK  status: ('A' for Active; 'I' for Inactive)
REMARK    1  A    between atoms: C_3  and  O_49
REMARK    2  A    between atoms: C_4  and  O_48
REMARK    3  A    between atoms: C_6  and  C_7
REMARK    4  A    between atoms: C_8  and  O_34
REMARK    5  A    between atoms: C_15  and  O_33
REMARK    6  A    between atoms: C_17  and  O_18
REMARK    7  A    between atoms: O_18  and  C_19
REMARK    8  A    between atoms: C_21  and  O_32
REMARK    9  A    between atoms: C_22  and  O_31
REMARK   10  A    between atoms: C_24  and  O_30
REMARK   11  A    between atoms: C_26  and  C_28
REMARK   12  A    between atoms: C_28  and  O_29
REMARK   13  A    between atoms: O_34  and  C_35
REMARK   14  A    between atoms: C_37  and  O_47
REMARK   15  A    between atoms: C_38  and  O_46
REMARK   16  A    between atoms: C_39  and  O_45
REMARK   17  A    between atoms: C_41  and  C_43
REMARK   18  A    between atoms: C_43  and  O_44
REMARK                            x       y       z     vdW  Elec       q    Type
REMARK                         _______ _______ _______ _____ _____    ______ ____
ROOT
ATOM      1  C   UNL     1      -0.849  -2.842   0.178  0.00  0.00    +0.181 A 
ATOM      2  O   UNL     1      -0.231  -4.080   0.168  0.00  0.00    -0.451 OA
ATOM      3  C   UNL     1      -0.972  -5.199  -0.075  0.00  0.00    +0.147 A 
ATOM      4  C   UNL     1      -0.353  -6.410   0.237  0.00  0.00    +0.092 A 
ATOM      5  C   UNL     1      -1.020  -7.597  -0.014  0.00  0.00    +0.124 A 
ATOM      6  C   UNL     1      -2.310  -7.592  -0.537  0.00  0.00    +0.092 A 
ATOM      7  C   UNL     1      -2.922  -6.389  -0.884  0.00  0.00    +0.142 A 
ATOM      8  C   UNL     1      -2.243  -5.160  -0.642  0.00  0.00    +0.110 A 
ATOM      9  C   UNL     1      -2.742  -3.791  -0.996  0.00  0.00    +0.238 A 
ATOM     10  O   UNL     1      -3.640  -3.629  -1.813  0.00  0.00    -0.283 OA
ATOM     11  C   UNL     1      -2.067  -2.595  -0.357  0.00  0.00    +0.214 A 
ENDROOT
BRANCH   1  13
ATOM     12  C   UNL     1       1.328  -1.739   0.248  0.00  0.00    +0.015 A 
ATOM     13  C   UNL     1       0.060  -1.856   0.819  0.00  0.00    +0.025 A 
ATOM     14  C   UNL     1      -0.198  -1.285   2.068  0.00  0.00    +0.060 A 
ATOM     15  C   UNL     1       0.863  -0.745   2.775  0.00  0.00    +0.159 A 
ATOM     16  C   UNL     1       2.164  -0.745   2.248  0.00  0.00    +0.158 A 
ATOM     17  C   UNL     1       2.386  -1.184   0.957  0.00  0.00    +0.050 A 
BRANCH  16  18
ATOM     18  O   UNL     1       3.187  -0.372   3.077  0.00  0.00    -0.503 OA
ATOM     19  H   UNL     1       3.987  -0.836   2.766  0.00  0.00    +0.292 HD
ENDBRANCH  16  18
BRANCH  15  20
ATOM     20  O   UNL     1       0.660  -0.252   4.034  0.00  0.00    -0.503 OA
ATOM     21  H   UNL     1       1.550   0.068   4.312  0.00  0.00    +0.292 HD
ENDBRANCH  15  20
ENDBRANCH   1  13
BRANCH   5  22
ATOM     22  O   UNL     1      -0.438  -8.804   0.227  0.00  0.00    -0.507 OA
ATOM     23  H   UNL     1       0.500  -8.674   0.448  0.00  0.00    +0.292 HD
ENDBRANCH   5  22
BRANCH  11  24
ATOM     24  O   UNL     1      -2.689  -1.380  -0.161  0.00  0.00    -0.453 OA
BRANCH  24  25
ATOM     25  C   UNL     1      -3.054  -0.512  -1.247  0.00  0.00    +0.340 C 
ATOM     26  O   UNL     1      -2.696   0.852  -0.919  0.00  0.00    -0.331 OA
ATOM     27  C   UNL     1      -3.351   1.411   0.257  0.00  0.00    +0.179 C 
ATOM     28  C   UNL     1      -4.828   0.992   0.508  0.00  0.00    +0.177 C 
ATOM     29  C   UNL     1      -5.210  -0.361  -0.090  0.00  0.00    +0.180 C 
ATOM     30  C   UNL     1      -4.583  -0.495  -1.478  0.00  0.00    +0.214 C 
BRANCH  30  31
ATOM     31  O   UNL     1      -5.144  -1.616  -2.146  0.00  0.00    -0.383 OA
ATOM     32  H   UNL     1      -4.432  -2.238  -2.406  0.00  0.00    +0.210 HD
ENDBRANCH  30  31
BRANCH  29  33
ATOM     33  O   UNL     1      -6.640  -0.472  -0.156  0.00  0.00    -0.386 OA
ATOM     34  H   UNL     1      -6.792  -1.284  -0.686  0.00  0.00    +0.210 HD
ENDBRANCH  29  33
BRANCH  28  35
ATOM     35  O   UNL     1      -5.749   1.962  -0.023  0.00  0.00    -0.386 OA
ATOM     36  H   UNL     1      -6.616   1.499  -0.023  0.00  0.00    +0.210 HD
ENDBRANCH  28  35
BRANCH  27  37
ATOM     37  C   UNL     1      -3.248   2.949   0.132  0.00  0.00    +0.190 C 
BRANCH  37  38
ATOM     38  O   UNL     1      -1.883   3.365   0.067  0.00  0.00    -0.392 OA
ATOM     39  H   UNL     1      -1.412   2.659  -0.412  0.00  0.00    +0.210 HD
ENDBRANCH  37  38
ENDBRANCH  27  37
ENDBRANCH  24  25
ENDBRANCH  11  24
BRANCH   7  40
ATOM     40  O   UNL     1      -4.158  -6.327  -1.425  0.00  0.00    -0.460 OA
BRANCH  40  41
ATOM     41  C   UNL     1      -4.983  -7.352  -2.039  0.00  0.00    +0.339 C 
ATOM     42  O   UNL     1      -4.595  -8.734  -2.109  0.00  0.00    -0.331 OA
ATOM     43  C   UNL     1      -3.939  -9.252  -3.290  0.00  0.00    +0.179 C 
ATOM     44  C   UNL     1      -4.284  -8.575  -4.635  0.00  0.00    +0.177 C 
ATOM     45  C   UNL     1      -4.370  -7.064  -4.469  0.00  0.00    +0.180 C 
ATOM     46  C   UNL     1      -5.415  -6.758  -3.392  0.00  0.00    +0.214 C 
BRANCH  46  47
ATOM     47  O   UNL     1      -5.646  -5.346  -3.312  0.00  0.00    -0.383 OA
ATOM     48  H   UNL     1      -4.863  -4.948  -2.871  0.00  0.00    +0.210 HD
ENDBRANCH  46  47
BRANCH  45  49
ATOM     49  O   UNL     1      -3.078  -6.512  -4.194  0.00  0.00    -0.386 OA
ATOM     50  H   UNL     1      -2.725  -6.902  -3.376  0.00  0.00    +0.210 HD
ENDBRANCH  45  49
BRANCH  44  51
ATOM     51  O   UNL     1      -5.520  -9.067  -5.161  0.00  0.00    -0.386 OA
ATOM     52  H   UNL     1      -5.632  -8.692  -6.056  0.00  0.00    +0.210 HD
ENDBRANCH  44  51
BRANCH  43  53
ATOM     53  C   UNL     1      -4.225 -10.772  -3.398  0.00  0.00    +0.190 C 
BRANCH  53  54
ATOM     54  O   UNL     1      -3.771 -11.473  -2.242  0.00  0.00    -0.392 OA
ATOM     55  H   UNL     1      -3.912 -10.880  -1.483  0.00  0.00    +0.210 HD
ENDBRANCH  53  54
ENDBRANCH  43  53
ENDBRANCH  40  41
ENDBRANCH   7  40
TORSDOF 18
