REMARK  Name = 
REMARK  17 active torsions:
REMARK  status: ('A' for Active; 'I' for Inactive)
REMARK    1  A    between atoms: C_1  and  C_2
REMARK    2  A    between atoms: C_3  and  O_49
REMARK    3  A    between atoms: C_5  and  O_48
REMARK    4  A    between atoms: C_7  and  O_47
REMARK    5  A    between atoms: C_8  and  O_11
REMARK    6  A    between atoms: O_11  and  C_12
REMARK    7  A    between atoms: C_12  and  C_13
REMARK    8  A    between atoms: C_14  and  O_46
REMARK    9  A    between atoms: C_16  and  O_45
REMARK   10  A    between atoms: C_18  and  O_44
REMARK   11  A    between atoms: C_19  and  O_22
REMARK   12  A    between atoms: O_22  and  C_23
REMARK   13  A    between atoms: C_25  and  O_43
REMARK   14  A    between atoms: C_30  and  C_35
REMARK   15  A    between atoms: C_31  and  O_34
REMARK   16  A    between atoms: C_37  and  O_42
REMARK   17  A    between atoms: C_38  and  O_41
REMARK                            x       y       z     vdW  Elec       q    Type
REMARK                         _______ _______ _______ _____ _____    ______ ____
ROOT
ATOM      1  C   UNL     1       3.118   3.908  -3.967  0.00  0.00    +0.179 C 
ATOM      2  O   UNL     1       3.658   5.063  -3.299  0.00  0.00    -0.331 OA
ATOM      3  C   UNL     1       2.684   5.894  -2.632  0.00  0.00    +0.339 C 
ATOM      4  C   UNL     1       1.696   6.442  -3.692  0.00  0.00    +0.214 C 
ATOM      5  C   UNL     1       1.034   5.251  -4.412  0.00  0.00    +0.180 C 
ATOM      6  C   UNL     1       2.100   4.343  -5.038  0.00  0.00    +0.177 C 
ENDROOT
BRANCH   6   7
ATOM      7  O   UNL     1       1.445   3.251  -5.688  0.00  0.00    -0.386 OA
ATOM      8  H   UNL     1       2.137   2.650  -6.021  0.00  0.00    +0.210 HD
ENDBRANCH   6   7
BRANCH   5   9
ATOM      9  O   UNL     1       0.114   5.674  -5.423  0.00  0.00    -0.386 OA
ATOM     10  H   UNL     1      -0.017   4.898  -6.009  0.00  0.00    +0.210 HD
ENDBRANCH   5   9
BRANCH   4  11
ATOM     11  O   UNL     1       2.393   7.263  -4.650  0.00  0.00    -0.383 OA
ATOM     12  H   UNL     1       3.337   7.020  -4.618  0.00  0.00    +0.210 HD
ENDBRANCH   4  11
BRANCH   3  13
ATOM     13  O   UNL     1       3.321   6.998  -1.952  0.00  0.00    -0.461 OA
BRANCH  13  14
ATOM     14  C   UNL     1       4.206   6.704  -0.942  0.00  0.00    +0.131 A 
ATOM     15  C   UNL     1       4.828   7.796  -0.314  0.00  0.00    +0.093 A 
ATOM     16  C   UNL     1       5.781   7.597   0.701  0.00  0.00    +0.147 A 
ATOM     17  O   UNL     1       6.362   8.714   1.258  0.00  0.00    -0.451 OA
ATOM     18  C   UNL     1       7.261   8.557   2.314  0.00  0.00    +0.181 A 
ATOM     19  C   UNL     1       7.621   7.355   2.816  0.00  0.00    +0.208 A 
ATOM     20  C   UNL     1       7.120   6.120   2.152  0.00  0.00    +0.238 A 
ATOM     21  O   UNL     1       7.541   5.021   2.495  0.00  0.00    -0.283 OA
ATOM     22  C   UNL     1       6.110   6.300   1.097  0.00  0.00    +0.109 A 
ATOM     23  C   UNL     1       5.482   5.212   0.478  0.00  0.00    +0.135 A 
ATOM     24  C   UNL     1       4.533   5.417  -0.522  0.00  0.00    +0.092 A 
BRANCH  18  25
ATOM     25  C   UNL     1       7.797   9.849   2.845  0.00  0.00    +0.025 A 
ATOM     26  C   UNL     1       9.134   9.965   3.291  0.00  0.00    +0.015 A 
ATOM     27  C   UNL     1       9.622  11.152   3.848  0.00  0.00    +0.050 A 
ATOM     28  C   UNL     1       8.795  12.259   3.903  0.00  0.00    +0.158 A 
ATOM     29  C   UNL     1       7.496  12.194   3.405  0.00  0.00    +0.159 A 
ATOM     30  C   UNL     1       6.987  10.996   2.893  0.00  0.00    +0.060 A 
BRANCH  29  31
ATOM     31  O   UNL     1       6.748  13.337   3.462  0.00  0.00    -0.503 OA
ATOM     32  H   UNL     1       5.915  13.182   2.983  0.00  0.00    +0.292 HD
ENDBRANCH  29  31
BRANCH  28  33
ATOM     33  O   UNL     1       9.274  13.421   4.434  0.00  0.00    -0.503 OA
ATOM     34  H   UNL     1       8.534  14.056   4.353  0.00  0.00    +0.292 HD
ENDBRANCH  28  33
ENDBRANCH  18  25
BRANCH  23  35
ATOM     35  O   UNL     1       5.766   3.930   0.841  0.00  0.00    -0.506 OA
ATOM     36  H   UNL     1       5.478   3.302   0.160  0.00  0.00    +0.292 HD
ENDBRANCH  23  35
BRANCH  19  37
ATOM     37  O   UNL     1       8.432   7.161   3.922  0.00  0.00    -0.501 OA
ATOM     38  H   UNL     1       8.372   7.938   4.497  0.00  0.00    +0.292 HD
ENDBRANCH  19  37
ENDBRANCH  13  14
ENDBRANCH   3  13
BRANCH   1  39
ATOM     39  C   UNL     1       2.601   2.859  -2.960  0.00  0.00    +0.197 C 
BRANCH  39  40
ATOM     40  O   UNL     1       2.313   1.614  -3.596  0.00  0.00    -0.346 OA
BRANCH  40  44
ATOM     41  C   UNL     1       1.214  -0.050   0.256  0.00  0.00    +0.041 C 
ATOM     42  C   UNL     1       2.267  -0.616  -0.697  0.00  0.00    +0.149 C 
ATOM     43  O   UNL     1       2.669   0.387  -1.644  0.00  0.00    -0.343 OA
ATOM     44  C   UNL     1       1.722   0.681  -2.672  0.00  0.00    +0.282 C 
ATOM     45  C   UNL     1       1.364  -0.592  -3.464  0.00  0.00    +0.201 C 
ATOM     46  C   UNL     1       0.792  -1.631  -2.487  0.00  0.00    +0.179 C 
ATOM     47  C   UNL     1       1.810  -1.923  -1.372  0.00  0.00    +0.174 C 
BRANCH  47  48
ATOM     48  O   UNL     1       2.943  -2.618  -1.910  0.00  0.00    -0.387 OA
ATOM     49  H   UNL     1       3.173  -2.177  -2.760  0.00  0.00    +0.210 HD
ENDBRANCH  47  48
BRANCH  46  50
ATOM     50  O   UNL     1       0.400  -2.822  -3.174  0.00  0.00    -0.386 OA
ATOM     51  H   UNL     1       0.832  -3.578  -2.734  0.00  0.00    +0.210 HD
ENDBRANCH  46  50
BRANCH  45  52
ATOM     52  O   UNL     1       2.568  -1.101  -4.087  0.00  0.00    -0.384 OA
ATOM     53  H   UNL     1       3.042  -0.305  -4.404  0.00  0.00    +0.210 HD
ENDBRANCH  45  52
ENDBRANCH  40  44
ENDBRANCH  39  40
ENDBRANCH   1  39
TORSDOF 16
