REMARK  Name = 
REMARK  23 active torsions:
REMARK  status: ('A' for Active; 'I' for Inactive)
REMARK    1  A    between atoms: C_1  and  C_2
REMARK    2  A    between atoms: C_3  and  O_63
REMARK    3  A    between atoms: C_5  and  O_62
REMARK    4  A    between atoms: C_7  and  O_61
REMARK    5  A    between atoms: C_8  and  O_11
REMARK    6  A    between atoms: O_11  and  C_12
REMARK    7  A    between atoms: C_12  and  C_13
REMARK    8  A    between atoms: C_14  and  O_60
REMARK    9  A    between atoms: C_16  and  O_59
REMARK   10  A    between atoms: C_17  and  O_58
REMARK   11  A    between atoms: C_18  and  O_21
REMARK   12  A    between atoms: O_21  and  C_22
REMARK   13  A    between atoms: C_23  and  C_50
REMARK   14  A    between atoms: C_27  and  O_34
REMARK   15  A    between atoms: C_29  and  O_33
REMARK   16  A    between atoms: O_34  and  C_35
REMARK   17  A    between atoms: C_37  and  O_49
REMARK   18  A    between atoms: C_38  and  O_48
REMARK   19  A    between atoms: C_40  and  O_47
REMARK   20  A    between atoms: C_42  and  C_44
REMARK   21  A    between atoms: C_44  and  O_46
REMARK   22  A    between atoms: C_52  and  O_57
REMARK   23  A    between atoms: C_53  and  O_56
REMARK                            x       y       z     vdW  Elec       q    Type
REMARK                         _______ _______ _______ _____ _____    ______ ____
ROOT
ATOM      1  C   UNL     1       4.304   7.049  -0.953  0.00  0.00    +0.214 A 
ATOM      2  C   UNL     1       4.773   8.336  -0.332  0.00  0.00    +0.238 A 
ATOM      3  O   UNL     1       4.486   9.417  -0.836  0.00  0.00    -0.283 OA
ATOM      4  C   UNL     1       5.554   8.191   0.934  0.00  0.00    +0.109 A 
ATOM      5  C   UNL     1       5.384   7.026   1.656  0.00  0.00    +0.147 A 
ATOM      6  C   UNL     1       6.076   6.747   2.845  0.00  0.00    +0.093 A 
ATOM      7  C   UNL     1       7.017   7.642   3.341  0.00  0.00    +0.131 A 
ATOM      8  C   UNL     1       7.187   8.849   2.639  0.00  0.00    +0.092 A 
ATOM      9  O   UNL     1       4.518   6.063   1.245  0.00  0.00    -0.451 OA
ATOM     10  C   UNL     1       6.444   9.129   1.467  0.00  0.00    +0.135 A 
ATOM     11  C   UNL     1       4.226   5.987  -0.107  0.00  0.00    +0.181 A 
ENDROOT
BRANCH  11  12
ATOM     12  C   UNL     1       3.864   4.589  -0.454  0.00  0.00    +0.025 A 
ATOM     13  C   UNL     1       4.157   4.065  -1.718  0.00  0.00    +0.015 A 
ATOM     14  C   UNL     1       3.886   2.732  -2.028  0.00  0.00    +0.050 A 
ATOM     15  C   UNL     1       3.476   1.864  -1.023  0.00  0.00    +0.158 A 
ATOM     16  C   UNL     1       3.296   2.337   0.270  0.00  0.00    +0.159 A 
ATOM     17  C   UNL     1       3.416   3.695   0.543  0.00  0.00    +0.060 A 
BRANCH  16  18
ATOM     18  O   UNL     1       3.184   1.476   1.326  0.00  0.00    -0.503 OA
ATOM     19  H   UNL     1       2.240   1.317   1.473  0.00  0.00    +0.292 HD
ENDBRANCH  16  18
BRANCH  15  20
ATOM     20  O   UNL     1       3.321   0.536  -1.287  0.00  0.00    -0.503 OA
ATOM     21  H   UNL     1       3.934   0.314  -2.008  0.00  0.00    +0.292 HD
ENDBRANCH  15  20
ENDBRANCH  11  12
BRANCH  10  22
ATOM     22  O   UNL     1       6.659  10.316   0.829  0.00  0.00    -0.506 OA
ATOM     23  H   UNL     1       6.712  11.018   1.500  0.00  0.00    +0.292 HD
ENDBRANCH  10  22
BRANCH   7  24
ATOM     24  O   UNL     1       7.811   7.433   4.453  0.00  0.00    -0.461 OA
BRANCH  24  25
ATOM     25  C   UNL     1       7.426   6.348   5.331  0.00  0.00    +0.340 C 
ATOM     26  O   UNL     1       6.193   6.653   6.006  0.00  0.00    -0.322 OA
ATOM     27  C   UNL     1       6.374   7.739   6.936  0.00  0.00    +0.261 C 
ATOM     28  C   UNL     1       7.321   7.353   8.081  0.00  0.00    +0.185 C 
ATOM     29  C   UNL     1       8.695   6.981   7.493  0.00  0.00    +0.180 C 
ATOM     30  C   UNL     1       8.519   5.947   6.363  0.00  0.00    +0.214 C 
BRANCH  29  31
ATOM     31  O   UNL     1       9.430   8.113   7.017  0.00  0.00    -0.386 OA
ATOM     32  H   UNL     1       8.894   8.922   7.066  0.00  0.00    +0.210 HD
ENDBRANCH  29  31
BRANCH  30  33
ATOM     33  O   UNL     1       9.761   5.617   5.736  0.00  0.00    -0.383 OA
ATOM     34  H   UNL     1      10.016   6.381   5.185  0.00  0.00    +0.210 HD
ENDBRANCH  30  33
BRANCH  28  35
ATOM     35  O   UNL     1       6.788   6.217   8.774  0.00  0.00    -0.386 OA
ATOM     36  H   UNL     1       7.205   6.175   9.656  0.00  0.00    +0.210 HD
ENDBRANCH  28  35
BRANCH  27  37
ATOM     37  C   UNL     1       5.036   8.174   7.502  0.00  0.00    +0.337 C 
ATOM     38  O   UNL     1       4.898   9.117   8.275  0.00  0.00    -0.248 OA
BRANCH  37  39
ATOM     39  O   UNL     1       3.996   7.457   7.007  0.00  0.00    -0.479 OA
ATOM     40  H   UNL     1       4.343   6.765   6.431  0.00  0.00    +0.295 HD
ENDBRANCH  37  39
ENDBRANCH  27  37
ENDBRANCH  24  25
ENDBRANCH   7  24
BRANCH   1  41
ATOM     41  O   UNL     1       3.854   6.979  -2.263  0.00  0.00    -0.453 OA
BRANCH  41  44
ATOM     42  C   UNL     1       6.126   9.344  -4.156  0.00  0.00    +0.179 C 
ATOM     43  O   UNL     1       5.666   8.342  -3.213  0.00  0.00    -0.331 OA
ATOM     44  C   UNL     1       4.369   7.751  -3.384  0.00  0.00    +0.340 C 
ATOM     45  C   UNL     1       3.244   8.680  -3.915  0.00  0.00    +0.214 C 
ATOM     46  C   UNL     1       3.758   9.408  -5.153  0.00  0.00    +0.180 C 
ATOM     47  C   UNL     1       4.988  10.238  -4.753  0.00  0.00    +0.177 C 
BRANCH  47  48
ATOM     48  O   UNL     1       5.444  10.982  -5.888  0.00  0.00    -0.386 OA
ATOM     49  H   UNL     1       5.908  11.772  -5.562  0.00  0.00    +0.210 HD
ENDBRANCH  47  48
BRANCH  46  50
ATOM     50  O   UNL     1       2.718  10.243  -5.692  0.00  0.00    -0.386 OA
ATOM     51  H   UNL     1       2.355  10.754  -4.943  0.00  0.00    +0.210 HD
ENDBRANCH  46  50
BRANCH  45  52
ATOM     52  O   UNL     1       2.786   9.678  -2.982  0.00  0.00    -0.383 OA
ATOM     53  H   UNL     1       3.342   9.605  -2.162  0.00  0.00    +0.210 HD
ENDBRANCH  45  52
BRANCH  42  54
ATOM     54  C   UNL     1       7.107   8.866  -5.296  0.00  0.00    +0.197 C 
BRANCH  54  55
ATOM     55  O   UNL     1       8.223   8.017  -4.992  0.00  0.00    -0.346 OA
BRANCH  55  59
ATOM     56  C   UNL     1      10.900  11.065  -3.295  0.00  0.00    +0.041 C 
ATOM     57  C   UNL     1      11.107  10.373  -4.642  0.00  0.00    +0.149 C 
ATOM     58  O   UNL     1       9.857   9.809  -5.122  0.00  0.00    -0.343 OA
ATOM     59  C   UNL     1       9.433   8.604  -4.464  0.00  0.00    +0.282 C 
ATOM     60  C   UNL     1      10.567   7.545  -4.641  0.00  0.00    +0.201 C 
ATOM     61  C   UNL     1      11.831   8.052  -3.930  0.00  0.00    +0.179 C 
ATOM     62  C   UNL     1      12.287   9.375  -4.555  0.00  0.00    +0.174 C 
BRANCH  62  63
ATOM     63  O   UNL     1      12.860   9.153  -5.851  0.00  0.00    -0.387 OA
ATOM     64  H   UNL     1      12.291   8.486  -6.297  0.00  0.00    +0.210 HD
ENDBRANCH  62  63
BRANCH  61  65
ATOM     65  O   UNL     1      12.875   7.068  -3.958  0.00  0.00    -0.386 OA
ATOM     66  H   UNL     1      13.715   7.527  -4.149  0.00  0.00    +0.210 HD
ENDBRANCH  61  65
BRANCH  60  67
ATOM     67  O   UNL     1      10.871   7.363  -6.051  0.00  0.00    -0.384 OA
ATOM     68  H   UNL     1      10.008   7.315  -6.505  0.00  0.00    +0.210 HD
ENDBRANCH  60  67
ENDBRANCH  55  59
ENDBRANCH  54  55
ENDBRANCH  42  54
ENDBRANCH  41  44
ENDBRANCH   1  41
TORSDOF 22
