REMARK  Name = 
REMARK  13 active torsions:
REMARK  status: ('A' for Active; 'I' for Inactive)
REMARK    1  A    between atoms: C_1  and  C_2
REMARK    2  A    between atoms: C_2  and  C_3
REMARK    3  A    between atoms: C_3  and  C_4
REMARK    4  A    between atoms: C_3  and  C_5
REMARK    5  A    between atoms: C_5  and  O_7
REMARK    6  A    between atoms: O_7  and  C_8
REMARK    7  A    between atoms: C_9  and  O_29
REMARK    8  A    between atoms: C_11  and  C_14
REMARK    9  A    between atoms: C_15  and  O_27
REMARK   10  A    between atoms: C_19  and  O_26
REMARK   11  A    between atoms: C_21  and  O_25
REMARK   12  A    between atoms: O_27  and  C_28
REMARK   13  A    between atoms: O_29  and  C_30
REMARK                            x       y       z     vdW  Elec       q    Type
REMARK                         _______ _______ _______ _____ _____    ______ ____
ROOT
ATOM      1  C   UNL     1      10.949   3.128  -0.324  0.00  0.00    +0.181 A 
ATOM      2  O   UNL     1      11.525   1.864  -0.337  0.00  0.00    -0.451 OA
ATOM      3  C   UNL     1      12.883   1.743  -0.413  0.00  0.00    +0.147 A 
ATOM      4  C   UNL     1      13.729   2.840  -0.461  0.00  0.00    +0.109 A 
ATOM      5  C   UNL     1      15.114   2.649  -0.534  0.00  0.00    +0.135 A 
ATOM      6  C   UNL     1      15.649   1.363  -0.557  0.00  0.00    +0.091 A 
ATOM      7  C   UNL     1      14.788   0.272  -0.509  0.00  0.00    +0.124 A 
ATOM      8  C   UNL     1      13.132   4.176  -0.435  0.00  0.00    +0.238 A 
ATOM      9  O   UNL     1      13.874   5.158  -0.472  0.00  0.00    -0.283 OA
ATOM     10  C   UNL     1      13.409   0.451  -0.437  0.00  0.00    +0.092 A 
ATOM     11  C   UNL     1      11.641   4.294  -0.370  0.00  0.00    +0.211 A 
ENDROOT
BRANCH   1  15
ATOM     12  C   UNL     1       6.713   2.714  -0.230  0.00  0.00    +0.173 A 
ATOM     13  C   UNL     1       7.393   2.732  -1.455  0.00  0.00    +0.051 A 
ATOM     14  C   UNL     1       8.777   2.855  -1.478  0.00  0.00    +0.015 A 
ATOM     15  C   UNL     1       9.487   2.995  -0.283  0.00  0.00    +0.025 A 
ATOM     16  C   UNL     1       8.800   2.967   0.946  0.00  0.00    +0.061 A 
ATOM     17  C   UNL     1       7.404   2.847   0.984  0.00  0.00    +0.163 A 
BRANCH  17  18
ATOM     18  O   UNL     1       6.652   2.867   2.130  0.00  0.00    -0.491 OA
ATOM     19  C   UNL     1       7.351   3.029   3.361  0.00  0.00    +0.277 C 
ENDBRANCH  17  18
BRANCH  12  20
ATOM     20  O   UNL     1       5.301   2.721  -0.232  0.00  0.00    -0.422 OA
BRANCH  20  21
ATOM     21  C   UNL     1       4.666   1.838  -1.107  0.00  0.00    +0.315 C 
ATOM     22  O   UNL     1       5.148   0.811  -1.569  0.00  0.00    -0.250 OA
BRANCH  21  23
ATOM     23  C   UNL     1       3.311   2.416  -1.500  0.00  0.00    +0.095 C 
ATOM     24  C   UNL     1       2.376   1.298  -1.961  0.00  0.00    +0.019 C 
BRANCH  23  26
ATOM     25  C   UNL     1       2.284   4.209  -3.025  0.00  0.00    +0.004 C 
ATOM     26  C   UNL     1       3.544   3.471  -2.597  0.00  0.00    +0.011 C 
ENDBRANCH  23  26
ENDBRANCH  21  23
ENDBRANCH  20  21
ENDBRANCH  12  20
ENDBRANCH   1  15
BRANCH   5  27
ATOM     27  O   UNL     1      16.008   3.685  -0.587  0.00  0.00    -0.506 OA
ATOM     28  H   UNL     1      15.496   4.528  -0.565  0.00  0.00    +0.292 HD
ENDBRANCH   5  27
BRANCH   7  29
ATOM     29  O   UNL     1      15.261  -1.006  -0.527  0.00  0.00    -0.507 OA
ATOM     30  H   UNL     1      16.231  -0.981  -0.582  0.00  0.00    +0.292 HD
ENDBRANCH   7  29
BRANCH  11  31
ATOM     31  O   UNL     1      11.206   5.596  -0.374  0.00  0.00    -0.488 OA
ATOM     32  C   UNL     1       9.841   5.964  -0.333  0.00  0.00    +0.277 C 
ENDBRANCH  11  31
TORSDOF 9
