REMARK  Name = 
REMARK  27 active torsions:
REMARK  status: ('A' for Active; 'I' for Inactive)
REMARK    1  A    between atoms: C_1  and  C_2
REMARK    2  A    between atoms: C_3  and  O_74
REMARK    3  A    between atoms: C_5  and  O_73
REMARK    4  A    between atoms: C_6  and  O_33
REMARK    5  A    between atoms: C_8  and  O_11
REMARK    6  A    between atoms: O_11  and  C_12
REMARK    7  A    between atoms: C_13  and  C_25
REMARK    8  A    between atoms: C_17  and  O_24
REMARK    9  A    between atoms: C_19  and  O_23
REMARK   10  A    between atoms: C_27  and  O_32
REMARK   11  A    between atoms: C_28  and  O_31
REMARK   12  A    between atoms: O_33  and  C_34
REMARK   13  A    between atoms: C_36  and  O_72
REMARK   14  A    between atoms: C_38  and  O_71
REMARK   15  A    between atoms: C_39  and  O_70
REMARK   16  A    between atoms: C_41  and  C_43
REMARK   17  A    between atoms: C_43  and  O_44
REMARK   18  A    between atoms: O_44  and  C_45
REMARK   19  A    between atoms: C_45  and  C_47
REMARK   20  A    between atoms: C_48  and  C_49
REMARK   21  A    between atoms: C_52  and  O_55
REMARK   22  A    between atoms: O_55  and  C_56
REMARK   23  A    between atoms: C_58  and  O_69
REMARK   24  A    between atoms: C_59  and  O_68
REMARK   25  A    between atoms: C_61  and  O_67
REMARK   26  A    between atoms: C_63  and  C_65
REMARK   27  A    between atoms: C_65  and  O_66
REMARK                            x       y       z     vdW  Elec       q    Type
REMARK                         _______ _______ _______ _____ _____    ______ ____
ROOT
ATOM      1  C   UNL     1       4.811  -0.540  -3.795  0.00  0.00    +0.282 C 
ATOM      2  O   UNL     1       5.607   0.640  -3.411  0.00  0.00    -0.339 OA
ATOM      3  C   UNL     1       4.812   1.764  -2.964  0.00  0.00    +0.190 C 
ATOM      4  C   UNL     1       3.803   2.212  -4.060  0.00  0.00    +0.178 C 
ATOM      5  C   UNL     1       3.039   0.990  -4.668  0.00  0.00    +0.179 C 
ATOM      6  C   UNL     1       3.979  -0.170  -5.050  0.00  0.00    +0.201 C 
ENDROOT
BRANCH   6   7
ATOM      7  O   UNL     1       4.788   0.204  -6.178  0.00  0.00    -0.384 OA
ATOM      8  H   UNL     1       5.126   1.107  -6.008  0.00  0.00    +0.210 HD
ENDBRANCH   6   7
BRANCH   5   9
ATOM      9  O   UNL     1       2.268   1.418  -5.804  0.00  0.00    -0.386 OA
ATOM     10  H   UNL     1       2.892   1.487  -6.551  0.00  0.00    +0.210 HD
ENDBRANCH   5   9
BRANCH   4  11
ATOM     11  O   UNL     1       4.450   2.909  -5.131  0.00  0.00    -0.386 OA
ATOM     12  H   UNL     1       3.733   3.413  -5.569  0.00  0.00    +0.210 HD
ENDBRANCH   4  11
BRANCH   3  13
ATOM     13  C   UNL     1       5.512   2.840  -1.968  0.00  0.00    +0.266 C 
BRANCH  13  14
ATOM     14  O   UNL     1       6.347   2.315  -0.787  0.00  0.00    -0.459 OA
BRANCH  14  15
ATOM     15  C   UNL     1       6.050   2.464   0.564  0.00  0.00    +0.332 C 
ATOM     16  O   UNL     1       5.078   3.070   0.999  0.00  0.00    -0.246 OA
BRANCH  15  17
ATOM     17  C   UNL     1       7.006   1.726   1.507  0.00  0.00    +0.092 C 
ATOM     18  C   UNL     1       6.696   1.211   2.735  0.00  0.00    +0.015 C 
BRANCH  18  19
ATOM     19  C   UNL     1       7.619   0.587   3.746  0.00  0.00    -0.025 A 
ATOM     20  C   UNL     1       7.360  -0.605   4.452  0.00  0.00    +0.011 A 
ATOM     21  C   UNL     1       8.227  -1.099   5.461  0.00  0.00    +0.046 A 
ATOM     22  C   UNL     1       9.390  -0.397   5.792  0.00  0.00    +0.124 A 
ATOM     23  C   UNL     1       9.616   0.816   5.131  0.00  0.00    +0.046 A 
ATOM     24  C   UNL     1       8.748   1.310   4.141  0.00  0.00    +0.011 A 
BRANCH  22  25
ATOM     25  O   UNL     1      10.376  -0.733   6.670  0.00  0.00    -0.461 OA
BRANCH  25  26
ATOM     26  C   UNL     1      10.225  -1.884   7.513  0.00  0.00    +0.339 C 
ATOM     27  O   UNL     1       9.336  -1.628   8.602  0.00  0.00    -0.331 OA
ATOM     28  C   UNL     1       9.828  -0.620   9.508  0.00  0.00    +0.179 C 
ATOM     29  C   UNL     1      11.160  -1.050  10.161  0.00  0.00    +0.177 C 
ATOM     30  C   UNL     1      12.200  -1.342   9.074  0.00  0.00    +0.180 C 
ATOM     31  C   UNL     1      11.621  -2.328   8.038  0.00  0.00    +0.214 C 
BRANCH  31  32
ATOM     32  O   UNL     1      12.582  -2.567   7.001  0.00  0.00    -0.383 OA
ATOM     33  H   UNL     1      12.133  -2.522   6.139  0.00  0.00    +0.210 HD
ENDBRANCH  31  32
BRANCH  30  34
ATOM     34  O   UNL     1      12.660  -0.107   8.511  0.00  0.00    -0.386 OA
ATOM     35  H   UNL     1      11.976   0.248   7.917  0.00  0.00    +0.210 HD
ENDBRANCH  30  34
BRANCH  29  36
ATOM     36  O   UNL     1      10.962  -2.215  10.968  0.00  0.00    -0.386 OA
ATOM     37  H   UNL     1      11.818  -2.451  11.371  0.00  0.00    +0.210 HD
ENDBRANCH  29  36
BRANCH  28  38
ATOM     38  C   UNL     1       8.757  -0.337  10.571  0.00  0.00    +0.190 C 
BRANCH  38  39
ATOM     39  O   UNL     1       7.551   0.169   9.993  0.00  0.00    -0.392 OA
ATOM     40  H   UNL     1       7.786   0.763   9.261  0.00  0.00    +0.210 HD
ENDBRANCH  38  39
ENDBRANCH  28  38
ENDBRANCH  25  26
ENDBRANCH  22  25
ENDBRANCH  18  19
ENDBRANCH  15  17
ENDBRANCH  14  15
ENDBRANCH  13  14
ENDBRANCH   3  13
BRANCH   1  41
ATOM     41  O   UNL     1       3.876  -1.038  -2.788  0.00  0.00    -0.337 OA
BRANCH  41  46
ATOM     42  C   UNL     1       3.802  -0.362   2.120  0.00  0.00    +0.041 C 
ATOM     43  C   UNL     1       3.039  -0.247   0.816  0.00  0.00    +0.150 C 
ATOM     44  O   UNL     1       2.508  -1.477   0.334  0.00  0.00    -0.334 OA
ATOM     45  C   UNL     1       3.252  -2.287  -0.610  0.00  0.00    +0.340 C 
ATOM     46  C   UNL     1       4.390  -1.641  -1.564  0.00  0.00    +0.221 C 
ATOM     47  C   UNL     1       4.978  -0.582  -0.684  0.00  0.00    +0.180 C 
ATOM     48  C   UNL     1       3.796   0.396  -0.302  0.00  0.00    +0.174 C 
BRANCH  48  49
ATOM     49  O   UNL     1       2.721   0.616  -1.274  0.00  0.00    -0.387 OA
ATOM     50  H   UNL     1       2.590  -0.207  -1.786  0.00  0.00    +0.210 HD
ENDBRANCH  48  49
BRANCH  47  51
ATOM     51  O   UNL     1       6.225  -0.096  -1.167  0.00  0.00    -0.386 OA
ATOM     52  H   UNL     1       6.209   0.121  -2.114  0.00  0.00    +0.210 HD
ENDBRANCH  47  51
BRANCH  45  53
ATOM     53  O   UNL     1       2.229  -2.876  -1.436  0.00  0.00    -0.453 OA
BRANCH  53  54
ATOM     54  C   UNL     1       2.060  -4.233  -1.261  0.00  0.00    +0.214 A 
ATOM     55  C   UNL     1       3.307  -5.078  -1.209  0.00  0.00    +0.238 A 
ATOM     56  O   UNL     1       4.411  -4.577  -1.397  0.00  0.00    -0.283 OA
ATOM     57  C   UNL     1       3.164  -6.513  -0.978  0.00  0.00    +0.109 A 
ATOM     58  C   UNL     1       1.877  -7.024  -1.002  0.00  0.00    +0.147 A 
ATOM     59  C   UNL     1       1.662  -8.395  -0.865  0.00  0.00    +0.092 A 
ATOM     60  C   UNL     1       2.752  -9.223  -0.668  0.00  0.00    +0.124 A 
ATOM     61  C   UNL     1       4.044  -8.746  -0.633  0.00  0.00    +0.091 A 
ATOM     62  O   UNL     1       0.764  -6.248  -1.163  0.00  0.00    -0.451 OA
ATOM     63  C   UNL     1       4.253  -7.378  -0.783  0.00  0.00    +0.135 A 
ATOM     64  C   UNL     1       0.855  -4.854  -1.278  0.00  0.00    +0.181 A 
BRANCH  64  65
ATOM     65  C   UNL     1      -0.533  -4.257  -1.491  0.00  0.00    +0.025 A 
ATOM     66  C   UNL     1      -1.574  -5.169  -1.837  0.00  0.00    +0.015 A 
ATOM     67  C   UNL     1      -2.886  -4.773  -2.130  0.00  0.00    +0.050 A 
ATOM     68  C   UNL     1      -3.209  -3.439  -2.056  0.00  0.00    +0.158 A 
ATOM     69  C   UNL     1      -2.248  -2.512  -1.676  0.00  0.00    +0.159 A 
ATOM     70  C   UNL     1      -0.916  -2.905  -1.389  0.00  0.00    +0.060 A 
BRANCH  69  71
ATOM     71  O   UNL     1      -2.674  -1.212  -1.588  0.00  0.00    -0.503 OA
ATOM     72  H   UNL     1      -1.942  -0.651  -1.288  0.00  0.00    +0.292 HD
ENDBRANCH  69  71
BRANCH  68  73
ATOM     73  O   UNL     1      -4.494  -3.059  -2.348  0.00  0.00    -0.503 OA
ATOM     74  H   UNL     1      -4.508  -2.089  -2.214  0.00  0.00    +0.292 HD
ENDBRANCH  68  73
ENDBRANCH  64  65
BRANCH  63  75
ATOM     75  O   UNL     1       5.533  -6.901  -0.716  0.00  0.00    -0.506 OA
ATOM     76  H   UNL     1       6.163  -7.640  -0.672  0.00  0.00    +0.292 HD
ENDBRANCH  63  75
BRANCH  60  77
ATOM     77  O   UNL     1       2.587 -10.585  -0.517  0.00  0.00    -0.507 OA
ATOM     78  H   UNL     1       1.635 -10.792  -0.489  0.00  0.00    +0.292 HD
ENDBRANCH  60  77
ENDBRANCH  53  54
ENDBRANCH  45  53
ENDBRANCH  41  46
ENDBRANCH   1  41
TORSDOF 26
