REMARK  Name = 
REMARK  14 active torsions:
REMARK  status: ('A' for Active; 'I' for Inactive)
REMARK    1  A    between atoms: C_1  and  C_2
REMARK    2  A    between atoms: C_2  and  O_3
REMARK    3  A    between atoms: O_3  and  C_4
REMARK    4  A    between atoms: C_4  and  C_6
REMARK    5  A    between atoms: C_8  and  O_39
REMARK    6  A    between atoms: C_10  and  O_38
REMARK    7  A    between atoms: C_11  and  O_37
REMARK    8  A    between atoms: C_12  and  O_15
REMARK    9  A    between atoms: O_15  and  C_16
REMARK   10  A    between atoms: C_17  and  C_29
REMARK   11  A    between atoms: C_21  and  O_28
REMARK   12  A    between atoms: C_23  and  O_27
REMARK   13  A    between atoms: C_31  and  O_36
REMARK   14  A    between atoms: C_32  and  O_35
REMARK                            x       y       z     vdW  Elec       q    Type
REMARK                         _______ _______ _______ _____ _____    ______ ____
ROOT
ATOM      1  C   UNL     1       8.855   1.368   2.288  0.00  0.00    +0.214 A 
ATOM      2  C   UNL     1       8.317   2.435   3.185  0.00  0.00    +0.238 A 
ATOM      3  O   UNL     1       7.895   2.183   4.305  0.00  0.00    -0.283 OA
ATOM      4  C   UNL     1       8.360   3.813   2.696  0.00  0.00    +0.109 A 
ATOM      5  C   UNL     1       9.197   4.089   1.624  0.00  0.00    +0.147 A 
ATOM      6  C   UNL     1       9.380   5.412   1.207  0.00  0.00    +0.092 A 
ATOM      7  C   UNL     1       8.691   6.434   1.861  0.00  0.00    +0.124 A 
ATOM      8  C   UNL     1       7.813   6.162   2.903  0.00  0.00    +0.091 A 
ATOM      9  O   UNL     1       9.881   3.107   0.950  0.00  0.00    -0.451 OA
ATOM     10  C   UNL     1       7.636   4.844   3.312  0.00  0.00    +0.135 A 
ATOM     11  C   UNL     1       9.633   1.763   1.250  0.00  0.00    +0.181 A 
ENDROOT
BRANCH  11  12
ATOM     12  C   UNL     1      10.358   0.831   0.321  0.00  0.00    +0.025 A 
ATOM     13  C   UNL     1      10.689   1.250  -0.988  0.00  0.00    +0.015 A 
ATOM     14  C   UNL     1      11.453   0.448  -1.850  0.00  0.00    +0.050 A 
ATOM     15  C   UNL     1      11.889  -0.790  -1.414  0.00  0.00    +0.158 A 
ATOM     16  C   UNL     1      11.555  -1.243  -0.145  0.00  0.00    +0.159 A 
ATOM     17  C   UNL     1      10.812  -0.441   0.725  0.00  0.00    +0.060 A 
BRANCH  15  18
ATOM     18  O   UNL     1      12.660  -1.561  -2.235  0.00  0.00    -0.503 OA
ATOM     19  H   UNL     1      12.875  -2.353  -1.701  0.00  0.00    +0.292 HD
ENDBRANCH  15  18
BRANCH  16  20
ATOM     20  O   UNL     1      11.996  -2.486   0.221  0.00  0.00    -0.503 OA
ATOM     21  H   UNL     1      11.576  -2.721   1.068  0.00  0.00    +0.292 HD
ENDBRANCH  16  20
ENDBRANCH  11  12
BRANCH   7  22
ATOM     22  O   UNL     1       8.846   7.743   1.508  0.00  0.00    -0.507 OA
ATOM     23  H   UNL     1       9.519   7.811   0.811  0.00  0.00    +0.292 HD
ENDBRANCH   7  22
BRANCH  10  24
ATOM     24  O   UNL     1       6.733   4.570   4.300  0.00  0.00    -0.506 OA
ATOM     25  H   UNL     1       6.462   5.389   4.744  0.00  0.00    +0.292 HD
ENDBRANCH  10  24
BRANCH   1  26
ATOM     26  O   UNL     1       8.627   0.035   2.592  0.00  0.00    -0.453 OA
BRANCH  26  29
ATOM     27  C   UNL     1       6.076  -0.523   5.127  0.00  0.00    +0.261 C 
ATOM     28  O   UNL     1       7.381  -0.339   4.576  0.00  0.00    -0.322 OA
ATOM     29  C   UNL     1       7.338  -0.290   3.142  0.00  0.00    +0.340 C 
ATOM     30  C   UNL     1       7.028  -1.732   2.696  0.00  0.00    +0.214 C 
ATOM     31  C   UNL     1       5.667  -2.158   3.254  0.00  0.00    +0.180 C 
ATOM     32  C   UNL     1       5.578  -1.937   4.777  0.00  0.00    +0.185 C 
BRANCH  27  33
ATOM     33  C   UNL     1       5.999  -0.330   6.647  0.00  0.00    +0.339 C 
ATOM     34  O   UNL     1       5.248  -0.976   7.374  0.00  0.00    -0.248 OA
BRANCH  33  35
ATOM     35  O   UNL     1       6.749   0.727   7.058  0.00  0.00    -0.463 OA
BRANCH  35  37
ATOM     36  C   UNL     1       5.379   2.337   8.176  0.00  0.00    +0.048 C 
ATOM     37  C   UNL     1       6.424   1.249   8.353  0.00  0.00    +0.229 C 
ENDBRANCH  35  37
ENDBRANCH  33  35
ENDBRANCH  27  33
BRANCH  30  38
ATOM     38  O   UNL     1       8.029  -2.639   3.223  0.00  0.00    -0.383 OA
ATOM     39  H   UNL     1       8.542  -2.120   3.878  0.00  0.00    +0.210 HD
ENDBRANCH  30  38
BRANCH  31  40
ATOM     40  O   UNL     1       5.459  -3.542   2.938  0.00  0.00    -0.386 OA
ATOM     41  H   UNL     1       6.292  -3.996   3.173  0.00  0.00    +0.210 HD
ENDBRANCH  31  40
BRANCH  32  42
ATOM     42  O   UNL     1       4.217  -2.127   5.185  0.00  0.00    -0.386 OA
ATOM     43  H   UNL     1       4.211  -2.111   6.166  0.00  0.00    +0.210 HD
ENDBRANCH  32  42
ENDBRANCH  26  29
ENDBRANCH   1  26
TORSDOF 13
