REMARK  Name = 
REMARK  7 active torsions:
REMARK  status: ('A' for Active; 'I' for Inactive)
REMARK    1  A    between atoms: C_1  and  C_2
REMARK    2  A    between atoms: C_2  and  C_4
REMARK    3  A    between atoms: C_12  and  O_13
REMARK    4  A    between atoms: C_16  and  O_27
REMARK    5  A    between atoms: C_17  and  C_19
REMARK    6  A    between atoms: C_21  and  O_26
REMARK    7  A    between atoms: C_22  and  O_25
REMARK                            x       y       z     vdW  Elec       q    Type
REMARK                         _______ _______ _______ _____ _____    ______ ____
ROOT
ATOM      1  C   UNL     1       3.317  -0.540   1.122  0.00  0.00    +0.203 C 
ATOM      2  O   UNL     1       4.752  -0.275   1.053  0.00  0.00    -0.484 OA
ATOM      3  C   UNL     1       5.353  -1.506   0.970  0.00  0.00    +0.132 A 
ATOM      4  C   UNL     1       6.722  -1.714   0.860  0.00  0.00    +0.093 A 
ATOM      5  C   UNL     1       7.187  -3.033   0.752  0.00  0.00    +0.147 A 
ATOM      6  O   UNL     1       8.547  -3.239   0.640  0.00  0.00    -0.451 OA
ATOM      7  C   UNL     1       9.036  -4.548   0.503  0.00  0.00    +0.181 A 
ATOM      8  C   UNL     1       8.231  -5.629   0.467  0.00  0.00    +0.208 A 
ATOM      9  C   UNL     1       6.777  -5.447   0.622  0.00  0.00    +0.238 A 
ATOM     10  O   UNL     1       6.033  -6.426   0.628  0.00  0.00    -0.283 OA
ATOM     11  C   UNL     1       6.268  -4.089   0.762  0.00  0.00    +0.109 A 
ATOM     12  C   UNL     1       4.894  -3.857   0.890  0.00  0.00    +0.138 A 
ATOM     13  C   UNL     1       4.455  -2.557   0.990  0.00  0.00    +0.040 A 
ATOM     14  C   UNL     1       3.069  -2.058   1.124  0.00  0.00    +0.091 C 
ENDROOT
BRANCH   7  15
ATOM     15  C   UNL     1      10.526  -4.635   0.394  0.00  0.00    +0.025 A 
ATOM     16  C   UNL     1      11.268  -3.572  -0.157  0.00  0.00    +0.015 A 
ATOM     17  C   UNL     1      12.668  -3.623  -0.244  0.00  0.00    +0.050 A 
ATOM     18  C   UNL     1      13.339  -4.742   0.221  0.00  0.00    +0.158 A 
ATOM     19  C   UNL     1      12.635  -5.808   0.761  0.00  0.00    +0.159 A 
ATOM     20  C   UNL     1      11.246  -5.755   0.862  0.00  0.00    +0.060 A 
BRANCH  18  21
ATOM     21  O   UNL     1      14.702  -4.791   0.152  0.00  0.00    -0.503 OA
ATOM     22  H   UNL     1      14.938  -5.650   0.558  0.00  0.00    +0.292 HD
ENDBRANCH  18  21
BRANCH  19  23
ATOM     23  O   UNL     1      13.350  -6.894   1.189  0.00  0.00    -0.503 OA
ATOM     24  H   UNL     1      12.719  -7.584   1.460  0.00  0.00    +0.292 HD
ENDBRANCH  19  23
ENDBRANCH   7  15
BRANCH   1  26
ATOM     25  C   UNL     1       3.290   0.275  -1.331  0.00  0.00    +0.042 C 
ATOM     26  C   UNL     1       2.580   0.160  -0.012  0.00  0.00    -0.040 C 
ATOM     27  C   UNL     1       1.326   0.623   0.141  0.00  0.00    +0.011 C 
ENDBRANCH   1  26
BRANCH   8  28
ATOM     28  O   UNL     1       8.655  -6.934   0.299  0.00  0.00    -0.501 OA
ATOM     29  H   UNL     1       7.834  -7.474   0.325  0.00  0.00    +0.292 HD
ENDBRANCH   8  28
BRANCH  12  30
ATOM     30  O   UNL     1       3.957  -4.850   0.913  0.00  0.00    -0.506 OA
ATOM     31  H   UNL     1       4.416  -5.714   0.822  0.00  0.00    +0.292 HD
ENDBRANCH  12  30
TORSDOF 6
