REMARK  Name = 
REMARK  14 active torsions:
REMARK  status: ('A' for Active; 'I' for Inactive)
REMARK    1  A    between atoms: C_2  and  O_40
REMARK    2  A    between atoms: C_3  and  O_39
REMARK    3  A    between atoms: C_4  and  O_38
REMARK    4  A    between atoms: C_5  and  O_7
REMARK    5  A    between atoms: O_7  and  C_8
REMARK    6  A    between atoms: C_9  and  O_37
REMARK    7  A    between atoms: C_10  and  O_36
REMARK    8  A    between atoms: C_13  and  O_14
REMARK    9  A    between atoms: O_14  and  C_15
REMARK   10  A    between atoms: C_16  and  C_28
REMARK   11  A    between atoms: C_20  and  O_27
REMARK   12  A    between atoms: C_22  and  O_26
REMARK   13  A    between atoms: C_30  and  O_35
REMARK   14  A    between atoms: C_31  and  O_34
REMARK                            x       y       z     vdW  Elec       q    Type
REMARK                         _______ _______ _______ _____ _____    ______ ____
ROOT
ATOM      1  C   UNL     1       4.765  -1.126  -3.040  0.00  0.00    +0.214 A 
ATOM      2  C   UNL     1       4.182   0.203  -3.423  0.00  0.00    +0.238 A 
ATOM      3  O   UNL     1       3.413   0.803  -2.685  0.00  0.00    -0.283 OA
ATOM      4  C   UNL     1       4.637   0.792  -4.702  0.00  0.00    +0.109 A 
ATOM      5  C   UNL     1       5.694   0.176  -5.372  0.00  0.00    +0.147 A 
ATOM      6  C   UNL     1       6.210   0.732  -6.544  0.00  0.00    +0.092 A 
ATOM      7  C   UNL     1       5.657   1.907  -7.042  0.00  0.00    +0.124 A 
ATOM      8  C   UNL     1       4.596   2.525  -6.403  0.00  0.00    +0.091 A 
ATOM      9  O   UNL     1       6.289  -0.979  -4.924  0.00  0.00    -0.451 OA
ATOM     10  C   UNL     1       4.078   1.967  -5.229  0.00  0.00    +0.135 A 
ATOM     11  C   UNL     1       5.779  -1.593  -3.795  0.00  0.00    +0.181 A 
ENDROOT
BRANCH  11  12
ATOM     12  C   UNL     1       6.472  -2.851  -3.461  0.00  0.00    +0.025 A 
ATOM     13  C   UNL     1       6.009  -4.076  -3.969  0.00  0.00    +0.015 A 
ATOM     14  C   UNL     1       6.614  -5.277  -3.593  0.00  0.00    +0.050 A 
ATOM     15  C   UNL     1       7.694  -5.247  -2.721  0.00  0.00    +0.158 A 
ATOM     16  C   UNL     1       8.170  -4.037  -2.222  0.00  0.00    +0.159 A 
ATOM     17  C   UNL     1       7.575  -2.835  -2.596  0.00  0.00    +0.060 A 
BRANCH  15  18
ATOM     18  O   UNL     1       8.279  -6.418  -2.346  0.00  0.00    -0.503 OA
ATOM     19  H   UNL     1       9.012  -6.153  -1.754  0.00  0.00    +0.292 HD
ENDBRANCH  15  18
BRANCH  16  20
ATOM     20  O   UNL     1       9.213  -4.091  -1.340  0.00  0.00    -0.503 OA
ATOM     21  H   UNL     1       9.259  -3.233  -0.877  0.00  0.00    +0.292 HD
ENDBRANCH  16  20
ENDBRANCH  11  12
BRANCH   7  22
ATOM     22  O   UNL     1       6.130   2.502  -8.176  0.00  0.00    -0.507 OA
ATOM     23  H   UNL     1       6.859   1.974  -8.527  0.00  0.00    +0.292 HD
ENDBRANCH   7  22
BRANCH  10  24
ATOM     24  O   UNL     1       3.022   2.580  -4.625  0.00  0.00    -0.506 OA
ATOM     25  H   UNL     1       2.783   3.394  -5.101  0.00  0.00    +0.292 HD
ENDBRANCH  10  24
BRANCH   1  26
ATOM     26  O   UNL     1       4.341  -1.823  -1.908  0.00  0.00    -0.453 OA
BRANCH  26  28
ATOM     27  C   UNL     1       2.624  -2.525  -0.301  0.00  0.00    +0.221 C 
ATOM     28  C   UNL     1       2.943  -1.719  -1.584  0.00  0.00    +0.340 C 
ATOM     29  O   UNL     1       2.085  -2.134  -2.656  0.00  0.00    -0.337 OA
ATOM     30  C   UNL     1       2.234  -3.510  -2.993  0.00  0.00    +0.198 C 
ATOM     31  C   UNL     1       2.005  -4.452  -1.813  0.00  0.00    +0.171 C 
ATOM     32  C   UNL     1       2.855  -4.012  -0.609  0.00  0.00    +0.180 C 
BRANCH  31  33
ATOM     33  O   UNL     1       2.309  -5.789  -2.225  0.00  0.00    -0.387 OA
ATOM     34  H   UNL     1       3.195  -6.019  -1.890  0.00  0.00    +0.210 HD
ENDBRANCH  31  33
BRANCH  32  35
ATOM     35  O   UNL     1       2.533  -4.812   0.537  0.00  0.00    -0.386 OA
ATOM     36  H   UNL     1       1.638  -4.533   0.817  0.00  0.00    +0.210 HD
ENDBRANCH  32  35
BRANCH  27  37
ATOM     37  O   UNL     1       1.252  -2.395   0.162  0.00  0.00    -0.337 OA
BRANCH  37  40
ATOM     38  C   UNL     1       1.365   0.885   1.691  0.00  0.00    +0.197 C 
ATOM     39  O   UNL     1       1.667  -0.492   1.460  0.00  0.00    -0.346 OA
ATOM     40  C   UNL     1       0.844  -1.049   0.435  0.00  0.00    +0.282 C 
ATOM     41  C   UNL     1      -0.621  -1.045   0.923  0.00  0.00    +0.201 C 
ATOM     42  C   UNL     1      -1.046   0.410   1.154  0.00  0.00    +0.178 C 
ATOM     43  C   UNL     1      -0.084   1.109   2.133  0.00  0.00    +0.171 C 
BRANCH  41  44
ATOM     44  O   UNL     1      -0.769  -1.754   2.173  0.00  0.00    -0.384 OA
ATOM     45  H   UNL     1       0.136  -1.925   2.502  0.00  0.00    +0.210 HD
ENDBRANCH  41  44
BRANCH  42  46
ATOM     46  O   UNL     1      -2.381   0.464   1.669  0.00  0.00    -0.386 OA
ATOM     47  H   UNL     1      -2.442  -0.258   2.329  0.00  0.00    +0.210 HD
ENDBRANCH  42  46
BRANCH  43  48
ATOM     48  O   UNL     1      -0.323   2.517   2.211  0.00  0.00    -0.387 OA
ATOM     49  H   UNL     1      -1.008   2.750   1.556  0.00  0.00    +0.210 HD
ENDBRANCH  43  48
ENDBRANCH  37  40
ENDBRANCH  27  37
ENDBRANCH  26  28
ENDBRANCH   1  26
TORSDOF 14
