REMARK  Name = 
REMARK  23 active torsions:
REMARK  status: ('A' for Active; 'I' for Inactive)
REMARK    1  A    between atoms: C_3  and  O_66
REMARK    2  A    between atoms: C_4  and  O_65
REMARK    3  A    between atoms: C_6  and  C_7
REMARK    4  A    between atoms: C_8  and  C_9
REMARK    5  A    between atoms: C_9  and  O_11
REMARK    6  A    between atoms: O_11  and  C_12
REMARK    7  A    between atoms: C_12  and  C_13
REMARK    8  A    between atoms: C_15  and  O_64
REMARK    9  A    between atoms: C_17  and  O_63
REMARK   10  A    between atoms: C_19  and  O_62
REMARK   11  A    between atoms: C_21  and  O_24
REMARK   12  A    between atoms: O_24  and  C_25
REMARK   13  A    between atoms: C_27  and  O_61
REMARK   14  A    between atoms: C_29  and  O_60
REMARK   15  A    between atoms: C_31  and  C_58
REMARK   16  A    between atoms: C_34  and  O_36
REMARK   17  A    between atoms: O_36  and  C_37
REMARK   18  A    between atoms: C_38  and  C_50
REMARK   19  A    between atoms: C_42  and  O_49
REMARK   20  A    between atoms: C_44  and  O_48
REMARK   21  A    between atoms: C_52  and  O_57
REMARK   22  A    between atoms: C_53  and  O_56
REMARK   23  A    between atoms: C_58  and  O_59
REMARK                            x       y       z     vdW  Elec       q    Type
REMARK                         _______ _______ _______ _____ _____    ______ ____
ROOT
ATOM      1  C   UNL     1      -6.743  -3.835  -4.964  0.00  0.00    +0.221 C 
ATOM      2  C   UNL     1      -7.717  -5.007  -5.239  0.00  0.00    +0.340 C 
ATOM      3  O   UNL     1      -8.188  -5.610  -4.008  0.00  0.00    -0.331 OA
ATOM      4  C   UNL     1      -7.113  -6.269  -3.324  0.00  0.00    +0.179 C 
ATOM      5  C   UNL     1      -6.203  -5.175  -2.776  0.00  0.00    +0.177 C 
ATOM      6  C   UNL     1      -5.695  -4.251  -3.911  0.00  0.00    +0.180 C 
ENDROOT
BRANCH   6   7
ATOM      7  O   UNL     1      -5.144  -3.094  -3.256  0.00  0.00    -0.386 OA
ATOM      8  H   UNL     1      -4.236  -2.991  -3.605  0.00  0.00    +0.210 HD
ENDBRANCH   6   7
BRANCH   5   9
ATOM      9  O   UNL     1      -5.057  -5.759  -2.140  0.00  0.00    -0.386 OA
ATOM     10  H   UNL     1      -4.529  -5.005  -1.816  0.00  0.00    +0.210 HD
ENDBRANCH   5   9
BRANCH   4  11
ATOM     11  C   UNL     1      -7.608  -7.251  -2.235  0.00  0.00    +0.190 C 
BRANCH  11  12
ATOM     12  O   UNL     1      -8.338  -6.623  -1.184  0.00  0.00    -0.392 OA
ATOM     13  H   UNL     1      -9.184  -6.343  -1.574  0.00  0.00    +0.210 HD
ENDBRANCH  11  12
ENDBRANCH   4  11
BRANCH   2  14
ATOM     14  O   UNL     1      -8.868  -4.558  -6.004  0.00  0.00    -0.453 OA
BRANCH  14  15
ATOM     15  C   UNL     1      -9.128  -5.372  -7.099  0.00  0.00    +0.214 A 
ATOM     16  C   UNL     1      -8.749  -6.824  -7.025  0.00  0.00    +0.238 A 
ATOM     17  O   UNL     1      -8.759  -7.451  -5.973  0.00  0.00    -0.283 OA
ATOM     18  C   UNL     1      -8.389  -7.482  -8.268  0.00  0.00    +0.109 A 
ATOM     19  C   UNL     1      -8.933  -6.934  -9.421  0.00  0.00    +0.147 A 
ATOM     20  C   UNL     1      -8.723  -7.600 -10.635  0.00  0.00    +0.092 A 
ATOM     21  C   UNL     1      -7.980  -8.792 -10.665  0.00  0.00    +0.124 A 
ATOM     22  C   UNL     1      -7.416  -9.320  -9.514  0.00  0.00    +0.091 A 
ATOM     23  O   UNL     1      -9.733  -5.802  -9.394  0.00  0.00    -0.451 OA
ATOM     24  C   UNL     1      -7.611  -8.656  -8.308  0.00  0.00    +0.135 A 
ATOM     25  C   UNL     1      -9.767  -4.980  -8.231  0.00  0.00    +0.181 A 
BRANCH  25  26
ATOM     26  C   UNL     1     -10.622  -3.717  -8.414  0.00  0.00    +0.025 A 
ATOM     27  C   UNL     1     -11.160  -3.433  -9.691  0.00  0.00    +0.015 A 
ATOM     28  C   UNL     1     -12.062  -2.389  -9.918  0.00  0.00    +0.050 A 
ATOM     29  C   UNL     1     -12.478  -1.576  -8.875  0.00  0.00    +0.158 A 
ATOM     30  C   UNL     1     -11.975  -1.811  -7.604  0.00  0.00    +0.159 A 
ATOM     31  C   UNL     1     -11.051  -2.857  -7.369  0.00  0.00    +0.060 A 
BRANCH  30  32
ATOM     32  O   UNL     1     -12.450  -0.989  -6.613  0.00  0.00    -0.503 OA
ATOM     33  H   UNL     1     -12.254  -1.396  -5.752  0.00  0.00    +0.292 HD
ENDBRANCH  30  32
BRANCH  29  34
ATOM     34  O   UNL     1     -13.386  -0.580  -9.107  0.00  0.00    -0.503 OA
ATOM     35  H   UNL     1     -13.522  -0.148  -8.242  0.00  0.00    +0.292 HD
ENDBRANCH  29  34
ENDBRANCH  25  26
BRANCH  24  36
ATOM     36  O   UNL     1      -7.013  -9.155  -7.182  0.00  0.00    -0.506 OA
ATOM     37  H   UNL     1      -6.754 -10.081  -7.329  0.00  0.00    +0.292 HD
ENDBRANCH  24  36
BRANCH  21  38
ATOM     38  O   UNL     1      -7.764  -9.486 -11.816  0.00  0.00    -0.507 OA
ATOM     39  H   UNL     1      -8.290  -9.091 -12.533  0.00  0.00    +0.292 HD
ENDBRANCH  21  38
ENDBRANCH  14  15
ENDBRANCH   2  14
BRANCH   1  40
ATOM     40  O   UNL     1      -6.266  -3.158  -6.149  0.00  0.00    -0.337 OA
BRANCH  40  43
ATOM     41  C   UNL     1      -4.651  -3.894  -9.373  0.00  0.00    +0.190 C 
ATOM     42  O   UNL     1      -5.474  -4.239  -8.209  0.00  0.00    -0.339 OA
ATOM     43  C   UNL     1      -5.191  -3.372  -7.075  0.00  0.00    +0.282 C 
ATOM     44  C   UNL     1      -3.730  -3.642  -6.612  0.00  0.00    +0.201 C 
ATOM     45  C   UNL     1      -2.793  -3.215  -7.779  0.00  0.00    +0.179 C 
ATOM     46  C   UNL     1      -3.136  -3.985  -9.064  0.00  0.00    +0.178 C 
BRANCH  46  47
ATOM     47  O   UNL     1      -2.309  -3.443 -10.112  0.00  0.00    -0.386 OA
ATOM     48  H   UNL     1      -2.100  -4.173 -10.727  0.00  0.00    +0.210 HD
ENDBRANCH  46  47
BRANCH  45  49
ATOM     49  O   UNL     1      -1.407  -3.389  -7.502  0.00  0.00    -0.386 OA
ATOM     50  H   UNL     1      -0.939  -3.141  -8.318  0.00  0.00    +0.210 HD
ENDBRANCH  45  49
BRANCH  44  51
ATOM     51  O   UNL     1      -3.389  -2.958  -5.402  0.00  0.00    -0.384 OA
ATOM     52  H   UNL     1      -3.098  -2.060  -5.638  0.00  0.00    +0.210 HD
ENDBRANCH  44  51
BRANCH  41  53
ATOM     53  C   UNL     1      -4.985  -4.808 -10.580  0.00  0.00    +0.266 C 
BRANCH  53  54
ATOM     54  O   UNL     1      -4.252  -4.427 -11.770  0.00  0.00    -0.459 OA
BRANCH  54  55
ATOM     55  C   UNL     1      -4.765  -3.355 -12.423  0.00  0.00    +0.332 C 
ATOM     56  O   UNL     1      -5.819  -2.798 -12.138  0.00  0.00    -0.246 OA
BRANCH  55  58
ATOM     57  C   UNL     1      -4.238  -1.867 -14.254  0.00  0.00    +0.015 C 
ATOM     58  C   UNL     1      -3.872  -2.931 -13.520  0.00  0.00    +0.092 C 
BRANCH  57  60
ATOM     59  C   UNL     1      -2.088  -1.160 -15.370  0.00  0.00    +0.012 A 
ATOM     60  C   UNL     1      -3.488  -1.252 -15.357  0.00  0.00    -0.021 A 
ATOM     61  C   UNL     1      -4.219  -0.634 -16.382  0.00  0.00    +0.057 A 
ATOM     62  C   UNL     1      -3.556   0.052 -17.390  0.00  0.00    +0.159 A 
ATOM     63  C   UNL     1      -2.168   0.142 -17.397  0.00  0.00    +0.158 A 
ATOM     64  C   UNL     1      -1.424  -0.466 -16.394  0.00  0.00    +0.050 A 
BRANCH  63  65
ATOM     65  O   UNL     1      -1.585   0.858 -18.404  0.00  0.00    -0.503 OA
ATOM     66  H   UNL     1      -0.629   0.905 -18.231  0.00  0.00    +0.292 HD
ENDBRANCH  63  65
BRANCH  62  67
ATOM     67  O   UNL     1      -4.286   0.666 -18.368  0.00  0.00    -0.503 OA
ATOM     68  H   UNL     1      -3.621   1.107 -18.932  0.00  0.00    +0.292 HD
ENDBRANCH  62  67
ENDBRANCH  57  60
ENDBRANCH  55  58
ENDBRANCH  54  55
ENDBRANCH  53  54
ENDBRANCH  41  53
ENDBRANCH  40  43
ENDBRANCH   1  40
TORSDOF 23
