REMARK  Name = 
REMARK  5 active torsions:
REMARK  status: ('A' for Active; 'I' for Inactive)
REMARK    1  A    between atoms: C_3  and  O_22
REMARK    2  A    between atoms: C_4  and  O_21
REMARK    3  A    between atoms: C_6  and  C_7
REMARK    4  A    between atoms: C_12  and  O_19
REMARK    5  A    between atoms: C_14  and  O_18
REMARK                            x       y       z     vdW  Elec       q    Type
REMARK                         _______ _______ _______ _____ _____    ______ ____
ROOT
ATOM      1  C   UNL     1      -1.486  -2.518  -0.239  0.00  0.00    +0.132 A 
ATOM      2  O   UNL     1      -0.722  -3.648   0.053  0.00  0.00    -0.455 OA
ATOM      3  C   UNL     1      -1.260  -4.891  -0.141  0.00  0.00    +0.146 A 
ATOM      4  C   UNL     1      -2.584  -5.078  -0.494  0.00  0.00    +0.105 A 
ATOM      5  C   UNL     1      -3.095  -6.379  -0.646  0.00  0.00    +0.135 A 
ATOM      6  C   UNL     1      -2.280  -7.489  -0.461  0.00  0.00    +0.091 A 
ATOM      7  C   UNL     1      -0.947  -7.290  -0.120  0.00  0.00    +0.124 A 
ATOM      8  C   UNL     1      -3.424  -3.900  -0.709  0.00  0.00    +0.189 A 
ATOM      9  O   UNL     1      -4.622  -4.121  -0.919  0.00  0.00    -0.288 OA
ATOM     10  C   UNL     1      -0.431  -6.003   0.044  0.00  0.00    +0.092 A 
ATOM     11  C   UNL     1      -2.785  -2.526  -0.663  0.00  0.00    -0.015 A 
ATOM     12  O   UNL     1      -3.554  -1.585  -1.031  0.00  0.00    -0.869 OA
ENDROOT
BRANCH   1  14
ATOM     13  C   UNL     1      -1.320  -0.033   0.292  0.00  0.00    +0.015 A 
ATOM     14  C   UNL     1      -0.697  -1.243  -0.083  0.00  0.00    +0.020 A 
ATOM     15  C   UNL     1       0.691  -1.205  -0.312  0.00  0.00    +0.060 A 
ATOM     16  C   UNL     1       1.379   0.008  -0.251  0.00  0.00    +0.159 A 
ATOM     17  C   UNL     1       0.717   1.198   0.043  0.00  0.00    +0.158 A 
ATOM     18  C   UNL     1      -0.634   1.185   0.334  0.00  0.00    +0.050 A 
BRANCH  16  19
ATOM     19  O   UNL     1       2.723   0.041  -0.512  0.00  0.00    -0.503 OA
ATOM     20  H   UNL     1       2.944   0.992  -0.454  0.00  0.00    +0.292 HD
ENDBRANCH  16  19
BRANCH  17  21
ATOM     21  O   UNL     1       1.434   2.364   0.020  0.00  0.00    -0.503 OA
ATOM     22  H   UNL     1       0.788   3.088   0.091  0.00  0.00    +0.292 HD
ENDBRANCH  17  21
ENDBRANCH   1  14
BRANCH   5  23
ATOM     23  O   UNL     1      -4.402  -6.632  -0.980  0.00  0.00    -0.506 OA
ATOM     24  H   UNL     1      -4.839  -5.745  -1.057  0.00  0.00    +0.292 HD
ENDBRANCH   5  23
BRANCH   7  25
ATOM     25  O   UNL     1      -0.109  -8.353   0.066  0.00  0.00    -0.507 OA
ATOM     26  H   UNL     1      -0.617  -9.166  -0.095  0.00  0.00    +0.292 HD
ENDBRANCH   7  25
TORSDOF 5
