REMARK  Name = 
REMARK  14 active torsions:
REMARK  status: ('A' for Active; 'I' for Inactive)
REMARK    1  A    between atoms: C_1  and  C_2
REMARK    2  A    between atoms: C_2  and  C_3
REMARK    3  A    between atoms: C_3  and  C_4
REMARK    4  A    between atoms: C_4  and  C_5
REMARK    5  A    between atoms: C_5  and  C_6
REMARK    6  A    between atoms: C_6  and  C_7
REMARK    7  A    between atoms: C_7  and  C_8
REMARK    8  A    between atoms: C_8  and  O_10
REMARK    9  A    between atoms: O_10  and  C_11
REMARK   10  A    between atoms: C_13  and  O_31
REMARK   11  A    between atoms: C_18  and  C_23
REMARK   12  A    between atoms: C_19  and  O_22
REMARK   13  A    between atoms: C_25  and  O_30
REMARK   14  A    between atoms: C_26  and  O_29
REMARK                            x       y       z     vdW  Elec       q    Type
REMARK                         _______ _______ _______ _____ _____    ______ ____
ROOT
ATOM      1  C   UNL     1      10.765  -5.364   1.304  0.00  0.00    +0.139 A 
ATOM      2  C   UNL     1      11.554  -5.082   2.418  0.00  0.00    +0.093 A 
ATOM      3  C   UNL     1      12.940  -5.082   2.300  0.00  0.00    +0.147 A 
ATOM      4  O   UNL     1      13.627  -4.769   3.444  0.00  0.00    -0.451 OA
ATOM      5  C   UNL     1      15.002  -4.766   3.397  0.00  0.00    +0.181 A 
ATOM      6  C   UNL     1      15.742  -5.044   2.306  0.00  0.00    +0.208 A 
ATOM      7  C   UNL     1      15.033  -5.387   1.035  0.00  0.00    +0.238 A 
ATOM      8  O   UNL     1      15.671  -5.641   0.019  0.00  0.00    -0.283 OA
ATOM      9  C   UNL     1      13.550  -5.392   1.082  0.00  0.00    +0.109 A 
ATOM     10  C   UNL     1      12.742  -5.706  -0.025  0.00  0.00    +0.135 A 
ATOM     11  C   UNL     1      11.346  -5.693   0.081  0.00  0.00    +0.092 A 
ENDROOT
BRANCH   5  12
ATOM     12  C   UNL     1      15.634  -4.421   4.676  0.00  0.00    +0.025 A 
ATOM     13  C   UNL     1      16.070  -5.444   5.535  0.00  0.00    +0.015 A 
ATOM     14  C   UNL     1      16.842  -5.140   6.656  0.00  0.00    +0.050 A 
ATOM     15  C   UNL     1      17.171  -3.817   6.911  0.00  0.00    +0.158 A 
ATOM     16  C   UNL     1      16.709  -2.792   6.088  0.00  0.00    +0.159 A 
ATOM     17  C   UNL     1      15.931  -3.082   4.973  0.00  0.00    +0.060 A 
BRANCH  15  18
ATOM     18  O   UNL     1      17.982  -3.528   7.970  0.00  0.00    -0.503 OA
ATOM     19  H   UNL     1      18.111  -2.560   7.927  0.00  0.00    +0.292 HD
ENDBRANCH  15  18
BRANCH  16  20
ATOM     20  O   UNL     1      17.082  -1.514   6.398  0.00  0.00    -0.503 OA
ATOM     21  H   UNL     1      16.693  -0.910   5.742  0.00  0.00    +0.292 HD
ENDBRANCH  16  20
ENDBRANCH   5  12
BRANCH   6  22
ATOM     22  O   UNL     1      17.127  -5.032   2.283  0.00  0.00    -0.501 OA
ATOM     23  H   UNL     1      17.468  -4.827   3.168  0.00  0.00    +0.292 HD
ENDBRANCH   6  22
BRANCH  10  24
ATOM     24  O   UNL     1      13.304  -6.043  -1.224  0.00  0.00    -0.506 OA
ATOM     25  H   UNL     1      12.625  -6.206  -1.897  0.00  0.00    +0.292 HD
ENDBRANCH  10  24
BRANCH   1  26
ATOM     26  O   UNL     1       9.371  -5.451   1.430  0.00  0.00    -0.426 OA
BRANCH  26  27
ATOM     27  C   UNL     1       8.770  -4.393   2.111  0.00  0.00    +0.312 C 
ATOM     28  O   UNL     1       9.266  -3.292   2.313  0.00  0.00    -0.250 OA
BRANCH  27  29
ATOM     29  C   UNL     1       7.437  -4.854   2.652  0.00  0.00    +0.121 C 
BRANCH  29  30
ATOM     30  C   UNL     1       6.565  -3.657   3.017  0.00  0.00    +0.011 C 
BRANCH  30  31
ATOM     31  C   UNL     1       5.220  -4.076   3.604  0.00  0.00    +0.001 C 
BRANCH  31  32
ATOM     32  C   UNL     1       4.376  -2.841   3.920  0.00  0.00    +0.000 C 
BRANCH  32  33
ATOM     33  C   UNL     1       3.014  -3.216   4.501  0.00  0.00    -0.000 C 
BRANCH  33  35
ATOM     34  C   UNL     1       0.825  -2.325   5.375  0.00  0.00    +0.004 C 
ATOM     35  C   UNL     1       2.185  -1.967   4.798  0.00  0.00    -0.003 C 
ENDBRANCH  33  35
ENDBRANCH  32  33
ENDBRANCH  31  32
ENDBRANCH  30  31
ENDBRANCH  29  30
ENDBRANCH  27  29
ENDBRANCH  26  27
ENDBRANCH   1  26
TORSDOF 13
