REMARK  Name = 
REMARK  14 active torsions:
REMARK  status: ('A' for Active; 'I' for Inactive)
REMARK    1  A    between atoms: C_1  and  C_2
REMARK    2  A    between atoms: C_2  and  C_3
REMARK    3  A    between atoms: C_3  and  C_4
REMARK    4  A    between atoms: C_4  and  C_5
REMARK    5  A    between atoms: C_5  and  C_6
REMARK    6  A    between atoms: C_6  and  C_7
REMARK    7  A    between atoms: C_7  and  C_8
REMARK    8  A    between atoms: C_8  and  O_10
REMARK    9  A    between atoms: O_10  and  C_11
REMARK   10  A    between atoms: C_13  and  O_31
REMARK   11  A    between atoms: C_19  and  O_30
REMARK   12  A    between atoms: C_20  and  C_22
REMARK   13  A    between atoms: C_24  and  O_29
REMARK   14  A    between atoms: C_25  and  O_28
REMARK                            x       y       z     vdW  Elec       q    Type
REMARK                         _______ _______ _______ _____ _____    ______ ____
ROOT
ATOM      1  C   UNL     1      10.838  -3.251   4.453  0.00  0.00    +0.150 A 
ATOM      2  C   UNL     1      11.423  -2.134   5.066  0.00  0.00    +0.110 A 
ATOM      3  C   UNL     1      10.644  -1.054   5.688  0.00  0.00    +0.238 A 
ATOM      4  C   UNL     1      11.403   0.099   6.244  0.00  0.00    +0.208 A 
ATOM      5  C   UNL     1      12.749   0.114   6.155  0.00  0.00    +0.181 A 
ATOM      6  O   UNL     1      13.479  -0.943   5.623  0.00  0.00    -0.451 OA
ATOM      7  O   UNL     1       9.420  -1.049   5.773  0.00  0.00    -0.283 OA
ATOM      8  C   UNL     1      12.814  -2.025   5.097  0.00  0.00    +0.147 A 
ATOM      9  C   UNL     1      13.614  -3.037   4.556  0.00  0.00    +0.092 A 
ATOM     10  C   UNL     1      13.022  -4.141   3.960  0.00  0.00    +0.124 A 
ATOM     11  C   UNL     1      11.642  -4.245   3.875  0.00  0.00    +0.092 A 
ENDROOT
BRANCH   5  12
ATOM     12  C   UNL     1      13.605   1.244   6.628  0.00  0.00    +0.025 A 
ATOM     13  C   UNL     1      13.169   2.584   6.562  0.00  0.00    +0.015 A 
ATOM     14  C   UNL     1      13.975   3.643   6.998  0.00  0.00    +0.050 A 
ATOM     15  C   UNL     1      15.243   3.373   7.478  0.00  0.00    +0.158 A 
ATOM     16  C   UNL     1      15.713   2.065   7.525  0.00  0.00    +0.159 A 
ATOM     17  C   UNL     1      14.909   1.003   7.106  0.00  0.00    +0.060 A 
BRANCH  15  18
ATOM     18  O   UNL     1      16.030   4.404   7.900  0.00  0.00    -0.503 OA
ATOM     19  H   UNL     1      16.860   3.977   8.192  0.00  0.00    +0.292 HD
ENDBRANCH  15  18
BRANCH  16  20
ATOM     20  O   UNL     1      16.985   1.873   7.993  0.00  0.00    -0.503 OA
ATOM     21  H   UNL     1      17.190   0.924   7.938  0.00  0.00    +0.292 HD
ENDBRANCH  16  20
ENDBRANCH   5  12
BRANCH   4  22
ATOM     22  O   UNL     1      10.647   1.096   6.835  0.00  0.00    -0.501 OA
ATOM     23  H   UNL     1       9.718   0.790   6.760  0.00  0.00    +0.292 HD
ENDBRANCH   4  22
BRANCH  10  24
ATOM     24  O   UNL     1      13.820  -5.115   3.444  0.00  0.00    -0.507 OA
ATOM     25  H   UNL     1      13.262  -5.862   3.160  0.00  0.00    +0.292 HD
ENDBRANCH  10  24
BRANCH   1  26
ATOM     26  O   UNL     1       9.448  -3.334   4.266  0.00  0.00    -0.425 OA
BRANCH  26  27
ATOM     27  C   UNL     1       8.866  -4.575   4.518  0.00  0.00    +0.312 C 
ATOM     28  O   UNL     1       9.368  -5.492   5.157  0.00  0.00    -0.250 OA
BRANCH  27  29
ATOM     29  C   UNL     1       7.544  -4.667   3.799  0.00  0.00    +0.121 C 
BRANCH  29  30
ATOM     30  C   UNL     1       6.448  -5.196   4.712  0.00  0.00    +0.011 C 
BRANCH  30  31
ATOM     31  C   UNL     1       6.185  -4.244   5.877  0.00  0.00    +0.001 C 
BRANCH  31  32
ATOM     32  C   UNL     1       5.078  -4.778   6.778  0.00  0.00    +0.000 C 
BRANCH  32  33
ATOM     33  C   UNL     1       4.829  -3.833   7.951  0.00  0.00    -0.000 C 
BRANCH  33  35
ATOM     34  C   UNL     1       3.458  -3.432  10.020  0.00  0.00    +0.004 C 
ATOM     35  C   UNL     1       3.720  -4.368   8.853  0.00  0.00    -0.003 C 
ENDBRANCH  33  35
ENDBRANCH  32  33
ENDBRANCH  31  32
ENDBRANCH  30  31
ENDBRANCH  29  30
ENDBRANCH  27  29
ENDBRANCH  26  27
ENDBRANCH   1  26
TORSDOF 13
