REMARK  Name = 
REMARK  14 active torsions:
REMARK  status: ('A' for Active; 'I' for Inactive)
REMARK    1  A    between atoms: C_1  and  C_2
REMARK    2  A    between atoms: C_2  and  C_3
REMARK    3  A    between atoms: C_3  and  C_4
REMARK    4  A    between atoms: C_4  and  C_5
REMARK    5  A    between atoms: C_5  and  C_6
REMARK    6  A    between atoms: C_6  and  C_7
REMARK    7  A    between atoms: C_7  and  C_8
REMARK    8  A    between atoms: C_8  and  O_10
REMARK    9  A    between atoms: O_10  and  C_11
REMARK   10  A    between atoms: C_12  and  O_31
REMARK   11  A    between atoms: C_15  and  C_17
REMARK   12  A    between atoms: C_18  and  O_30
REMARK   13  A    between atoms: C_22  and  O_29
REMARK   14  A    between atoms: C_24  and  O_28
REMARK                            x       y       z     vdW  Elec       q    Type
REMARK                         _______ _______ _______ _____ _____    ______ ____
ROOT
ATOM      1  C   UNL     1      10.819   4.645  -2.731  0.00  0.00    +0.173 A 
ATOM      2  C   UNL     1      11.532   4.279  -1.590  0.00  0.00    +0.061 A 
ATOM      3  C   UNL     1      12.922   4.160  -1.648  0.00  0.00    +0.025 A 
ATOM      4  C   UNL     1      13.595   4.428  -2.845  0.00  0.00    +0.015 A 
ATOM      5  C   UNL     1      12.875   4.788  -3.989  0.00  0.00    +0.050 A 
ATOM      6  C   UNL     1      11.488   4.875  -3.931  0.00  0.00    +0.159 A 
ENDROOT
BRANCH   3   7
ATOM      7  C   UNL     1      13.629   3.643  -0.474  0.00  0.00    +0.181 A 
ATOM      8  O   UNL     1      13.518   2.267  -0.388  0.00  0.00    -0.451 OA
ATOM      9  C   UNL     1      14.145   1.623   0.642  0.00  0.00    +0.147 A 
ATOM     10  C   UNL     1      14.868   2.294   1.622  0.00  0.00    +0.109 A 
ATOM     11  C   UNL     1      15.504   1.565   2.633  0.00  0.00    +0.135 A 
ATOM     12  C   UNL     1      15.414   0.174   2.661  0.00  0.00    +0.091 A 
ATOM     13  C   UNL     1      14.675  -0.480   1.679  0.00  0.00    +0.124 A 
ATOM     14  C   UNL     1      14.945   3.759   1.557  0.00  0.00    +0.238 A 
ATOM     15  O   UNL     1      15.551   4.374   2.431  0.00  0.00    -0.283 OA
ATOM     16  C   UNL     1      14.039   0.233   0.669  0.00  0.00    +0.092 A 
ATOM     17  C   UNL     1      14.268   4.429   0.412  0.00  0.00    +0.208 A 
BRANCH  11  18
ATOM     18  O   UNL     1      16.238   2.155   3.625  0.00  0.00    -0.506 OA
ATOM     19  H   UNL     1      16.208   3.131   3.488  0.00  0.00    +0.292 HD
ENDBRANCH  11  18
BRANCH  13  20
ATOM     20  O   UNL     1      14.556  -1.838   1.664  0.00  0.00    -0.507 OA
ATOM     21  H   UNL     1      15.056  -2.204   2.412  0.00  0.00    +0.292 HD
ENDBRANCH  13  20
BRANCH  17  22
ATOM     22  O   UNL     1      14.334   5.808   0.337  0.00  0.00    -0.501 OA
ATOM     23  H   UNL     1      13.787   6.121  -0.404  0.00  0.00    +0.292 HD
ENDBRANCH  17  22
ENDBRANCH   3   7
BRANCH   6  24
ATOM     24  O   UNL     1      10.819   5.152  -5.088  0.00  0.00    -0.503 OA
ATOM     25  H   UNL     1       9.867   5.105  -4.889  0.00  0.00    +0.292 HD
ENDBRANCH   6  24
BRANCH   1  26
ATOM     26  O   UNL     1       9.417   4.609  -2.731  0.00  0.00    -0.422 OA
BRANCH  26  27
ATOM     27  C   UNL     1       8.798   5.155  -1.609  0.00  0.00    +0.312 C 
ATOM     28  O   UNL     1       9.277   5.987  -0.850  0.00  0.00    -0.250 OA
BRANCH  27  29
ATOM     29  C   UNL     1       7.441   4.516  -1.435  0.00  0.00    +0.121 C 
BRANCH  29  30
ATOM     30  C   UNL     1       6.339   5.554  -1.300  0.00  0.00    +0.011 C 
BRANCH  30  31
ATOM     31  C   UNL     1       6.183   6.382  -2.575  0.00  0.00    +0.001 C 
BRANCH  31  32
ATOM     32  C   UNL     1       5.066   7.409  -2.424  0.00  0.00    +0.000 C 
BRANCH  32  33
ATOM     33  C   UNL     1       4.925   8.253  -3.689  0.00  0.00    -0.000 C 
BRANCH  33  35
ATOM     34  C   UNL     1       3.659  10.124  -4.793  0.00  0.00    +0.004 C 
ATOM     35  C   UNL     1       3.809   9.283  -3.537  0.00  0.00    -0.003 C 
ENDBRANCH  33  35
ENDBRANCH  32  33
ENDBRANCH  31  32
ENDBRANCH  30  31
ENDBRANCH  29  30
ENDBRANCH  27  29
ENDBRANCH  26  27
ENDBRANCH   1  26
TORSDOF 13
