REMARK  Name = 
REMARK  17 active torsions:
REMARK  status: ('A' for Active; 'I' for Inactive)
REMARK    1  A    between atoms: C_1  and  C_2
REMARK    2  A    between atoms: C_4  and  O_53
REMARK    3  A    between atoms: C_6  and  O_52
REMARK    4  A    between atoms: C_8  and  O_51
REMARK    5  A    between atoms: C_10  and  O_13
REMARK    6  A    between atoms: O_13  and  C_14
REMARK    7  A    between atoms: C_16  and  O_50
REMARK    8  A    between atoms: C_21  and  C_42
REMARK    9  A    between atoms: C_22  and  O_25
REMARK   10  A    between atoms: O_25  and  C_26
REMARK   11  A    between atoms: C_28  and  O_41
REMARK   12  A    between atoms: C_30  and  O_40
REMARK   13  A    between atoms: C_32  and  O_39
REMARK   14  A    between atoms: C_34  and  C_37
REMARK   15  A    between atoms: C_37  and  O_38
REMARK   16  A    between atoms: C_44  and  O_49
REMARK   17  A    between atoms: C_45  and  O_48
REMARK                            x       y       z     vdW  Elec       q    Type
REMARK                         _______ _______ _______ _____ _____    ______ ____
ROOT
ATOM      1  C   UNL     1       0.425   1.912  -2.662  0.00  0.00    +0.131 A 
ATOM      2  C   UNL     1      -0.981   1.983  -2.692  0.00  0.00    +0.093 A 
ATOM      3  C   UNL     1      -1.632   3.226  -2.673  0.00  0.00    +0.147 A 
ATOM      4  O   UNL     1      -3.011   3.273  -2.683  0.00  0.00    -0.451 OA
ATOM      5  C   UNL     1      -3.624   4.489  -3.002  0.00  0.00    +0.181 A 
ATOM      6  C   UNL     1      -2.988   5.682  -3.046  0.00  0.00    +0.214 A 
ATOM      7  C   UNL     1      -1.610   5.648  -2.471  0.00  0.00    +0.238 A 
ATOM      8  O   UNL     1      -1.147   6.582  -1.829  0.00  0.00    -0.283 OA
ATOM      9  C   UNL     1      -0.877   4.390  -2.613  0.00  0.00    +0.109 A 
ATOM     10  C   UNL     1       0.515   4.331  -2.622  0.00  0.00    +0.135 A 
ATOM     11  C   UNL     1       1.164   3.099  -2.625  0.00  0.00    +0.092 A 
ENDROOT
BRANCH   5  12
ATOM     12  C   UNL     1      -5.088   4.384  -3.155  0.00  0.00    +0.025 A 
ATOM     13  C   UNL     1      -5.886   4.394  -1.993  0.00  0.00    +0.015 A 
ATOM     14  C   UNL     1      -7.278   4.286  -2.075  0.00  0.00    +0.050 A 
ATOM     15  C   UNL     1      -7.870   4.171  -3.319  0.00  0.00    +0.158 A 
ATOM     16  C   UNL     1      -7.091   4.164  -4.475  0.00  0.00    +0.159 A 
ATOM     17  C   UNL     1      -5.702   4.271  -4.408  0.00  0.00    +0.060 A 
BRANCH  15  18
ATOM     18  O   UNL     1      -9.229   4.060  -3.403  0.00  0.00    -0.503 OA
ATOM     19  H   UNL     1      -9.411   3.965  -4.359  0.00  0.00    +0.292 HD
ENDBRANCH  15  18
BRANCH  16  20
ATOM     20  O   UNL     1      -7.755   4.050  -5.670  0.00  0.00    -0.503 OA
ATOM     21  H   UNL     1      -7.088   4.047  -6.381  0.00  0.00    +0.292 HD
ENDBRANCH  16  20
ENDBRANCH   5  12
BRANCH  10  22
ATOM     22  O   UNL     1       1.256   5.477  -2.667  0.00  0.00    -0.506 OA
ATOM     23  H   UNL     1       2.201   5.282  -2.568  0.00  0.00    +0.292 HD
ENDBRANCH  10  22
BRANCH   6  24
ATOM     24  O   UNL     1      -3.587   6.869  -3.481  0.00  0.00    -0.453 OA
BRANCH  24  25
ATOM     25  C   UNL     1      -2.659   7.861  -3.980  0.00  0.00    +0.340 C 
ATOM     26  O   UNL     1      -3.240   9.174  -4.054  0.00  0.00    -0.331 OA
ATOM     27  C   UNL     1      -3.875   9.617  -5.254  0.00  0.00    +0.179 C 
ATOM     28  C   UNL     1      -3.154   9.196  -6.545  0.00  0.00    +0.177 C 
ATOM     29  C   UNL     1      -2.730   7.722  -6.536  0.00  0.00    +0.180 C 
ATOM     30  C   UNL     1      -1.926   7.414  -5.273  0.00  0.00    +0.214 C 
BRANCH  28  31
ATOM     31  O   UNL     1      -1.974  10.024  -6.658  0.00  0.00    -0.386 OA
ATOM     32  H   UNL     1      -1.471   9.723  -7.438  0.00  0.00    +0.210 HD
ENDBRANCH  28  31
BRANCH  29  33
ATOM     33  O   UNL     1      -3.814   6.814  -6.713  0.00  0.00    -0.386 OA
ATOM     34  H   UNL     1      -4.534   7.075  -6.093  0.00  0.00    +0.210 HD
ENDBRANCH  29  33
BRANCH  30  35
ATOM     35  O   UNL     1      -0.642   8.061  -5.373  0.00  0.00    -0.383 OA
ATOM     36  H   UNL     1      -0.805   9.024  -5.286  0.00  0.00    +0.210 HD
ENDBRANCH  30  35
BRANCH  27  37
ATOM     37  C   UNL     1      -5.382   9.333  -5.235  0.00  0.00    +0.190 C 
BRANCH  37  38
ATOM     38  O   UNL     1      -5.681   7.954  -5.409  0.00  0.00    -0.392 OA
ATOM     39  H   UNL     1      -6.616   7.844  -5.148  0.00  0.00    +0.210 HD
ENDBRANCH  37  38
ENDBRANCH  27  37
ENDBRANCH  24  25
ENDBRANCH   6  24
BRANCH   1  40
ATOM     40  O   UNL     1       0.971   0.648  -2.682  0.00  0.00    -0.461 OA
BRANCH  40  44
ATOM     41  C   UNL     1       1.257  -0.386   0.194  0.00  0.00    +0.041 C 
ATOM     42  C   UNL     1       2.666  -0.410  -0.388  0.00  0.00    +0.150 C 
ATOM     43  O   UNL     1       2.921   0.682  -1.291  0.00  0.00    -0.334 OA
ATOM     44  C   UNL     1       2.409   0.545  -2.624  0.00  0.00    +0.339 C 
ATOM     45  C   UNL     1       2.890  -0.763  -3.283  0.00  0.00    +0.214 C 
ATOM     46  C   UNL     1       2.537  -1.973  -2.417  0.00  0.00    +0.180 C 
ATOM     47  C   UNL     1       3.078  -1.766  -0.995  0.00  0.00    +0.174 C 
BRANCH  47  48
ATOM     48  O   UNL     1       4.517  -1.827  -1.044  0.00  0.00    -0.387 OA
ATOM     49  H   UNL     1       4.863  -0.920  -1.137  0.00  0.00    +0.210 HD
ENDBRANCH  47  48
BRANCH  46  50
ATOM     50  O   UNL     1       1.126  -2.224  -2.436  0.00  0.00    -0.386 OA
ATOM     51  H   UNL     1       0.649  -1.375  -2.387  0.00  0.00    +0.210 HD
ENDBRANCH  46  50
BRANCH  45  52
ATOM     52  O   UNL     1       2.361  -0.903  -4.606  0.00  0.00    -0.383 OA
ATOM     53  H   UNL     1       1.450  -1.239  -4.513  0.00  0.00    +0.210 HD
ENDBRANCH  45  52
ENDBRANCH  40  44
ENDBRANCH   1  40
TORSDOF 16
