REMARK  Name = 
REMARK  11 active torsions:
REMARK  status: ('A' for Active; 'I' for Inactive)
REMARK    1  A    between atoms: C_1  and  C_2
REMARK    2  A    between atoms: C_4  and  O_37
REMARK    3  A    between atoms: C_6  and  O_36
REMARK    4  A    between atoms: C_8  and  O_35
REMARK    5  A    between atoms: C_10  and  O_13
REMARK    6  A    between atoms: O_13  and  C_14
REMARK    7  A    between atoms: C_15  and  C_27
REMARK    8  A    between atoms: C_19  and  O_26
REMARK    9  A    between atoms: C_21  and  O_25
REMARK   10  A    between atoms: C_29  and  O_34
REMARK   11  A    between atoms: C_30  and  O_33
REMARK                            x       y       z     vdW  Elec       q    Type
REMARK                         _______ _______ _______ _____ _____    ______ ____
ROOT
ATOM      1  C   UNL     1       2.848   2.863  -3.331  0.00  0.00    +0.214 A 
ATOM      2  C   UNL     1       1.426   3.263  -3.116  0.00  0.00    +0.238 A 
ATOM      3  O   UNL     1       0.519   2.440  -3.181  0.00  0.00    -0.283 OA
ATOM      4  C   UNL     1       1.170   4.700  -2.919  0.00  0.00    +0.109 A 
ATOM      5  C   UNL     1       2.213   5.588  -3.187  0.00  0.00    +0.147 A 
ATOM      6  C   UNL     1       2.002   6.969  -3.093  0.00  0.00    +0.092 A 
ATOM      7  C   UNL     1       0.744   7.443  -2.735  0.00  0.00    +0.124 A 
ATOM      8  C   UNL     1      -0.299   6.572  -2.449  0.00  0.00    +0.091 A 
ATOM      9  O   UNL     1       3.470   5.184  -3.573  0.00  0.00    -0.451 OA
ATOM     10  C   UNL     1      -0.084   5.198  -2.533  0.00  0.00    +0.135 A 
ATOM     11  C   UNL     1       3.754   3.825  -3.607  0.00  0.00    +0.181 A 
ENDROOT
BRANCH  11  12
ATOM     12  C   UNL     1       5.169   3.504  -3.978  0.00  0.00    +0.025 A 
ATOM     13  C   UNL     1       6.231   4.334  -3.568  0.00  0.00    +0.015 A 
ATOM     14  C   UNL     1       7.564   4.016  -3.886  0.00  0.00    +0.050 A 
ATOM     15  C   UNL     1       7.841   2.865  -4.606  0.00  0.00    +0.158 A 
ATOM     16  C   UNL     1       6.810   2.045  -5.040  0.00  0.00    +0.159 A 
ATOM     17  C   UNL     1       5.488   2.372  -4.757  0.00  0.00    +0.060 A 
BRANCH  15  18
ATOM     18  O   UNL     1       9.136   2.532  -4.881  0.00  0.00    -0.503 OA
ATOM     19  H   UNL     1       9.072   1.678  -5.356  0.00  0.00    +0.292 HD
ENDBRANCH  15  18
BRANCH  16  20
ATOM     20  O   UNL     1       7.139   0.912  -5.734  0.00  0.00    -0.503 OA
ATOM     21  H   UNL     1       6.335   0.364  -5.809  0.00  0.00    +0.292 HD
ENDBRANCH  16  20
ENDBRANCH  11  12
BRANCH   7  22
ATOM     22  O   UNL     1       0.480   8.777  -2.648  0.00  0.00    -0.507 OA
ATOM     23  H   UNL     1       1.275   9.278  -2.897  0.00  0.00    +0.292 HD
ENDBRANCH   7  22
BRANCH  10  24
ATOM     24  O   UNL     1      -1.113   4.355  -2.221  0.00  0.00    -0.506 OA
ATOM     25  H   UNL     1      -1.929   4.861  -2.080  0.00  0.00    +0.292 HD
ENDBRANCH  10  24
BRANCH   1  26
ATOM     26  O   UNL     1       3.224   1.538  -3.327  0.00  0.00    -0.453 OA
BRANCH  26  30
ATOM     27  C   UNL     1       0.962   0.913   0.815  0.00  0.00    +0.041 C 
ATOM     28  C   UNL     1       1.404   0.208  -0.460  0.00  0.00    +0.150 C 
ATOM     29  O   UNL     1       2.213   1.123  -1.213  0.00  0.00    -0.334 OA
ATOM     30  C   UNL     1       2.492   0.614  -2.525  0.00  0.00    +0.339 C 
ATOM     31  C   UNL     1       3.379  -0.647  -2.420  0.00  0.00    +0.214 C 
ATOM     32  C   UNL     1       2.676  -1.678  -1.520  0.00  0.00    +0.180 C 
ATOM     33  C   UNL     1       2.245  -1.047  -0.180  0.00  0.00    +0.174 C 
BRANCH  31  34
ATOM     34  O   UNL     1       3.665  -1.180  -3.730  0.00  0.00    -0.383 OA
ATOM     35  H   UNL     1       2.921  -1.742  -3.997  0.00  0.00    +0.210 HD
ENDBRANCH  31  34
BRANCH  32  36
ATOM     36  O   UNL     1       3.520  -2.818  -1.333  0.00  0.00    -0.386 OA
ATOM     37  H   UNL     1       3.386  -3.151  -0.427  0.00  0.00    +0.210 HD
ENDBRANCH  32  36
BRANCH  33  38
ATOM     38  O   UNL     1       3.406  -0.709   0.590  0.00  0.00    -0.387 OA
ATOM     39  H   UNL     1       3.722   0.162   0.276  0.00  0.00    +0.210 HD
ENDBRANCH  33  38
ENDBRANCH  26  30
ENDBRANCH   1  26
TORSDOF 10
