REMARK  Name = 
REMARK  12 active torsions:
REMARK  status: ('A' for Active; 'I' for Inactive)
REMARK    1  A    between atoms: C_3  and  O_39
REMARK    2  A    between atoms: C_4  and  O_38
REMARK    3  A    between atoms: C_6  and  C_7
REMARK    4  A    between atoms: C_8  and  O_20
REMARK    5  A    between atoms: C_12  and  O_19
REMARK    6  A    between atoms: C_14  and  O_18
REMARK    7  A    between atoms: O_20  and  C_21
REMARK    8  A    between atoms: C_23  and  O_37
REMARK    9  A    between atoms: C_25  and  O_36
REMARK   10  A    between atoms: C_27  and  O_35
REMARK   11  A    between atoms: C_29  and  C_32
REMARK   12  A    between atoms: C_32  and  O_34
REMARK                            x       y       z     vdW  Elec       q    Type
REMARK                         _______ _______ _______ _____ _____    ______ ____
ROOT
ATOM      1  C   UNL     1      -1.429  -2.664   0.726  0.00  0.00    +0.181 A 
ATOM      2  O   UNL     1      -0.663  -3.809   0.888  0.00  0.00    -0.451 OA
ATOM      3  C   UNL     1      -1.193  -5.007   0.465  0.00  0.00    +0.147 A 
ATOM      4  C   UNL     1      -2.525  -5.141   0.086  0.00  0.00    +0.109 A 
ATOM      5  C   UNL     1      -3.025  -6.377  -0.346  0.00  0.00    +0.135 A 
ATOM      6  C   UNL     1      -2.194  -7.488  -0.398  0.00  0.00    +0.091 A 
ATOM      7  C   UNL     1      -0.865  -7.350  -0.011  0.00  0.00    +0.124 A 
ATOM      8  C   UNL     1      -3.383  -3.958   0.130  0.00  0.00    +0.238 A 
ATOM      9  O   UNL     1      -4.597  -4.091  -0.006  0.00  0.00    -0.283 OA
ATOM     10  C   UNL     1      -0.356  -6.123   0.418  0.00  0.00    +0.092 A 
ATOM     11  C   UNL     1      -2.720  -2.638   0.322  0.00  0.00    +0.214 A 
ENDROOT
BRANCH   1  13
ATOM     12  C   UNL     1      -0.992  -0.548   2.026  0.00  0.00    +0.015 A 
ATOM     13  C   UNL     1      -0.700  -1.398   0.938  0.00  0.00    +0.025 A 
ATOM     14  C   UNL     1       0.180  -0.946  -0.053  0.00  0.00    +0.060 A 
ATOM     15  C   UNL     1       0.637   0.367  -0.012  0.00  0.00    +0.159 A 
ATOM     16  C   UNL     1       0.260   1.233   1.010  0.00  0.00    +0.158 A 
ATOM     17  C   UNL     1      -0.527   0.773   2.056  0.00  0.00    +0.050 A 
BRANCH  15  18
ATOM     18  O   UNL     1       1.422   0.822  -1.035  0.00  0.00    -0.503 OA
ATOM     19  H   UNL     1       1.584   1.762  -0.820  0.00  0.00    +0.292 HD
ENDBRANCH  15  18
BRANCH  16  20
ATOM     20  O   UNL     1       0.648   2.541   0.909  0.00  0.00    -0.503 OA
ATOM     21  H   UNL     1       0.105   3.065   1.524  0.00  0.00    +0.292 HD
ENDBRANCH  16  20
ENDBRANCH   1  13
BRANCH   5  22
ATOM     22  O   UNL     1      -4.321  -6.562  -0.746  0.00  0.00    -0.506 OA
ATOM     23  H   UNL     1      -4.811  -5.722  -0.607  0.00  0.00    +0.292 HD
ENDBRANCH   5  22
BRANCH   7  24
ATOM     24  O   UNL     1      -0.011  -8.417  -0.041  0.00  0.00    -0.507 OA
ATOM     25  H   UNL     1      -0.508  -9.207  -0.338  0.00  0.00    +0.292 HD
ENDBRANCH   7  24
BRANCH  11  26
ATOM     26  O   UNL     1      -3.373  -1.449   0.048  0.00  0.00    -0.453 OA
BRANCH  26  27
ATOM     27  C   UNL     1      -4.800  -1.359   0.197  0.00  0.00    +0.340 C 
ATOM     28  O   UNL     1      -5.139  -0.083  -0.378  0.00  0.00    -0.322 OA
ATOM     29  C   UNL     1      -6.264   0.632   0.187  0.00  0.00    +0.261 C 
ATOM     30  C   UNL     1      -6.191   0.818   1.718  0.00  0.00    +0.185 C 
ATOM     31  C   UNL     1      -5.047  -0.028   2.296  0.00  0.00    +0.180 C 
ATOM     32  C   UNL     1      -5.156  -1.443   1.697  0.00  0.00    +0.214 C 
BRANCH  29  33
ATOM     33  C   UNL     1      -6.185   2.009  -0.469  0.00  0.00    +0.337 C 
ATOM     34  O   UNL     1      -6.935   2.948  -0.244  0.00  0.00    -0.248 OA
BRANCH  33  35
ATOM     35  O   UNL     1      -5.155   2.110  -1.362  0.00  0.00    -0.479 OA
ATOM     36  H   UNL     1      -4.698   1.239  -1.392  0.00  0.00    +0.295 HD
ENDBRANCH  33  35
ENDBRANCH  29  33
BRANCH  30  37
ATOM     37  O   UNL     1      -7.440   0.435   2.316  0.00  0.00    -0.386 OA
ATOM     38  H   UNL     1      -7.406  -0.530   2.492  0.00  0.00    +0.210 HD
ENDBRANCH  30  37
BRANCH  31  39
ATOM     39  O   UNL     1      -3.784   0.593   2.053  0.00  0.00    -0.386 OA
ATOM     40  H   UNL     1      -3.515   0.458   1.121  0.00  0.00    +0.210 HD
ENDBRANCH  31  39
BRANCH  32  41
ATOM     41  O   UNL     1      -6.495  -1.930   1.905  0.00  0.00    -0.383 OA
ATOM     42  H   UNL     1      -6.738  -2.523   1.168  0.00  0.00    +0.210 HD
ENDBRANCH  32  41
ENDBRANCH  26  27
ENDBRANCH  11  26
TORSDOF 12
