REMARK  Name = 
REMARK  16 active torsions:
REMARK  status: ('A' for Active; 'I' for Inactive)
REMARK    1  A    between atoms: C_2  and  O_51
REMARK    2  A    between atoms: C_4  and  O_50
REMARK    3  A    between atoms: C_6  and  O_49
REMARK    4  A    between atoms: C_8  and  O_11
REMARK    5  A    between atoms: O_11  and  C_12
REMARK    6  A    between atoms: C_14  and  O_48
REMARK    7  A    between atoms: C_16  and  O_47
REMARK    8  A    between atoms: C_18  and  C_45
REMARK    9  A    between atoms: C_21  and  O_23
REMARK   10  A    between atoms: O_23  and  C_24
REMARK   11  A    between atoms: C_25  and  C_37
REMARK   12  A    between atoms: C_29  and  O_36
REMARK   13  A    between atoms: C_31  and  O_35
REMARK   14  A    between atoms: C_39  and  O_44
REMARK   15  A    between atoms: C_40  and  O_43
REMARK   16  A    between atoms: C_45  and  O_46
REMARK                            x       y       z     vdW  Elec       q    Type
REMARK                         _______ _______ _______ _____ _____    ______ ____
ROOT
ATOM      1  C   UNL     1       2.416  -2.465  -0.365  0.00  0.00    +0.221 C 
ATOM      2  C   UNL     1       2.959  -1.733  -1.636  0.00  0.00    +0.340 C 
ATOM      3  O   UNL     1       2.080  -2.120  -2.718  0.00  0.00    -0.331 OA
ATOM      4  C   UNL     1       2.217  -3.524  -3.054  0.00  0.00    +0.179 C 
ATOM      5  C   UNL     1       1.780  -4.422  -1.885  0.00  0.00    +0.177 C 
ATOM      6  C   UNL     1       2.536  -3.990  -0.630  0.00  0.00    +0.180 C 
ENDROOT
BRANCH   6   7
ATOM      7  O   UNL     1       2.162  -4.747   0.520  0.00  0.00    -0.386 OA
ATOM      8  H   UNL     1       2.730  -4.413   1.241  0.00  0.00    +0.210 HD
ENDBRANCH   6   7
BRANCH   5   9
ATOM      9  O   UNL     1       0.367  -4.384  -1.678  0.00  0.00    -0.386 OA
ATOM     10  H   UNL     1       0.091  -3.471  -1.521  0.00  0.00    +0.210 HD
ENDBRANCH   5   9
BRANCH   4  11
ATOM     11  C   UNL     1       1.363  -3.869  -4.284  0.00  0.00    +0.190 C 
BRANCH  11  12
ATOM     12  O   UNL     1       1.780  -3.177  -5.458  0.00  0.00    -0.392 OA
ATOM     13  H   UNL     1       2.604  -2.693  -5.257  0.00  0.00    +0.210 HD
ENDBRANCH  11  12
ENDBRANCH   4  11
BRANCH   2  14
ATOM     14  O   UNL     1       2.981  -0.304  -1.424  0.00  0.00    -0.453 OA
BRANCH  14  15
ATOM     15  C   UNL     1       3.718   0.522  -2.280  0.00  0.00    +0.214 A 
ATOM     16  C   UNL     1       4.085   0.098  -3.686  0.00  0.00    +0.238 A 
ATOM     17  O   UNL     1       4.254  -1.084  -3.989  0.00  0.00    -0.283 OA
ATOM     18  C   UNL     1       4.342   1.176  -4.663  0.00  0.00    +0.109 A 
ATOM     19  C   UNL     1       4.734   2.399  -4.138  0.00  0.00    +0.147 A 
ATOM     20  C   UNL     1       5.028   3.491  -4.963  0.00  0.00    +0.092 A 
ATOM     21  C   UNL     1       4.907   3.343  -6.340  0.00  0.00    +0.124 A 
ATOM     22  C   UNL     1       4.528   2.126  -6.891  0.00  0.00    +0.091 A 
ATOM     23  O   UNL     1       4.878   2.579  -2.796  0.00  0.00    -0.451 OA
ATOM     24  C   UNL     1       4.241   1.043  -6.051  0.00  0.00    +0.135 A 
ATOM     25  C   UNL     1       4.185   1.748  -1.911  0.00  0.00    +0.181 A 
BRANCH  25  26
ATOM     26  C   UNL     1       4.138   2.398  -0.553  0.00  0.00    +0.025 A 
ATOM     27  C   UNL     1       4.812   3.637  -0.363  0.00  0.00    +0.015 A 
ATOM     28  C   UNL     1       4.871   4.281   0.877  0.00  0.00    +0.050 A 
ATOM     29  C   UNL     1       4.249   3.691   1.956  0.00  0.00    +0.158 A 
ATOM     30  C   UNL     1       3.568   2.491   1.806  0.00  0.00    +0.159 A 
ATOM     31  C   UNL     1       3.490   1.855   0.566  0.00  0.00    +0.060 A 
BRANCH  29  32
ATOM     32  O   UNL     1       4.325   4.289   3.180  0.00  0.00    -0.503 OA
ATOM     33  H   UNL     1       3.821   3.698   3.778  0.00  0.00    +0.292 HD
ENDBRANCH  29  32
BRANCH  30  34
ATOM     34  O   UNL     1       2.995   1.949   2.927  0.00  0.00    -0.503 OA
ATOM     35  H   UNL     1       2.848   0.995   2.755  0.00  0.00    +0.292 HD
ENDBRANCH  30  34
ENDBRANCH  25  26
BRANCH  24  36
ATOM     36  O   UNL     1       3.834  -0.135  -6.606  0.00  0.00    -0.506 OA
ATOM     37  H   UNL     1       3.701  -0.019  -7.561  0.00  0.00    +0.292 HD
ENDBRANCH  24  36
BRANCH  21  38
ATOM     38  O   UNL     1       5.141   4.378  -7.184  0.00  0.00    -0.507 OA
ATOM     39  H   UNL     1       5.243   5.207  -6.682  0.00  0.00    +0.292 HD
ENDBRANCH  21  38
ENDBRANCH  14  15
ENDBRANCH   2  14
BRANCH   1  40
ATOM     40  O   UNL     1       2.965  -2.104   0.920  0.00  0.00    -0.337 OA
BRANCH  40  43
ATOM     41  C   UNL     1       6.193  -3.611   0.574  0.00  0.00    +0.197 C 
ATOM     42  O   UNL     1       4.793  -3.527   0.744  0.00  0.00    -0.346 OA
ATOM     43  C   UNL     1       4.371  -2.210   1.043  0.00  0.00    +0.282 C 
ATOM     44  C   UNL     1       4.835  -1.896   2.479  0.00  0.00    +0.201 C 
ATOM     45  C   UNL     1       6.376  -1.952   2.451  0.00  0.00    +0.178 C 
ATOM     46  C   UNL     1       6.900  -3.292   1.887  0.00  0.00    +0.171 C 
BRANCH  46  47
ATOM     47  O   UNL     1       8.306  -3.208   1.654  0.00  0.00    -0.387 OA
ATOM     48  H   UNL     1       8.589  -4.060   1.272  0.00  0.00    +0.210 HD
ENDBRANCH  46  47
BRANCH  45  49
ATOM     49  O   UNL     1       6.888  -1.696   3.761  0.00  0.00    -0.386 OA
ATOM     50  H   UNL     1       7.837  -1.494   3.644  0.00  0.00    +0.210 HD
ENDBRANCH  45  49
BRANCH  44  51
ATOM     51  O   UNL     1       4.367  -0.600   2.885  0.00  0.00    -0.384 OA
ATOM     52  H   UNL     1       5.124  -0.148   3.306  0.00  0.00    +0.210 HD
ENDBRANCH  44  51
ENDBRANCH  40  43
ENDBRANCH   1  40
TORSDOF 16
