REMARK  Name = 
REMARK  17 active torsions:
REMARK  status: ('A' for Active; 'I' for Inactive)
REMARK    1  A    between atoms: C_1  and  C_2
REMARK    2  A    between atoms: C_4  and  O_53
REMARK    3  A    between atoms: C_6  and  O_52
REMARK    4  A    between atoms: C_8  and  O_51
REMARK    5  A    between atoms: C_10  and  O_13
REMARK    6  A    between atoms: O_13  and  C_14
REMARK    7  A    between atoms: C_14  and  C_15
REMARK    8  A    between atoms: C_17  and  O_50
REMARK    9  A    between atoms: C_19  and  O_49
REMARK   10  A    between atoms: C_21  and  O_48
REMARK   11  A    between atoms: C_23  and  O_26
REMARK   12  A    between atoms: O_26  and  C_27
REMARK   13  A    between atoms: C_28  and  C_40
REMARK   14  A    between atoms: C_32  and  O_39
REMARK   15  A    between atoms: C_34  and  O_38
REMARK   16  A    between atoms: C_42  and  O_47
REMARK   17  A    between atoms: C_43  and  O_46
REMARK                            x       y       z     vdW  Elec       q    Type
REMARK                         _______ _______ _______ _____ _____    ______ ____
ROOT
ATOM      1  C   UNL     1       3.261   4.433  -4.399  0.00  0.00    +0.179 C 
ATOM      2  O   UNL     1       3.792   5.658  -3.866  0.00  0.00    -0.331 OA
ATOM      3  C   UNL     1       2.838   6.297  -3.014  0.00  0.00    +0.340 C 
ATOM      4  C   UNL     1       1.727   6.867  -3.931  0.00  0.00    +0.214 C 
ATOM      5  C   UNL     1       1.111   5.643  -4.678  0.00  0.00    +0.180 C 
ATOM      6  C   UNL     1       2.173   4.795  -5.410  0.00  0.00    +0.177 C 
ENDROOT
BRANCH   6   7
ATOM      7  O   UNL     1       1.530   3.628  -5.942  0.00  0.00    -0.386 OA
ATOM      8  H   UNL     1       2.169   3.219  -6.556  0.00  0.00    +0.210 HD
ENDBRANCH   6   7
BRANCH   5   9
ATOM      9  O   UNL     1       0.087   6.026  -5.604  0.00  0.00    -0.386 OA
ATOM     10  H   UNL     1      -0.122   5.211  -6.104  0.00  0.00    +0.210 HD
ENDBRANCH   5   9
BRANCH   4  11
ATOM     11  O   UNL     1       0.732   7.548  -3.151  0.00  0.00    -0.383 OA
ATOM     12  H   UNL     1      -0.032   6.954  -3.053  0.00  0.00    +0.210 HD
ENDBRANCH   4  11
BRANCH   3  13
ATOM     13  O   UNL     1       3.505   7.239  -2.134  0.00  0.00    -0.453 OA
BRANCH  13  14
ATOM     14  C   UNL     1       3.981   6.649  -0.937  0.00  0.00    +0.214 A 
ATOM     15  C   UNL     1       4.056   5.148  -0.808  0.00  0.00    +0.238 A 
ATOM     16  O   UNL     1       4.257   4.391  -1.744  0.00  0.00    -0.283 OA
ATOM     17  C   UNL     1       4.013   4.563   0.516  0.00  0.00    +0.109 A 
ATOM     18  C   UNL     1       4.498   5.352   1.538  0.00  0.00    +0.147 A 
ATOM     19  C   UNL     1       4.672   4.796   2.803  0.00  0.00    +0.092 A 
ATOM     20  C   UNL     1       4.376   3.445   3.000  0.00  0.00    +0.124 A 
ATOM     21  C   UNL     1       3.875   2.651   1.976  0.00  0.00    +0.091 A 
ATOM     22  O   UNL     1       4.842   6.661   1.327  0.00  0.00    -0.451 OA
ATOM     23  C   UNL     1       3.678   3.217   0.726  0.00  0.00    +0.135 A 
ATOM     24  C   UNL     1       4.504   7.321   0.124  0.00  0.00    +0.181 A 
BRANCH  24  25
ATOM     25  C   UNL     1       4.929   8.776   0.200  0.00  0.00    +0.025 A 
ATOM     26  C   UNL     1       5.643   9.209   1.353  0.00  0.00    +0.015 A 
ATOM     27  C   UNL     1       6.290  10.449   1.425  0.00  0.00    +0.050 A 
ATOM     28  C   UNL     1       6.211  11.305   0.352  0.00  0.00    +0.158 A 
ATOM     29  C   UNL     1       5.420  10.976  -0.742  0.00  0.00    +0.159 A 
ATOM     30  C   UNL     1       4.789   9.720  -0.833  0.00  0.00    +0.060 A 
BRANCH  29  31
ATOM     31  O   UNL     1       5.303  11.915  -1.728  0.00  0.00    -0.503 OA
ATOM     32  H   UNL     1       4.442  11.774  -2.160  0.00  0.00    +0.292 HD
ENDBRANCH  29  31
BRANCH  28  33
ATOM     33  O   UNL     1       6.920  12.470   0.372  0.00  0.00    -0.503 OA
ATOM     34  H   UNL     1       6.829  12.832  -0.532  0.00  0.00    +0.292 HD
ENDBRANCH  28  33
ENDBRANCH  24  25
BRANCH  23  35
ATOM     35  O   UNL     1       3.143   2.454  -0.274  0.00  0.00    -0.506 OA
ATOM     36  H   UNL     1       3.231   1.514  -0.045  0.00  0.00    +0.292 HD
ENDBRANCH  23  35
BRANCH  20  37
ATOM     37  O   UNL     1       4.566   2.834   4.203  0.00  0.00    -0.507 OA
ATOM     38  H   UNL     1       4.933   3.475   4.841  0.00  0.00    +0.292 HD
ENDBRANCH  20  37
ENDBRANCH  13  14
ENDBRANCH   3  13
BRANCH   1  39
ATOM     39  C   UNL     1       4.405   3.594  -4.967  0.00  0.00    +0.197 C 
BRANCH  39  40
ATOM     40  O   UNL     1       4.960   4.268  -6.088  0.00  0.00    -0.346 OA
BRANCH  40  44
ATOM     41  C   UNL     1       8.183   1.356  -6.586  0.00  0.00    +0.041 C 
ATOM     42  C   UNL     1       8.317   2.821  -6.184  0.00  0.00    +0.149 C 
ATOM     43  O   UNL     1       7.088   3.367  -5.694  0.00  0.00    -0.343 OA
ATOM     44  C   UNL     1       6.070   3.579  -6.669  0.00  0.00    +0.282 C 
ATOM     45  C   UNL     1       6.537   4.468  -7.842  0.00  0.00    +0.201 C 
ATOM     46  C   UNL     1       7.900   4.034  -8.389  0.00  0.00    +0.179 C 
ATOM     47  C   UNL     1       8.895   3.754  -7.257  0.00  0.00    +0.174 C 
BRANCH  47  48
ATOM     48  O   UNL     1       9.225   5.004  -6.625  0.00  0.00    -0.387 OA
ATOM     49  H   UNL     1       8.576   5.156  -5.907  0.00  0.00    +0.210 HD
ENDBRANCH  47  48
BRANCH  46  50
ATOM     50  O   UNL     1       7.760   2.915  -9.277  0.00  0.00    -0.386 OA
ATOM     51  H   UNL     1       7.045   2.334  -8.966  0.00  0.00    +0.210 HD
ENDBRANCH  46  50
BRANCH  45  52
ATOM     52  O   UNL     1       5.552   4.446  -8.894  0.00  0.00    -0.384 OA
ATOM     53  H   UNL     1       5.989   4.123  -9.703  0.00  0.00    +0.210 HD
ENDBRANCH  45  52
ENDBRANCH  40  44
ENDBRANCH  39  40
ENDBRANCH   1  39
TORSDOF 16
