REMARK  Name = 
REMARK  11 active torsions:
REMARK  status: ('A' for Active; 'I' for Inactive)
REMARK    1  A    between atoms: C_1  and  C_2
REMARK    2  A    between atoms: C_4  and  O_37
REMARK    3  A    between atoms: C_6  and  O_36
REMARK    4  A    between atoms: C_8  and  O_35
REMARK    5  A    between atoms: C_10  and  O_13
REMARK    6  A    between atoms: O_13  and  C_14
REMARK    7  A    between atoms: C_15  and  C_27
REMARK    8  A    between atoms: C_19  and  O_26
REMARK    9  A    between atoms: C_21  and  O_25
REMARK   10  A    between atoms: C_29  and  O_34
REMARK   11  A    between atoms: C_30  and  O_33
REMARK                            x       y       z     vdW  Elec       q    Type
REMARK                         _______ _______ _______ _____ _____    ______ ____
ROOT
ATOM      1  C   UNL     1       2.818   2.907  -3.340  0.00  0.00    +0.214 A 
ATOM      2  C   UNL     1       1.410   3.343  -3.103  0.00  0.00    +0.238 A 
ATOM      3  O   UNL     1       0.476   2.555  -3.167  0.00  0.00    -0.283 OA
ATOM      4  C   UNL     1       1.176   4.777  -2.890  0.00  0.00    +0.109 A 
ATOM      5  C   UNL     1       2.228   5.651  -3.159  0.00  0.00    +0.147 A 
ATOM      6  C   UNL     1       2.023   7.032  -3.076  0.00  0.00    +0.092 A 
ATOM      7  C   UNL     1       0.765   7.518  -2.722  0.00  0.00    +0.124 A 
ATOM      8  C   UNL     1      -0.283   6.656  -2.425  0.00  0.00    +0.091 A 
ATOM      9  O   UNL     1       3.481   5.227  -3.534  0.00  0.00    -0.451 OA
ATOM     10  C   UNL     1      -0.075   5.282  -2.502  0.00  0.00    +0.135 A 
ATOM     11  C   UNL     1       3.743   3.860  -3.591  0.00  0.00    +0.181 A 
ENDROOT
BRANCH  11  12
ATOM     12  C   UNL     1       5.156   3.534  -3.963  0.00  0.00    +0.025 A 
ATOM     13  C   UNL     1       6.223   4.350  -3.537  0.00  0.00    +0.015 A 
ATOM     14  C   UNL     1       7.556   4.033  -3.849  0.00  0.00    +0.050 A 
ATOM     15  C   UNL     1       7.831   2.888  -4.579  0.00  0.00    +0.158 A 
ATOM     16  C   UNL     1       6.799   2.080  -5.031  0.00  0.00    +0.159 A 
ATOM     17  C   UNL     1       5.474   2.411  -4.756  0.00  0.00    +0.060 A 
BRANCH  15  18
ATOM     18  O   UNL     1       9.126   2.554  -4.850  0.00  0.00    -0.503 OA
ATOM     19  H   UNL     1       9.064   1.711  -5.343  0.00  0.00    +0.292 HD
ENDBRANCH  15  18
BRANCH  16  20
ATOM     20  O   UNL     1       7.128   0.955  -5.737  0.00  0.00    -0.503 OA
ATOM     21  H   UNL     1       6.309   0.456  -5.910  0.00  0.00    +0.292 HD
ENDBRANCH  16  20
ENDBRANCH  11  12
BRANCH   7  22
ATOM     22  O   UNL     1       0.504   8.854  -2.651  0.00  0.00    -0.507 OA
ATOM     23  H   UNL     1       1.296   9.351  -2.911  0.00  0.00    +0.292 HD
ENDBRANCH   7  22
BRANCH  10  24
ATOM     24  O   UNL     1      -1.105   4.444  -2.177  0.00  0.00    -0.506 OA
ATOM     25  H   UNL     1      -1.925   4.950  -2.056  0.00  0.00    +0.292 HD
ENDBRANCH  10  24
BRANCH   1  26
ATOM     26  O   UNL     1       3.148   1.565  -3.414  0.00  0.00    -0.453 OA
BRANCH  26  30
ATOM     27  C   UNL     1       0.458   0.210  -0.276  0.00  0.00    +0.041 C 
ATOM     28  C   UNL     1       1.958  -0.052  -0.355  0.00  0.00    +0.150 C 
ATOM     29  O   UNL     1       2.626   0.866  -1.233  0.00  0.00    -0.334 OA
ATOM     30  C   UNL     1       2.410   0.630  -2.627  0.00  0.00    +0.339 C 
ATOM     31  C   UNL     1       2.892  -0.772  -3.048  0.00  0.00    +0.214 C 
ATOM     32  C   UNL     1       2.213  -1.841  -2.183  0.00  0.00    +0.180 C 
ATOM     33  C   UNL     1       2.356  -1.502  -0.692  0.00  0.00    +0.174 C 
BRANCH  31  34
ATOM     34  O   UNL     1       2.623  -1.024  -4.439  0.00  0.00    -0.383 OA
ATOM     35  H   UNL     1       1.698  -1.329  -4.501  0.00  0.00    +0.210 HD
ENDBRANCH  31  34
BRANCH  32  36
ATOM     36  O   UNL     1       0.847  -2.036  -2.582  0.00  0.00    -0.386 OA
ATOM     37  H   UNL     1       0.363  -1.194  -2.600  0.00  0.00    +0.210 HD
ENDBRANCH  32  36
BRANCH  33  38
ATOM     38  O   UNL     1       3.740  -1.674  -0.328  0.00  0.00    -0.387 OA
ATOM     39  H   UNL     1       4.204  -0.832  -0.503  0.00  0.00    +0.210 HD
ENDBRANCH  33  38
ENDBRANCH  26  30
ENDBRANCH   1  26
TORSDOF 10
