REMARK  Name = 
REMARK  10 active torsions:
REMARK  status: ('A' for Active; 'I' for Inactive)
REMARK    1  A    between atoms: C_3  and  O_26
REMARK    2  A    between atoms: C_4  and  O_25
REMARK    3  A    between atoms: C_6  and  C_7
REMARK    4  A    between atoms: C_8  and  O_20
REMARK    5  A    between atoms: C_12  and  O_19
REMARK    6  A    between atoms: C_14  and  O_18
REMARK    7  A    between atoms: O_20  and  S_21
REMARK    8  A    between atoms: S_21  and  O_24
REMARK    9  A    between atoms: O_26  and  S_27
REMARK   10  A    between atoms: S_27  and  O_30
REMARK                            x       y       z     vdW  Elec       q    Type
REMARK                         _______ _______ _______ _____ _____    ______ ____
ROOT
ATOM      1  C   UNL     1      -1.332  -2.493  -0.123  0.00  0.00    +0.184 A 
ATOM      2  O   UNL     1      -0.637  -3.669   0.137  0.00  0.00    -0.451 OA
ATOM      3  C   UNL     1      -1.236  -4.874  -0.110  0.00  0.00    +0.147 A 
ATOM      4  C   UNL     1      -2.571  -4.981  -0.467  0.00  0.00    +0.109 A 
ATOM      5  C   UNL     1      -3.140  -6.248  -0.654  0.00  0.00    +0.135 A 
ATOM      6  C   UNL     1      -2.370  -7.399  -0.496  0.00  0.00    +0.091 A 
ATOM      7  C   UNL     1      -1.026  -7.275  -0.162  0.00  0.00    +0.124 A 
ATOM      8  C   UNL     1      -3.340  -3.743  -0.657  0.00  0.00    +0.241 A 
ATOM      9  O   UNL     1      -4.533  -3.800  -0.939  0.00  0.00    -0.283 OA
ATOM     10  C   UNL     1      -0.452  -6.021   0.029  0.00  0.00    +0.092 A 
ATOM     11  C   UNL     1      -2.620  -2.447  -0.525  0.00  0.00    +0.248 A 
ENDROOT
BRANCH   1  13
ATOM     12  C   UNL     1       0.329  -0.920  -1.080  0.00  0.00    +0.015 A 
ATOM     13  C   UNL     1      -0.425  -1.344   0.021  0.00  0.00    +0.025 A 
ATOM     14  C   UNL     1      -0.149  -0.808   1.287  0.00  0.00    +0.061 A 
ATOM     15  C   UNL     1       0.920   0.071   1.445  0.00  0.00    +0.162 A 
ATOM     16  C   UNL     1       1.746   0.401   0.368  0.00  0.00    +0.200 A 
ATOM     17  C   UNL     1       1.412  -0.052  -0.908  0.00  0.00    +0.053 A 
BRANCH  15  18
ATOM     18  O   UNL     1       1.162   0.564   2.698  0.00  0.00    -0.503 OA
ATOM     19  H   UNL     1       1.806   1.288   2.602  0.00  0.00    +0.292 HD
ENDBRANCH  15  18
BRANCH  16  20
ATOM     20  O   UNL     1       2.864   1.152   0.640  0.00  0.00    -0.321 OA
BRANCH  20  21
ATOM     21  S   UNL     1       4.260   0.854  -0.153  0.00  0.00    +0.251 S 
ATOM     22  O   UNL     1       4.230   1.517  -1.439  0.00  0.00    -0.108 OA
ATOM     23  O   UNL     1       4.605  -0.546  -0.029  0.00  0.00    -0.108 OA
BRANCH  21  24
ATOM     24  O   UNL     1       5.359   1.615   0.748  0.00  0.00    -0.222 OA
ATOM     25  H   UNL     1       5.919   0.923   1.159  0.00  0.00    +0.248 HD
ENDBRANCH  21  24
ENDBRANCH  20  21
ENDBRANCH  16  20
ENDBRANCH   1  13
BRANCH   5  26
ATOM     26  O   UNL     1      -4.453  -6.436  -0.999  0.00  0.00    -0.506 OA
ATOM     27  H   UNL     1      -4.878  -5.555  -1.078  0.00  0.00    +0.292 HD
ENDBRANCH   5  26
BRANCH   7  28
ATOM     28  O   UNL     1      -0.232  -8.372  -0.008  0.00  0.00    -0.507 OA
ATOM     29  H   UNL     1      -0.766  -9.173  -0.150  0.00  0.00    +0.292 HD
ENDBRANCH   7  28
BRANCH  11  30
ATOM     30  O   UNL     1      -3.320  -1.344  -0.963  0.00  0.00    -0.317 OA
BRANCH  30  31
ATOM     31  S   UNL     1      -3.556  -0.010  -0.074  0.00  0.00    +0.252 S 
ATOM     32  O   UNL     1      -2.637   1.014  -0.517  0.00  0.00    -0.108 OA
ATOM     33  O   UNL     1      -3.684  -0.365   1.322  0.00  0.00    -0.108 OA
BRANCH  31  34
ATOM     34  O   UNL     1      -5.031   0.470  -0.516  0.00  0.00    -0.222 OA
ATOM     35  H   UNL     1      -5.566   0.566   0.297  0.00  0.00    +0.248 HD
ENDBRANCH  31  34
ENDBRANCH  30  31
ENDBRANCH  11  30
TORSDOF 10
