REMARK  Name = 
REMARK  8 active torsions:
REMARK  status: ('A' for Active; 'I' for Inactive)
REMARK    1  A    between atoms: C_1  and  O_2
REMARK    2  A    between atoms: O_2  and  C_3
REMARK    3  A    between atoms: C_5  and  O_24
REMARK    4  A    between atoms: C_10  and  C_16
REMARK    5  A    between atoms: C_11  and  O_14
REMARK    6  A    between atoms: O_14  and  C_15
REMARK    7  A    between atoms: C_18  and  O_23
REMARK    8  A    between atoms: C_19  and  O_22
REMARK                            x       y       z     vdW  Elec       q    Type
REMARK                         _______ _______ _______ _____ _____    ______ ____
ROOT
ATOM      1  C   UNL     1       2.946   0.775   0.943  0.00  0.00    +0.127 A 
ATOM      2  C   UNL     1       2.820   2.147   1.149  0.00  0.00    +0.092 A 
ATOM      3  C   UNL     1       3.442   2.749   2.249  0.00  0.00    +0.147 A 
ATOM      4  O   UNL     1       3.262   4.101   2.366  0.00  0.00    -0.451 OA
ATOM      5  C   UNL     1       3.865   4.758   3.416  0.00  0.00    +0.181 A 
ATOM      6  C   UNL     1       4.598   4.185   4.389  0.00  0.00    +0.211 A 
ATOM      7  C   UNL     1       4.784   2.694   4.315  0.00  0.00    +0.238 A 
ATOM      8  O   UNL     1       5.381   2.071   5.184  0.00  0.00    -0.283 OA
ATOM      9  C   UNL     1       4.192   1.997   3.148  0.00  0.00    +0.109 A 
ATOM     10  C   UNL     1       4.342   0.621   2.915  0.00  0.00    +0.135 A 
ATOM     11  C   UNL     1       3.728   0.018   1.814  0.00  0.00    +0.092 A 
ENDROOT
BRANCH   5  12
ATOM     12  C   UNL     1       3.628   6.212   3.377  0.00  0.00    +0.025 A 
ATOM     13  C   UNL     1       4.515   7.049   2.679  0.00  0.00    +0.015 A 
ATOM     14  C   UNL     1       4.296   8.427   2.625  0.00  0.00    +0.050 A 
ATOM     15  C   UNL     1       3.190   8.961   3.266  0.00  0.00    +0.158 A 
ATOM     16  C   UNL     1       2.303   8.142   3.962  0.00  0.00    +0.159 A 
ATOM     17  C   UNL     1       2.512   6.768   4.024  0.00  0.00    +0.060 A 
BRANCH  15  18
ATOM     18  O   UNL     1       2.973  10.309   3.210  0.00  0.00    -0.503 OA
ATOM     19  H   UNL     1       2.154  10.447   3.726  0.00  0.00    +0.292 HD
ENDBRANCH  15  18
BRANCH  16  20
ATOM     20  O   UNL     1       1.233   8.741   4.570  0.00  0.00    -0.503 OA
ATOM     21  H   UNL     1       0.724   8.054   5.033  0.00  0.00    +0.292 HD
ENDBRANCH  16  20
ENDBRANCH   5  12
BRANCH   1  23
ATOM     22  C   UNL     1       1.147   0.601  -0.571  0.00  0.00    +0.277 C 
ATOM     23  O   UNL     1       2.387   0.085  -0.096  0.00  0.00    -0.495 OA
ENDBRANCH   1  23
BRANCH   6  24
ATOM     24  O   UNL     1       5.131   4.980   5.397  0.00  0.00    -0.488 OA
ATOM     25  C   UNL     1       5.900   4.356   6.416  0.00  0.00    +0.277 C 
ENDBRANCH   6  24
BRANCH  10  26
ATOM     26  O   UNL     1       5.089  -0.160   3.750  0.00  0.00    -0.506 OA
ATOM     27  H   UNL     1       5.079  -1.084   3.454  0.00  0.00    +0.292 HD
ENDBRANCH  10  26
TORSDOF 6
