REMARK  Name = 
REMARK  12 active torsions:
REMARK  status: ('A' for Active; 'I' for Inactive)
REMARK    1  A    between atoms: C_3  and  O_34
REMARK    2  A    between atoms: C_4  and  O_29
REMARK    3  A    between atoms: C_6  and  C_7
REMARK    4  A    between atoms: C_8  and  O_24
REMARK    5  A    between atoms: C_12  and  O_23
REMARK    6  A    between atoms: C_14  and  O_18
REMARK    7  A    between atoms: O_18  and  S_19
REMARK    8  A    between atoms: S_19  and  O_22
REMARK    9  A    between atoms: O_24  and  S_25
REMARK   10  A    between atoms: S_25  and  O_28
REMARK   11  A    between atoms: O_29  and  S_30
REMARK   12  A    between atoms: S_30  and  O_33
REMARK                            x       y       z     vdW  Elec       q    Type
REMARK                         _______ _______ _______ _____ _____    ______ ____
ROOT
ATOM      1  C   UNL     1      -1.370  -2.515  -0.186  0.00  0.00    +0.184 A 
ATOM      2  O   UNL     1      -0.636  -3.702  -0.119  0.00  0.00    -0.451 OA
ATOM      3  C   UNL     1      -1.280  -4.905  -0.240  0.00  0.00    +0.147 A 
ATOM      4  C   UNL     1      -2.631  -4.989  -0.542  0.00  0.00    +0.109 A 
ATOM      5  C   UNL     1      -3.230  -6.243  -0.684  0.00  0.00    +0.135 A 
ATOM      6  C   UNL     1      -2.495  -7.412  -0.506  0.00  0.00    +0.095 A 
ATOM      7  C   UNL     1      -1.142  -7.330  -0.171  0.00  0.00    +0.166 A 
ATOM      8  C   UNL     1      -3.391  -3.748  -0.691  0.00  0.00    +0.241 A 
ATOM      9  O   UNL     1      -4.580  -3.796  -0.999  0.00  0.00    -0.283 OA
ATOM     10  C   UNL     1      -0.529  -6.071  -0.055  0.00  0.00    +0.096 A 
ATOM     11  C   UNL     1      -2.695  -2.459  -0.446  0.00  0.00    +0.248 A 
ENDROOT
BRANCH   1  13
ATOM     12  C   UNL     1       0.384  -0.946  -0.943  0.00  0.00    +0.015 A 
ATOM     13  C   UNL     1      -0.479  -1.371   0.079  0.00  0.00    +0.025 A 
ATOM     14  C   UNL     1      -0.329  -0.842   1.369  0.00  0.00    +0.064 A 
ATOM     15  C   UNL     1       0.712   0.057   1.638  0.00  0.00    +0.201 A 
ATOM     16  C   UNL     1       1.634   0.369   0.635  0.00  0.00    +0.161 A 
ATOM     17  C   UNL     1       1.451  -0.091  -0.664  0.00  0.00    +0.050 A 
BRANCH  16  18
ATOM     18  O   UNL     1       2.740   1.109   0.948  0.00  0.00    -0.503 OA
ATOM     19  H   UNL     1       3.415   0.949   0.266  0.00  0.00    +0.292 HD
ENDBRANCH  16  18
BRANCH  15  20
ATOM     20  O   UNL     1       0.943   0.582   2.884  0.00  0.00    -0.321 OA
BRANCH  20  21
ATOM     21  S   UNL     1      -0.290   1.175   3.765  0.00  0.00    +0.251 S 
ATOM     22  O   UNL     1      -0.918   0.088   4.483  0.00  0.00    -0.108 OA
ATOM     23  O   UNL     1      -1.058   2.103   2.963  0.00  0.00    -0.108 OA
BRANCH  21  24
ATOM     24  O   UNL     1       0.464   2.102   4.850  0.00  0.00    -0.222 OA
ATOM     25  H   UNL     1       0.598   2.979   4.436  0.00  0.00    +0.248 HD
ENDBRANCH  21  24
ENDBRANCH  20  21
ENDBRANCH  15  20
ENDBRANCH   1  13
BRANCH   5  26
ATOM     26  O   UNL     1      -4.554  -6.408  -0.999  0.00  0.00    -0.506 OA
ATOM     27  H   UNL     1      -4.961  -5.520  -1.108  0.00  0.00    +0.292 HD
ENDBRANCH   5  26
BRANCH   7  28
ATOM     28  O   UNL     1      -0.330  -8.421   0.024  0.00  0.00    -0.325 OA
BRANCH  28  29
ATOM     29  S   UNL     1      -0.923  -9.856   0.524  0.00  0.00    +0.251 S 
ATOM     30  O   UNL     1      -1.639 -10.496  -0.558  0.00  0.00    -0.108 OA
ATOM     31  O   UNL     1      -1.508  -9.687   1.838  0.00  0.00    -0.108 OA
BRANCH  29  32
ATOM     32  O   UNL     1       0.413 -10.720   0.784  0.00  0.00    -0.222 OA
ATOM     33  H   UNL     1       0.603 -10.679   1.743  0.00  0.00    +0.248 HD
ENDBRANCH  29  32
ENDBRANCH  28  29
ENDBRANCH   7  28
BRANCH  11  34
ATOM     34  O   UNL     1      -3.538  -1.371  -0.418  0.00  0.00    -0.317 OA
BRANCH  34  35
ATOM     35  S   UNL     1      -3.272   0.055  -1.133  0.00  0.00    +0.252 S 
ATOM     36  O   UNL     1      -2.445  -0.118  -2.306  0.00  0.00    -0.108 OA
ATOM     37  O   UNL     1      -2.959   1.017  -0.101  0.00  0.00    -0.108 OA
BRANCH  35  38
ATOM     38  O   UNL     1      -4.742   0.477  -1.648  0.00  0.00    -0.222 OA
ATOM     39  H   UNL     1      -5.110   1.119  -1.005  0.00  0.00    +0.248 HD
ENDBRANCH  35  38
ENDBRANCH  34  35
ENDBRANCH  11  34
TORSDOF 12
