REMARK  Name = 
REMARK  7 active torsions:
REMARK  status: ('A' for Active; 'I' for Inactive)
REMARK    1  A    between atoms: C_1  and  O_2
REMARK    2  A    between atoms: O_2  and  C_3
REMARK    3  A    between atoms: C_4  and  C_16
REMARK    4  A    between atoms: C_8  and  O_15
REMARK    5  A    between atoms: C_10  and  O_14
REMARK    6  A    between atoms: C_18  and  O_23
REMARK    7  A    between atoms: C_19  and  O_22
REMARK                            x       y       z     vdW  Elec       q    Type
REMARK                         _______ _______ _______ _____ _____    ______ ____
ROOT
ATOM      1  C   UNL     1       3.024   0.560  -1.028  0.00  0.00    +0.211 A 
ATOM      2  C   UNL     1       2.996   2.053  -1.131  0.00  0.00    +0.238 A 
ATOM      3  O   UNL     1       2.580   2.749  -0.213  0.00  0.00    -0.283 OA
ATOM      4  C   UNL     1       3.548   2.650  -2.364  0.00  0.00    +0.109 A 
ATOM      5  C   UNL     1       4.257   1.819  -3.232  0.00  0.00    +0.147 A 
ATOM      6  C   UNL     1       4.863   2.338  -4.379  0.00  0.00    +0.092 A 
ATOM      7  C   UNL     1       4.741   3.696  -4.656  0.00  0.00    +0.124 A 
ATOM      8  C   UNL     1       4.019   4.537  -3.816  0.00  0.00    +0.091 A 
ATOM      9  O   UNL     1       4.407   0.471  -3.018  0.00  0.00    -0.451 OA
ATOM     10  C   UNL     1       3.420   4.012  -2.674  0.00  0.00    +0.135 A 
ATOM     11  C   UNL     1       3.746  -0.106  -1.949  0.00  0.00    +0.181 A 
ENDROOT
BRANCH  11  12
ATOM     12  C   UNL     1       3.936  -1.567  -1.880  0.00  0.00    +0.025 A 
ATOM     13  C   UNL     1       5.010  -2.098  -1.145  0.00  0.00    +0.015 A 
ATOM     14  C   UNL     1       5.205  -3.480  -1.063  0.00  0.00    +0.050 A 
ATOM     15  C   UNL     1       4.322  -4.325  -1.716  0.00  0.00    +0.158 A 
ATOM     16  C   UNL     1       3.256  -3.812  -2.451  0.00  0.00    +0.159 A 
ATOM     17  C   UNL     1       3.055  -2.437  -2.541  0.00  0.00    +0.060 A 
BRANCH  15  18
ATOM     18  O   UNL     1       4.506  -5.676  -1.630  0.00  0.00    -0.503 OA
ATOM     19  H   UNL     1       3.764  -6.059  -2.139  0.00  0.00    +0.292 HD
ENDBRANCH  15  18
BRANCH  16  20
ATOM     20  O   UNL     1       2.427  -4.709  -3.069  0.00  0.00    -0.503 OA
ATOM     21  H   UNL     1       1.727  -4.212  -3.525  0.00  0.00    +0.292 HD
ENDBRANCH  16  20
ENDBRANCH  11  12
BRANCH   1  23
ATOM     22  C   UNL     1       1.149   0.396   0.422  0.00  0.00    +0.277 C 
ATOM     23  O   UNL     1       2.425  -0.107   0.034  0.00  0.00    -0.488 OA
ENDBRANCH   1  23
BRANCH   7  24
ATOM     24  O   UNL     1       5.316   4.258  -5.756  0.00  0.00    -0.507 OA
ATOM     25  H   UNL     1       5.808   3.575  -6.244  0.00  0.00    +0.292 HD
ENDBRANCH   7  24
BRANCH  10  26
ATOM     26  O   UNL     1       2.686   4.847  -1.878  0.00  0.00    -0.506 OA
ATOM     27  H   UNL     1       2.797   5.768  -2.163  0.00  0.00    +0.292 HD
ENDBRANCH  10  26
TORSDOF 6
