REMARK  Name = 
REMARK  12 active torsions:
REMARK  status: ('A' for Active; 'I' for Inactive)
REMARK    1  A    between atoms: C_3  and  O_30
REMARK    2  A    between atoms: C_4  and  O_29
REMARK    3  A    between atoms: C_6  and  C_7
REMARK    4  A    between atoms: C_8  and  O_24
REMARK    5  A    between atoms: C_12  and  O_23
REMARK    6  A    between atoms: C_14  and  O_18
REMARK    7  A    between atoms: O_18  and  S_19
REMARK    8  A    between atoms: S_19  and  O_22
REMARK    9  A    between atoms: O_24  and  S_25
REMARK   10  A    between atoms: S_25  and  O_28
REMARK   11  A    between atoms: O_30  and  S_31
REMARK   12  A    between atoms: S_31  and  O_34
REMARK                            x       y       z     vdW  Elec       q    Type
REMARK                         _______ _______ _______ _____ _____    ______ ____
ROOT
ATOM      1  C   UNL     1      -1.321  -2.497  -0.187  0.00  0.00    +0.184 A 
ATOM      2  O   UNL     1      -0.603  -3.694  -0.125  0.00  0.00    -0.451 OA
ATOM      3  C   UNL     1      -1.263  -4.887  -0.237  0.00  0.00    +0.147 A 
ATOM      4  C   UNL     1      -2.613  -4.960  -0.538  0.00  0.00    +0.109 A 
ATOM      5  C   UNL     1      -3.226  -6.210  -0.672  0.00  0.00    +0.135 A 
ATOM      6  C   UNL     1      -2.498  -7.383  -0.479  0.00  0.00    +0.095 A 
ATOM      7  C   UNL     1      -1.148  -7.311  -0.143  0.00  0.00    +0.166 A 
ATOM      8  C   UNL     1      -3.358  -3.708  -0.693  0.00  0.00    +0.241 A 
ATOM      9  O   UNL     1      -4.543  -3.742  -1.016  0.00  0.00    -0.283 OA
ATOM     10  C   UNL     1      -0.525  -6.061  -0.042  0.00  0.00    +0.096 A 
ATOM     11  C   UNL     1      -2.647  -2.427  -0.436  0.00  0.00    +0.248 A 
ENDROOT
BRANCH   1  13
ATOM     12  C   UNL     1       0.410  -0.962  -1.042  0.00  0.00    +0.015 A 
ATOM     13  C   UNL     1      -0.397  -1.369   0.032  0.00  0.00    +0.025 A 
ATOM     14  C   UNL     1      -0.147  -0.843   1.304  0.00  0.00    +0.061 A 
ATOM     15  C   UNL     1       0.951   0.001   1.495  0.00  0.00    +0.162 A 
ATOM     16  C   UNL     1       1.822   0.309   0.445  0.00  0.00    +0.200 A 
ATOM     17  C   UNL     1       1.512  -0.124  -0.840  0.00  0.00    +0.053 A 
BRANCH  15  18
ATOM     18  O   UNL     1       1.174   0.480   2.757  0.00  0.00    -0.503 OA
ATOM     19  H   UNL     1       1.850   1.178   2.684  0.00  0.00    +0.292 HD
ENDBRANCH  15  18
BRANCH  16  20
ATOM     20  O   UNL     1       2.956   1.023   0.750  0.00  0.00    -0.321 OA
BRANCH  20  21
ATOM     21  S   UNL     1       4.360   0.693  -0.023  0.00  0.00    +0.251 S 
ATOM     22  O   UNL     1       4.367   1.362  -1.304  0.00  0.00    -0.108 OA
ATOM     23  O   UNL     1       4.664  -0.718   0.104  0.00  0.00    -0.108 OA
BRANCH  21  24
ATOM     24  O   UNL     1       5.460   1.422   0.903  0.00  0.00    -0.222 OA
ATOM     25  H   UNL     1       5.994   0.716   1.324  0.00  0.00    +0.248 HD
ENDBRANCH  21  24
ENDBRANCH  20  21
ENDBRANCH  16  20
ENDBRANCH   1  13
BRANCH   5  26
ATOM     26  O   UNL     1      -4.548  -6.360  -0.993  0.00  0.00    -0.506 OA
ATOM     27  H   UNL     1      -4.943  -5.468  -1.122  0.00  0.00    +0.292 HD
ENDBRANCH   5  26
BRANCH   7  28
ATOM     28  O   UNL     1      -0.342  -8.406   0.067  0.00  0.00    -0.325 OA
BRANCH  28  29
ATOM     29  S   UNL     1      -0.949  -9.831   0.581  0.00  0.00    +0.251 S 
ATOM     30  O   UNL     1      -1.659 -10.478  -0.497  0.00  0.00    -0.108 OA
ATOM     31  O   UNL     1      -1.547  -9.638   1.887  0.00  0.00    -0.108 OA
BRANCH  29  32
ATOM     32  O   UNL     1       0.378 -10.699   0.869  0.00  0.00    -0.222 OA
ATOM     33  H   UNL     1       0.542 -10.667   1.834  0.00  0.00    +0.248 HD
ENDBRANCH  29  32
ENDBRANCH  28  29
ENDBRANCH   7  28
BRANCH  11  34
ATOM     34  O   UNL     1      -3.476  -1.327  -0.399  0.00  0.00    -0.317 OA
BRANCH  34  35
ATOM     35  S   UNL     1      -3.202   0.089  -1.132  0.00  0.00    +0.252 S 
ATOM     36  O   UNL     1      -2.397  -0.110  -2.314  0.00  0.00    -0.108 OA
ATOM     37  O   UNL     1      -2.857   1.056  -0.113  0.00  0.00    -0.108 OA
BRANCH  35  38
ATOM     38  O   UNL     1      -4.673   0.528  -1.626  0.00  0.00    -0.222 OA
ATOM     39  H   UNL     1      -5.041   1.146  -0.962  0.00  0.00    +0.248 HD
ENDBRANCH  35  38
ENDBRANCH  34  35
ENDBRANCH  11  34
TORSDOF 12
