REMARK  Name = 
REMARK  12 active torsions:
REMARK  status: ('A' for Active; 'I' for Inactive)
REMARK    1  A    between atoms: C_3  and  O_38
REMARK    2  A    between atoms: C_4  and  O_37
REMARK    3  A    between atoms: C_6  and  C_7
REMARK    4  A    between atoms: C_8  and  O_20
REMARK    5  A    between atoms: C_12  and  O_19
REMARK    6  A    between atoms: C_14  and  O_18
REMARK    7  A    between atoms: O_20  and  C_21
REMARK    8  A    between atoms: C_23  and  O_36
REMARK    9  A    between atoms: C_25  and  O_35
REMARK   10  A    between atoms: C_27  and  O_34
REMARK   11  A    between atoms: C_29  and  C_32
REMARK   12  A    between atoms: C_32  and  O_33
REMARK                            x       y       z     vdW  Elec       q    Type
REMARK                         _______ _______ _______ _____ _____    ______ ____
ROOT
ATOM      1  C   UNL     1      -1.436  -2.606   0.666  0.00  0.00    +0.181 A 
ATOM      2  O   UNL     1      -0.691  -3.773   0.887  0.00  0.00    -0.451 OA
ATOM      3  C   UNL     1      -1.192  -4.965   0.415  0.00  0.00    +0.147 A 
ATOM      4  C   UNL     1      -2.506  -5.096  -0.008  0.00  0.00    +0.109 A 
ATOM      5  C   UNL     1      -3.014  -6.327  -0.448  0.00  0.00    +0.135 A 
ATOM      6  C   UNL     1      -2.197  -7.446  -0.482  0.00  0.00    +0.091 A 
ATOM      7  C   UNL     1      -0.875  -7.316  -0.058  0.00  0.00    +0.124 A 
ATOM      8  C   UNL     1      -3.358  -3.923   0.027  0.00  0.00    +0.238 A 
ATOM      9  O   UNL     1      -4.567  -4.102  -0.057  0.00  0.00    -0.283 OA
ATOM     10  C   UNL     1      -0.367  -6.091   0.389  0.00  0.00    +0.092 A 
ATOM     11  C   UNL     1      -2.705  -2.585   0.192  0.00  0.00    +0.214 A 
ENDROOT
BRANCH   1  13
ATOM     12  C   UNL     1      -0.141  -1.276   2.384  0.00  0.00    +0.015 A 
ATOM     13  C   UNL     1      -0.738  -1.361   1.110  0.00  0.00    +0.025 A 
ATOM     14  C   UNL     1      -0.743  -0.209   0.308  0.00  0.00    +0.060 A 
ATOM     15  C   UNL     1      -0.288   1.000   0.816  0.00  0.00    +0.159 A 
ATOM     16  C   UNL     1       0.222   1.094   2.107  0.00  0.00    +0.158 A 
ATOM     17  C   UNL     1       0.339  -0.048   2.887  0.00  0.00    +0.050 A 
BRANCH  15  18
ATOM     18  O   UNL     1      -0.402   2.126   0.048  0.00  0.00    -0.503 OA
ATOM     19  H   UNL     1      -0.074   2.849   0.618  0.00  0.00    +0.292 HD
ENDBRANCH  15  18
BRANCH  16  20
ATOM     20  O   UNL     1       0.570   2.333   2.566  0.00  0.00    -0.503 OA
ATOM     21  H   UNL     1       0.651   2.286   3.534  0.00  0.00    +0.292 HD
ENDBRANCH  16  20
ENDBRANCH   1  13
BRANCH   5  22
ATOM     22  O   UNL     1      -4.309  -6.504  -0.860  0.00  0.00    -0.506 OA
ATOM     23  H   UNL     1      -4.800  -5.671  -0.684  0.00  0.00    +0.292 HD
ENDBRANCH   5  22
BRANCH   7  24
ATOM     24  O   UNL     1      -0.045  -8.395  -0.066  0.00  0.00    -0.507 OA
ATOM     25  H   UNL     1      -0.552  -9.179  -0.345  0.00  0.00    +0.292 HD
ENDBRANCH   7  24
BRANCH  11  26
ATOM     26  O   UNL     1      -3.391  -1.398  -0.077  0.00  0.00    -0.453 OA
BRANCH  26  27
ATOM     27  C   UNL     1      -4.826  -1.392   0.063  0.00  0.00    +0.340 C 
ATOM     28  O   UNL     1      -5.397  -0.317  -0.687  0.00  0.00    -0.331 OA
ATOM     29  C   UNL     1      -5.985   0.841  -0.086  0.00  0.00    +0.179 C 
ATOM     30  C   UNL     1      -6.040   0.923   1.452  0.00  0.00    +0.177 C 
ATOM     31  C   UNL     1      -4.994   0.025   2.106  0.00  0.00    +0.180 C 
ATOM     32  C   UNL     1      -5.170  -1.395   1.558  0.00  0.00    +0.214 C 
BRANCH  30  33
ATOM     33  O   UNL     1      -7.369   0.563   1.884  0.00  0.00    -0.386 OA
ATOM     34  H   UNL     1      -7.314  -0.256   2.414  0.00  0.00    +0.210 HD
ENDBRANCH  30  33
BRANCH  31  35
ATOM     35  O   UNL     1      -3.681   0.553   1.934  0.00  0.00    -0.386 OA
ATOM     36  H   UNL     1      -3.354   0.373   1.027  0.00  0.00    +0.210 HD
ENDBRANCH  31  35
BRANCH  32  37
ATOM     37  O   UNL     1      -6.510  -1.858   1.805  0.00  0.00    -0.383 OA
ATOM     38  H   UNL     1      -7.022  -1.751   0.978  0.00  0.00    +0.210 HD
ENDBRANCH  32  37
BRANCH  29  39
ATOM     39  C   UNL     1      -5.283   2.077  -0.678  0.00  0.00    +0.190 C 
BRANCH  39  40
ATOM     40  O   UNL     1      -5.343   2.096  -2.106  0.00  0.00    -0.392 OA
ATOM     41  H   UNL     1      -6.251   1.872  -2.373  0.00  0.00    +0.210 HD
ENDBRANCH  39  40
ENDBRANCH  29  39
ENDBRANCH  26  27
ENDBRANCH  11  26
TORSDOF 12
