REMARK  Name = 
REMARK  8 active torsions:
REMARK  status: ('A' for Active; 'I' for Inactive)
REMARK    1  A    between atoms: C_3  and  O_26
REMARK    2  A    between atoms: C_4  and  O_25
REMARK    3  A    between atoms: C_6  and  C_7
REMARK    4  A    between atoms: C_8  and  O_20
REMARK    5  A    between atoms: C_12  and  O_19
REMARK    6  A    between atoms: C_14  and  O_18
REMARK    7  A    between atoms: O_20  and  S_21
REMARK    8  A    between atoms: S_21  and  O_24
REMARK                            x       y       z     vdW  Elec       q    Type
REMARK                         _______ _______ _______ _____ _____    ______ ____
ROOT
ATOM      1  C   UNL     1      -1.337  -2.470  -0.177  0.00  0.00    +0.184 A 
ATOM      2  O   UNL     1      -0.587  -3.644  -0.113  0.00  0.00    -0.451 OA
ATOM      3  C   UNL     1      -1.212  -4.855  -0.231  0.00  0.00    +0.147 A 
ATOM      4  C   UNL     1      -2.560  -4.972  -0.528  0.00  0.00    +0.109 A 
ATOM      5  C   UNL     1      -3.142  -6.238  -0.676  0.00  0.00    +0.135 A 
ATOM      6  C   UNL     1      -2.373  -7.387  -0.506  0.00  0.00    +0.091 A 
ATOM      7  C   UNL     1      -1.025  -7.259  -0.190  0.00  0.00    +0.124 A 
ATOM      8  C   UNL     1      -3.346  -3.738  -0.654  0.00  0.00    +0.241 A 
ATOM      9  O   UNL     1      -4.536  -3.805  -0.949  0.00  0.00    -0.283 OA
ATOM     10  C   UNL     1      -0.436  -6.003  -0.054  0.00  0.00    +0.092 A 
ATOM     11  C   UNL     1      -2.667  -2.435  -0.412  0.00  0.00    +0.248 A 
ENDROOT
BRANCH   1  13
ATOM     12  C   UNL     1       0.379  -0.904  -1.017  0.00  0.00    +0.015 A 
ATOM     13  C   UNL     1      -0.444  -1.319   0.048  0.00  0.00    +0.025 A 
ATOM     14  C   UNL     1      -0.230  -0.789   1.326  0.00  0.00    +0.060 A 
ATOM     15  C   UNL     1       0.836   0.085   1.528  0.00  0.00    +0.159 A 
ATOM     16  C   UNL     1       1.699   0.419   0.485  0.00  0.00    +0.158 A 
ATOM     17  C   UNL     1       1.458  -0.042  -0.800  0.00  0.00    +0.050 A 
BRANCH  15  18
ATOM     18  O   UNL     1       1.070   0.579   2.779  0.00  0.00    -0.503 OA
ATOM     19  H   UNL     1       1.834   1.182   2.666  0.00  0.00    +0.292 HD
ENDBRANCH  15  18
BRANCH  16  20
ATOM     20  O   UNL     1       2.802   1.170   0.782  0.00  0.00    -0.503 OA
ATOM     21  H   UNL     1       3.450   1.034   0.067  0.00  0.00    +0.292 HD
ENDBRANCH  16  20
ENDBRANCH   1  13
BRANCH   5  22
ATOM     22  O   UNL     1      -4.461  -6.422  -0.988  0.00  0.00    -0.506 OA
ATOM     23  H   UNL     1      -4.879  -5.537  -1.093  0.00  0.00    +0.292 HD
ENDBRANCH   5  22
BRANCH   7  24
ATOM     24  O   UNL     1      -0.238  -8.357  -0.002  0.00  0.00    -0.507 OA
ATOM     25  H   UNL     1      -0.778  -9.157  -0.124  0.00  0.00    +0.292 HD
ENDBRANCH   7  24
BRANCH  11  26
ATOM     26  O   UNL     1      -3.527  -1.360  -0.372  0.00  0.00    -0.317 OA
BRANCH  26  27
ATOM     27  S   UNL     1      -3.286   0.080  -1.070  0.00  0.00    +0.252 S 
ATOM     28  O   UNL     1      -2.475  -0.069  -2.257  0.00  0.00    -0.108 OA
ATOM     29  O   UNL     1      -2.974   1.036  -0.030  0.00  0.00    -0.108 OA
BRANCH  27  30
ATOM     30  O   UNL     1      -4.768   0.489  -1.559  0.00  0.00    -0.222 OA
ATOM     31  H   UNL     1      -5.146   1.093  -0.888  0.00  0.00    +0.248 HD
ENDBRANCH  27  30
ENDBRANCH  26  27
ENDBRANCH  11  26
TORSDOF 8
