REMARK  Name = 
REMARK  10 active torsions:
REMARK  status: ('A' for Active; 'I' for Inactive)
REMARK    1  A    between atoms: C_3  and  O_30
REMARK    2  A    between atoms: C_4  and  O_25
REMARK    3  A    between atoms: C_6  and  C_7
REMARK    4  A    between atoms: C_8  and  O_20
REMARK    5  A    between atoms: C_12  and  O_19
REMARK    6  A    between atoms: C_14  and  O_18
REMARK    7  A    between atoms: O_20  and  S_21
REMARK    8  A    between atoms: S_21  and  O_24
REMARK    9  A    between atoms: O_25  and  S_26
REMARK   10  A    between atoms: S_26  and  O_29
REMARK                            x       y       z     vdW  Elec       q    Type
REMARK                         _______ _______ _______ _____ _____    ______ ____
ROOT
ATOM      1  C   UNL     1      -1.439  -2.485  -0.096  0.00  0.00    +0.184 A 
ATOM      2  O   UNL     1      -0.722  -3.650   0.159  0.00  0.00    -0.451 OA
ATOM      3  C   UNL     1      -1.301  -4.865  -0.081  0.00  0.00    +0.147 A 
ATOM      4  C   UNL     1      -2.634  -4.994  -0.442  0.00  0.00    +0.109 A 
ATOM      5  C   UNL     1      -3.182  -6.269  -0.625  0.00  0.00    +0.135 A 
ATOM      6  C   UNL     1      -2.395  -7.406  -0.461  0.00  0.00    +0.091 A 
ATOM      7  C   UNL     1      -1.053  -7.261  -0.125  0.00  0.00    +0.124 A 
ATOM      8  C   UNL     1      -3.419  -3.770  -0.641  0.00  0.00    +0.241 A 
ATOM      9  O   UNL     1      -4.611  -3.850  -0.932  0.00  0.00    -0.283 OA
ATOM     10  C   UNL     1      -0.500  -5.998   0.066  0.00  0.00    +0.092 A 
ATOM     11  C   UNL     1      -2.726  -2.460  -0.504  0.00  0.00    +0.248 A 
ENDROOT
BRANCH   1  13
ATOM     12  C   UNL     1       0.283  -0.914  -0.954  0.00  0.00    +0.015 A 
ATOM     13  C   UNL     1      -0.552  -1.326   0.093  0.00  0.00    +0.025 A 
ATOM     14  C   UNL     1      -0.367  -0.789   1.377  0.00  0.00    +0.064 A 
ATOM     15  C   UNL     1       0.676   0.110   1.617  0.00  0.00    +0.201 A 
ATOM     16  C   UNL     1       1.568   0.419   0.589  0.00  0.00    +0.161 A 
ATOM     17  C   UNL     1       1.354  -0.054  -0.703  0.00  0.00    +0.050 A 
BRANCH  16  18
ATOM     18  O   UNL     1       2.676   1.169   0.873  0.00  0.00    -0.503 OA
ATOM     19  H   UNL     1       3.342   0.998   0.185  0.00  0.00    +0.292 HD
ENDBRANCH  16  18
BRANCH  15  20
ATOM     20  O   UNL     1       0.935   0.634   2.856  0.00  0.00    -0.321 OA
BRANCH  20  21
ATOM     21  S   UNL     1      -0.271   1.229   3.771  0.00  0.00    +0.251 S 
ATOM     22  O   UNL     1      -0.864   0.143   4.523  0.00  0.00    -0.108 OA
ATOM     23  O   UNL     1      -1.071   2.134   2.977  0.00  0.00    -0.108 OA
BRANCH  21  24
ATOM     24  O   UNL     1       0.511   2.171   4.814  0.00  0.00    -0.222 OA
ATOM     25  H   UNL     1       0.660   3.032   4.375  0.00  0.00    +0.248 HD
ENDBRANCH  21  24
ENDBRANCH  20  21
ENDBRANCH  15  20
ENDBRANCH   1  13
BRANCH   5  26
ATOM     26  O   UNL     1      -4.491  -6.476  -0.970  0.00  0.00    -0.506 OA
ATOM     27  H   UNL     1      -4.931  -5.600  -1.051  0.00  0.00    +0.292 HD
ENDBRANCH   5  26
BRANCH   7  28
ATOM     28  O   UNL     1      -0.243  -8.345   0.033  0.00  0.00    -0.507 OA
ATOM     29  H   UNL     1      -0.766  -9.152  -0.106  0.00  0.00    +0.292 HD
ENDBRANCH   7  28
BRANCH  11  30
ATOM     30  O   UNL     1      -3.462  -1.377  -0.931  0.00  0.00    -0.317 OA
BRANCH  30  31
ATOM     31  S   UNL     1      -3.643   0.002  -0.100  0.00  0.00    +0.252 S 
ATOM     32  O   UNL     1      -2.697   0.971  -0.604  0.00  0.00    -0.108 OA
ATOM     33  O   UNL     1      -3.769  -0.293   1.310  0.00  0.00    -0.108 OA
BRANCH  31  34
ATOM     34  O   UNL     1      -5.108   0.503  -0.554  0.00  0.00    -0.222 OA
ATOM     35  H   UNL     1      -5.654   0.593   0.255  0.00  0.00    +0.248 HD
ENDBRANCH  31  34
ENDBRANCH  30  31
ENDBRANCH  11  30
TORSDOF 10
