REMARK  Name = 
REMARK  7 active torsions:
REMARK  status: ('A' for Active; 'I' for Inactive)
REMARK    1  A    between atoms: C_1  and  O_2
REMARK    2  A    between atoms: O_2  and  C_3
REMARK    3  A    between atoms: C_4  and  O_23
REMARK    4  A    between atoms: C_6  and  C_9
REMARK    5  A    between atoms: C_10  and  O_22
REMARK    6  A    between atoms: C_14  and  O_21
REMARK    7  A    between atoms: C_16  and  O_20
REMARK                            x       y       z     vdW  Elec       q    Type
REMARK                         _______ _______ _______ _____ _____    ______ ____
ROOT
ATOM      1  C   UNL     1       5.349   3.192   3.615  0.00  0.00    +0.181 A 
ATOM      2  O   UNL     1       5.047   4.546   3.500  0.00  0.00    -0.451 OA
ATOM      3  C   UNL     1       5.710   5.453   4.288  0.00  0.00    +0.147 A 
ATOM      4  C   UNL     1       6.712   5.087   5.178  0.00  0.00    +0.109 A 
ATOM      5  C   UNL     1       7.349   6.061   5.955  0.00  0.00    +0.135 A 
ATOM      6  C   UNL     1       6.989   7.400   5.841  0.00  0.00    +0.091 A 
ATOM      7  C   UNL     1       5.989   7.755   4.942  0.00  0.00    +0.124 A 
ATOM      8  C   UNL     1       7.067   3.668   5.283  0.00  0.00    +0.238 A 
ATOM      9  O   UNL     1       7.955   3.322   6.054  0.00  0.00    -0.283 OA
ATOM     10  C   UNL     1       5.346   6.792   4.165  0.00  0.00    +0.092 A 
ATOM     11  C   UNL     1       6.284   2.708   4.463  0.00  0.00    +0.208 A 
ENDROOT
BRANCH   1  15
ATOM     12  C   UNL     1       3.066   0.879   0.762  0.00  0.00    +0.161 A 
ATOM     13  C   UNL     1       4.339   0.464   1.137  0.00  0.00    +0.050 A 
ATOM     14  C   UNL     1       5.082   1.216   2.056  0.00  0.00    +0.015 A 
ATOM     15  C   UNL     1       4.548   2.357   2.678  0.00  0.00    +0.025 A 
ATOM     16  C   UNL     1       3.245   2.743   2.321  0.00  0.00    +0.060 A 
ATOM     17  C   UNL     1       2.529   2.016   1.369  0.00  0.00    +0.159 A 
BRANCH  12  19
ATOM     18  C   UNL     1       2.971  -0.574  -1.096  0.00  0.00    +0.277 C 
ATOM     19  O   UNL     1       2.276   0.264  -0.174  0.00  0.00    -0.491 OA
ENDBRANCH  12  19
BRANCH  17  20
ATOM     20  O   UNL     1       1.291   2.474   1.008  0.00  0.00    -0.503 OA
ATOM     21  H   UNL     1       1.001   1.891   0.279  0.00  0.00    +0.292 HD
ENDBRANCH  17  20
ENDBRANCH   1  15
BRANCH   5  22
ATOM     22  O   UNL     1       8.337   5.765   6.857  0.00  0.00    -0.506 OA
ATOM     23  H   UNL     1       8.494   4.792   6.829  0.00  0.00    +0.292 HD
ENDBRANCH   5  22
BRANCH   7  24
ATOM     24  O   UNL     1       5.602   9.055   4.792  0.00  0.00    -0.507 OA
ATOM     25  H   UNL     1       6.141   9.613   5.382  0.00  0.00    +0.292 HD
ENDBRANCH   7  24
BRANCH  11  26
ATOM     26  O   UNL     1       6.576   1.370   4.649  0.00  0.00    -0.501 OA
ATOM     27  H   UNL     1       5.758   0.860   4.522  0.00  0.00    +0.292 HD
ENDBRANCH  11  26
TORSDOF 6
