REMARK  Name = 
REMARK  21 active torsions:
REMARK  status: ('A' for Active; 'I' for Inactive)
REMARK    1  A    between atoms: C_1  and  C_2
REMARK    2  A    between atoms: C_4  and  O_66
REMARK    3  A    between atoms: C_6  and  O_65
REMARK    4  A    between atoms: C_8  and  O_64
REMARK    5  A    between atoms: C_10  and  O_13
REMARK    6  A    between atoms: O_13  and  C_14
REMARK    7  A    between atoms: C_14  and  C_15
REMARK    8  A    between atoms: C_17  and  O_63
REMARK    9  A    between atoms: C_19  and  O_62
REMARK   10  A    between atoms: C_21  and  O_48
REMARK   11  A    between atoms: C_23  and  O_26
REMARK   12  A    between atoms: O_26  and  C_27
REMARK   13  A    between atoms: C_28  and  C_40
REMARK   14  A    between atoms: C_32  and  O_39
REMARK   15  A    between atoms: C_34  and  O_38
REMARK   16  A    between atoms: C_42  and  O_47
REMARK   17  A    between atoms: C_43  and  O_46
REMARK   18  A    between atoms: O_48  and  C_49
REMARK   19  A    between atoms: C_51  and  O_61
REMARK   20  A    between atoms: C_53  and  O_60
REMARK   21  A    between atoms: C_55  and  O_59
REMARK                            x       y       z     vdW  Elec       q    Type
REMARK                         _______ _______ _______ _____ _____    ______ ____
ROOT
ATOM      1  C   UNL     1       3.236   4.031  -4.446  0.00  0.00    +0.179 C 
ATOM      2  O   UNL     1       3.784   5.265  -3.965  0.00  0.00    -0.331 OA
ATOM      3  C   UNL     1       2.893   5.900  -3.058  0.00  0.00    +0.340 C 
ATOM      4  C   UNL     1       1.701   6.424  -3.893  0.00  0.00    +0.221 C 
ATOM      5  C   UNL     1       1.056   5.190  -4.598  0.00  0.00    +0.180 C 
ATOM      6  C   UNL     1       2.099   4.387  -5.397  0.00  0.00    +0.177 C 
ENDROOT
BRANCH   6   7
ATOM      7  O   UNL     1       1.475   3.223  -5.952  0.00  0.00    -0.386 OA
ATOM      8  H   UNL     1       2.087   2.890  -6.637  0.00  0.00    +0.210 HD
ENDBRANCH   6   7
BRANCH   5   9
ATOM      9  O   UNL     1      -0.001   5.589  -5.484  0.00  0.00    -0.386 OA
ATOM     10  H   UNL     1      -0.230   4.775  -5.980  0.00  0.00    +0.210 HD
ENDBRANCH   5   9
BRANCH   4  11
ATOM     11  O   UNL     1       0.675   7.071  -3.115  0.00  0.00    -0.337 OA
BRANCH  11  12
ATOM     12  C   UNL     1       1.070   8.300  -2.507  0.00  0.00    +0.282 C 
ATOM     13  O   UNL     1      -0.000   8.824  -1.708  0.00  0.00    -0.346 OA
ATOM     14  C   UNL     1      -1.148   9.235  -2.460  0.00  0.00    +0.197 C 
ATOM     15  C   UNL     1      -0.795  10.274  -3.531  0.00  0.00    +0.171 C 
ATOM     16  C   UNL     1       0.355   9.770  -4.414  0.00  0.00    +0.178 C 
ATOM     17  C   UNL     1       1.545   9.363  -3.524  0.00  0.00    +0.201 C 
BRANCH  17  18
ATOM     18  O   UNL     1       2.098  10.502  -2.833  0.00  0.00    -0.384 OA
ATOM     19  H   UNL     1       1.423  10.750  -2.161  0.00  0.00    +0.210 HD
ENDBRANCH  17  18
BRANCH  16  20
ATOM     20  O   UNL     1      -0.089   8.722  -5.281  0.00  0.00    -0.386 OA
ATOM     21  H   UNL     1      -0.247   7.896  -4.774  0.00  0.00    +0.210 HD
ENDBRANCH  16  20
BRANCH  15  22
ATOM     22  O   UNL     1      -0.403  11.486  -2.865  0.00  0.00    -0.387 OA
ATOM     23  H   UNL     1       0.057  12.048  -3.517  0.00  0.00    +0.210 HD
ENDBRANCH  15  22
ENDBRANCH  11  12
ENDBRANCH   4  11
BRANCH   3  24
ATOM     24  O   UNL     1       3.647   6.885  -2.310  0.00  0.00    -0.453 OA
BRANCH  24  25
ATOM     25  C   UNL     1       4.206   6.377  -1.123  0.00  0.00    +0.214 A 
ATOM     26  C   UNL     1       4.329   4.887  -0.923  0.00  0.00    +0.238 A 
ATOM     27  O   UNL     1       4.458   4.089  -1.843  0.00  0.00    -0.283 OA
ATOM     28  C   UNL     1       4.380   4.372   0.432  0.00  0.00    +0.109 A 
ATOM     29  C   UNL     1       4.847   5.247   1.390  0.00  0.00    +0.147 A 
ATOM     30  C   UNL     1       5.085   4.775   2.680  0.00  0.00    +0.092 A 
ATOM     31  C   UNL     1       4.844   3.435   2.973  0.00  0.00    +0.124 A 
ATOM     32  C   UNL     1       4.344   2.564   2.008  0.00  0.00    +0.091 A 
ATOM     33  O   UNL     1       5.153   6.548   1.098  0.00  0.00    -0.451 OA
ATOM     34  C   UNL     1       4.098   3.037   0.735  0.00  0.00    +0.135 A 
ATOM     35  C   UNL     1       4.758   7.124  -0.127  0.00  0.00    +0.181 A 
BRANCH  35  36
ATOM     36  C   UNL     1       5.157   8.583  -0.166  0.00  0.00    +0.025 A 
ATOM     37  C   UNL     1       5.950   9.098   0.898  0.00  0.00    +0.015 A 
ATOM     38  C   UNL     1       6.580  10.349   0.841  0.00  0.00    +0.050 A 
ATOM     39  C   UNL     1       6.391  11.140  -0.273  0.00  0.00    +0.158 A 
ATOM     40  C   UNL     1       5.520  10.725  -1.273  0.00  0.00    +0.159 A 
ATOM     41  C   UNL     1       4.919   9.458  -1.238  0.00  0.00    +0.060 A 
BRANCH  40  42
ATOM     42  O   UNL     1       5.274  11.600  -2.299  0.00  0.00    -0.503 OA
ATOM     43  H   UNL     1       4.381  11.392  -2.641  0.00  0.00    +0.292 HD
ENDBRANCH  40  42
BRANCH  39  44
ATOM     44  O   UNL     1       7.079  12.312  -0.382  0.00  0.00    -0.503 OA
ATOM     45  H   UNL     1       6.910  12.613  -1.297  0.00  0.00    +0.292 HD
ENDBRANCH  39  44
ENDBRANCH  35  36
BRANCH  34  46
ATOM     46  O   UNL     1       3.573   2.196  -0.201  0.00  0.00    -0.506 OA
ATOM     47  H   UNL     1       3.651   1.273   0.103  0.00  0.00    +0.292 HD
ENDBRANCH  34  46
BRANCH  31  48
ATOM     48  O   UNL     1       5.066   2.909   4.212  0.00  0.00    -0.507 OA
ATOM     49  H   UNL     1       5.410   3.606   4.800  0.00  0.00    +0.292 HD
ENDBRANCH  31  48
ENDBRANCH  24  25
ENDBRANCH   3  24
BRANCH   1  50
ATOM     50  C   UNL     1       4.365   3.227  -5.071  0.00  0.00    +0.197 C 
BRANCH  50  51
ATOM     51  O   UNL     1       4.856   3.939  -6.200  0.00  0.00    -0.346 OA
BRANCH  51  55
ATOM     52  C   UNL     1       8.074   1.081  -6.736  0.00  0.00    +0.041 C 
ATOM     53  C   UNL     1       8.228   2.553  -6.367  0.00  0.00    +0.149 C 
ATOM     54  O   UNL     1       7.013   3.107  -5.854  0.00  0.00    -0.343 OA
ATOM     55  C   UNL     1       5.973   3.296  -6.810  0.00  0.00    +0.282 C 
ATOM     56  C   UNL     1       6.403   4.205  -7.980  0.00  0.00    +0.201 C 
ATOM     57  C   UNL     1       7.745   3.753  -8.570  0.00  0.00    +0.179 C 
ATOM     58  C   UNL     1       8.774   3.474  -7.468  0.00  0.00    +0.174 C 
BRANCH  58  59
ATOM     59  O   UNL     1       9.133   4.732  -6.853  0.00  0.00    -0.387 OA
ATOM     60  H   UNL     1       8.509   4.883  -6.114  0.00  0.00    +0.210 HD
ENDBRANCH  58  59
BRANCH  57  61
ATOM     61  O   UNL     1       7.563   2.628  -9.444  0.00  0.00    -0.386 OA
ATOM     62  H   UNL     1       6.879   2.037  -9.086  0.00  0.00    +0.210 HD
ENDBRANCH  57  61
BRANCH  56  63
ATOM     63  O   UNL     1       5.388   4.207  -9.003  0.00  0.00    -0.384 OA
ATOM     64  H   UNL     1       5.776   3.820  -9.809  0.00  0.00    +0.210 HD
ENDBRANCH  56  63
ENDBRANCH  51  55
ENDBRANCH  50  51
ENDBRANCH   1  50
TORSDOF 20
