REMARK  Name = 
REMARK  7 active torsions:
REMARK  status: ('A' for Active; 'I' for Inactive)
REMARK    1  A    between atoms: C_1  and  O_2
REMARK    2  A    between atoms: O_2  and  C_3
REMARK    3  A    between atoms: C_4  and  O_23
REMARK    4  A    between atoms: C_7  and  C_9
REMARK    5  A    between atoms: C_10  and  O_22
REMARK    6  A    between atoms: C_14  and  O_21
REMARK    7  A    between atoms: C_16  and  O_20
REMARK                            x       y       z     vdW  Elec       q    Type
REMARK                         _______ _______ _______ _____ _____    ______ ____
ROOT
ATOM      1  C   UNL     1       6.272   2.028  -1.961  0.00  0.00    +0.181 A 
ATOM      2  O   UNL     1       6.889   3.244  -2.276  0.00  0.00    -0.451 OA
ATOM      3  C   UNL     1       7.994   3.249  -3.095  0.00  0.00    +0.147 A 
ATOM      4  C   UNL     1       8.603   2.082  -3.539  0.00  0.00    +0.109 A 
ATOM      5  C   UNL     1       9.727   2.141  -4.377  0.00  0.00    +0.135 A 
ATOM      6  C   UNL     1      10.247   3.370  -4.776  0.00  0.00    +0.091 A 
ATOM      7  C   UNL     1       9.629   4.535  -4.329  0.00  0.00    +0.124 A 
ATOM      8  C   UNL     1       8.027   0.803  -3.137  0.00  0.00    +0.238 A 
ATOM      9  O   UNL     1       8.570  -0.245  -3.483  0.00  0.00    -0.283 OA
ATOM     10  C   UNL     1       8.508   4.484  -3.493  0.00  0.00    +0.092 A 
ATOM     11  C   UNL     1       6.754   0.832  -2.369  0.00  0.00    +0.208 A 
ENDROOT
BRANCH   1  14
ATOM     12  C   UNL     1       3.277   1.315   0.348  0.00  0.00    +0.162 A 
ATOM     13  C   UNL     1       4.539   1.222  -0.267  0.00  0.00    +0.061 A 
ATOM     14  C   UNL     1       5.002   2.186  -1.187  0.00  0.00    +0.025 A 
ATOM     15  C   UNL     1       4.205   3.327  -1.371  0.00  0.00    +0.015 A 
ATOM     16  C   UNL     1       2.970   3.456  -0.724  0.00  0.00    +0.050 A 
ATOM     17  C   UNL     1       2.504   2.451   0.120  0.00  0.00    +0.158 A 
BRANCH  12  19
ATOM     18  C   UNL     1       1.615  -0.184   1.192  0.00  0.00    +0.277 C 
ATOM     19  O   UNL     1       2.968   0.265   1.170  0.00  0.00    -0.491 OA
ENDBRANCH  12  19
BRANCH  17  20
ATOM     20  O   UNL     1       1.299   2.685   0.716  0.00  0.00    -0.503 OA
ATOM     21  H   UNL     1       1.289   2.198   1.555  0.00  0.00    +0.292 HD
ENDBRANCH  17  20
ENDBRANCH   1  14
BRANCH   5  22
ATOM     22  O   UNL     1      10.366   1.028  -4.853  0.00  0.00    -0.506 OA
ATOM     23  H   UNL     1       9.900   0.234  -4.495  0.00  0.00    +0.292 HD
ENDBRANCH   5  22
BRANCH   7  24
ATOM     24  O   UNL     1      10.097   5.761  -4.697  0.00  0.00    -0.507 OA
ATOM     25  H   UNL     1      10.878   5.643  -5.265  0.00  0.00    +0.292 HD
ENDBRANCH   7  24
BRANCH  11  26
ATOM     26  O   UNL     1       6.136  -0.390  -2.182  0.00  0.00    -0.501 OA
ATOM     27  H   UNL     1       5.175  -0.251  -2.189  0.00  0.00    +0.292 HD
ENDBRANCH  11  26
TORSDOF 6
