REMARK  Name = 
REMARK  12 active torsions:
REMARK  status: ('A' for Active; 'I' for Inactive)
REMARK    1  A    between atoms: C_3  and  O_38
REMARK    2  A    between atoms: C_4  and  O_37
REMARK    3  A    between atoms: C_6  and  C_7
REMARK    4  A    between atoms: C_8  and  O_20
REMARK    5  A    between atoms: C_12  and  O_19
REMARK    6  A    between atoms: C_14  and  O_18
REMARK    7  A    between atoms: O_20  and  C_21
REMARK    8  A    between atoms: C_23  and  O_36
REMARK    9  A    between atoms: C_25  and  O_35
REMARK   10  A    between atoms: C_27  and  O_34
REMARK   11  A    between atoms: C_29  and  C_32
REMARK   12  A    between atoms: C_32  and  O_33
REMARK                            x       y       z     vdW  Elec       q    Type
REMARK                         _______ _______ _______ _____ _____    ______ ____
ROOT
ATOM      1  C   UNL     1      -1.370  -2.579   0.839  0.00  0.00    +0.181 A 
ATOM      2  O   UNL     1      -0.720  -3.805   0.985  0.00  0.00    -0.451 OA
ATOM      3  C   UNL     1      -1.261  -4.932   0.446  0.00  0.00    +0.147 A 
ATOM      4  C   UNL     1      -2.555  -4.982  -0.042  0.00  0.00    +0.109 A 
ATOM      5  C   UNL     1      -3.083  -6.200  -0.484  0.00  0.00    +0.135 A 
ATOM      6  C   UNL     1      -2.290  -7.350  -0.496  0.00  0.00    +0.091 A 
ATOM      7  C   UNL     1      -0.976  -7.273  -0.070  0.00  0.00    +0.124 A 
ATOM      8  C   UNL     1      -3.307  -3.721  -0.099  0.00  0.00    +0.238 A 
ATOM      9  O   UNL     1      -4.489  -3.734  -0.433  0.00  0.00    -0.283 OA
ATOM     10  C   UNL     1      -0.455  -6.072   0.410  0.00  0.00    +0.092 A 
ATOM     11  C   UNL     1      -2.568  -2.453   0.213  0.00  0.00    +0.214 A 
ENDROOT
BRANCH   1  13
ATOM     12  C   UNL     1       0.811  -1.661   1.699  0.00  0.00    +0.015 A 
ATOM     13  C   UNL     1      -0.570  -1.477   1.463  0.00  0.00    +0.025 A 
ATOM     14  C   UNL     1      -1.138  -0.263   1.888  0.00  0.00    +0.060 A 
ATOM     15  C   UNL     1      -0.347   0.726   2.461  0.00  0.00    +0.159 A 
ATOM     16  C   UNL     1       0.996   0.502   2.725  0.00  0.00    +0.158 A 
ATOM     17  C   UNL     1       1.587  -0.691   2.346  0.00  0.00    +0.050 A 
BRANCH  15  18
ATOM     18  O   UNL     1      -0.914   1.929   2.771  0.00  0.00    -0.503 OA
ATOM     19  H   UNL     1      -0.181   2.466   3.136  0.00  0.00    +0.292 HD
ENDBRANCH  15  18
BRANCH  16  20
ATOM     20  O   UNL     1       1.690   1.478   3.380  0.00  0.00    -0.503 OA
ATOM     21  H   UNL     1       2.496   1.076   3.750  0.00  0.00    +0.292 HD
ENDBRANCH  16  20
ENDBRANCH   1  13
BRANCH   5  22
ATOM     22  O   UNL     1      -4.369  -6.343  -0.926  0.00  0.00    -0.506 OA
ATOM     23  H   UNL     1      -4.827  -5.477  -0.832  0.00  0.00    +0.292 HD
ENDBRANCH   5  22
BRANCH   7  24
ATOM     24  O   UNL     1      -0.146  -8.356  -0.084  0.00  0.00    -0.507 OA
ATOM     25  H   UNL     1      -0.649  -9.133  -0.383  0.00  0.00    +0.292 HD
ENDBRANCH   7  24
BRANCH  11  26
ATOM     26  O   UNL     1      -3.214  -1.271  -0.139  0.00  0.00    -0.453 OA
BRANCH  26  27
ATOM     27  C   UNL     1      -2.441  -0.380  -0.971  0.00  0.00    +0.340 C 
ATOM     28  O   UNL     1      -2.898   0.961  -0.788  0.00  0.00    -0.331 OA
ATOM     29  C   UNL     1      -3.588   1.685  -1.821  0.00  0.00    +0.179 C 
ATOM     30  C   UNL     1      -3.748   1.025  -3.203  0.00  0.00    +0.177 C 
ATOM     31  C   UNL     1      -3.655  -0.494  -3.147  0.00  0.00    +0.180 C 
ATOM     32  C   UNL     1      -2.374  -0.874  -2.421  0.00  0.00    +0.214 C 
BRANCH  30  33
ATOM     33  O   UNL     1      -4.958   1.414  -3.861  0.00  0.00    -0.386 OA
ATOM     34  H   UNL     1      -5.578   0.662  -3.768  0.00  0.00    +0.210 HD
ENDBRANCH  30  33
BRANCH  31  35
ATOM     35  O   UNL     1      -4.850  -1.028  -2.568  0.00  0.00    -0.386 OA
ATOM     36  H   UNL     1      -4.817  -0.964  -1.593  0.00  0.00    +0.210 HD
ENDBRANCH  31  35
BRANCH  32  37
ATOM     37  O   UNL     1      -1.253  -0.289  -3.110  0.00  0.00    -0.383 OA
ATOM     38  H   UNL     1      -0.526  -0.136  -2.479  0.00  0.00    +0.210 HD
ENDBRANCH  32  37
BRANCH  29  39
ATOM     39  C   UNL     1      -4.909   2.209  -1.232  0.00  0.00    +0.190 C 
BRANCH  39  40
ATOM     40  O   UNL     1      -4.670   2.926  -0.016  0.00  0.00    -0.392 OA
ATOM     41  H   UNL     1      -3.823   2.600   0.342  0.00  0.00    +0.210 HD
ENDBRANCH  39  40
ENDBRANCH  29  39
ENDBRANCH  26  27
ENDBRANCH  11  26
TORSDOF 12
