REMARK  Name = 
REMARK  7 active torsions:
REMARK  status: ('A' for Active; 'I' for Inactive)
REMARK    1  A    between atoms: C_1  and  O_2
REMARK    2  A    between atoms: O_2  and  C_3
REMARK    3  A    between atoms: C_5  and  O_23
REMARK    4  A    between atoms: C_10  and  C_15
REMARK    5  A    between atoms: C_11  and  O_14
REMARK    6  A    between atoms: C_17  and  O_22
REMARK    7  A    between atoms: C_18  and  O_21
REMARK                            x       y       z     vdW  Elec       q    Type
REMARK                         _______ _______ _______ _____ _____    ______ ____
ROOT
ATOM      1  C   UNL     1       3.048   1.292  -0.587  0.00  0.00    +0.127 A 
ATOM      2  C   UNL     1       2.677   2.616  -0.372  0.00  0.00    +0.092 A 
ATOM      3  C   UNL     1       3.351   3.650  -1.036  0.00  0.00    +0.147 A 
ATOM      4  O   UNL     1       2.916   4.918  -0.749  0.00  0.00    -0.451 OA
ATOM      5  C   UNL     1       3.474   5.980  -1.431  0.00  0.00    +0.181 A 
ATOM      6  C   UNL     1       4.460   5.879  -2.341  0.00  0.00    +0.208 A 
ATOM      7  C   UNL     1       5.040   4.525  -2.610  0.00  0.00    +0.238 A 
ATOM      8  O   UNL     1       5.994   4.398  -3.368  0.00  0.00    -0.283 OA
ATOM      9  C   UNL     1       4.394   3.379  -1.922  0.00  0.00    +0.109 A 
ATOM     10  C   UNL     1       4.772   2.046  -2.121  0.00  0.00    +0.135 A 
ATOM     11  C   UNL     1       4.102   1.011  -1.460  0.00  0.00    +0.092 A 
ENDROOT
BRANCH   5  12
ATOM     12  C   UNL     1       2.869   7.262  -1.038  0.00  0.00    +0.025 A 
ATOM     13  C   UNL     1       1.703   7.711  -1.679  0.00  0.00    +0.015 A 
ATOM     14  C   UNL     1       1.065   8.876  -1.249  0.00  0.00    +0.050 A 
ATOM     15  C   UNL     1       1.596   9.586  -0.182  0.00  0.00    +0.158 A 
ATOM     16  C   UNL     1       2.773   9.170   0.437  0.00  0.00    +0.159 A 
ATOM     17  C   UNL     1       3.419   8.012   0.015  0.00  0.00    +0.060 A 
BRANCH  15  18
ATOM     18  O   UNL     1       0.941  10.695   0.270  0.00  0.00    -0.503 OA
ATOM     19  H   UNL     1       1.456  10.988   1.048  0.00  0.00    +0.292 HD
ENDBRANCH  15  18
BRANCH  16  20
ATOM     20  O   UNL     1       3.246   9.931   1.470  0.00  0.00    -0.503 OA
ATOM     21  H   UNL     1       4.101   9.567   1.757  0.00  0.00    +0.292 HD
ENDBRANCH  16  20
ENDBRANCH   5  12
BRANCH   1  23
ATOM     22  C   UNL     1       1.362   0.419   0.847  0.00  0.00    +0.277 C 
ATOM     23  O   UNL     1       2.472   0.192  -0.014  0.00  0.00    -0.495 OA
ENDBRANCH   1  23
BRANCH   6  24
ATOM     24  O   UNL     1       4.984   6.952  -3.042  0.00  0.00    -0.501 OA
ATOM     25  H   UNL     1       4.416   7.729  -2.915  0.00  0.00    +0.292 HD
ENDBRANCH   6  24
BRANCH  10  26
ATOM     26  O   UNL     1       5.791   1.721  -2.971  0.00  0.00    -0.506 OA
ATOM     27  H   UNL     1       5.941   0.762  -2.975  0.00  0.00    +0.292 HD
ENDBRANCH  10  26
TORSDOF 6
