REMARK  Name = 
REMARK  9 active torsions:
REMARK  status: ('A' for Active; 'I' for Inactive)
REMARK    1  A    between atoms: C_1  and  O_2
REMARK    2  A    between atoms: O_2  and  C_3
REMARK    3  A    between atoms: C_5  and  O_25
REMARK    4  A    between atoms: C_10  and  C_16
REMARK    5  A    between atoms: C_11  and  O_14
REMARK    6  A    between atoms: O_14  and  C_15
REMARK    7  A    between atoms: C_18  and  O_23
REMARK    8  A    between atoms: C_19  and  O_22
REMARK    9  A    between atoms: O_23  and  C_24
REMARK                            x       y       z     vdW  Elec       q    Type
REMARK                         _______ _______ _______ _____ _____    ______ ____
ROOT
ATOM      1  C   UNL     1       3.202  -0.908  -0.992  0.00  0.00    +0.127 A 
ATOM      2  C   UNL     1       4.067  -0.507  -2.013  0.00  0.00    +0.092 A 
ATOM      3  C   UNL     1       4.617  -1.448  -2.893  0.00  0.00    +0.147 A 
ATOM      4  O   UNL     1       5.481  -0.969  -3.843  0.00  0.00    -0.451 OA
ATOM      5  C   UNL     1       5.991  -1.847  -4.782  0.00  0.00    +0.181 A 
ATOM      6  C   UNL     1       5.756  -3.174  -4.821  0.00  0.00    +0.211 A 
ATOM      7  C   UNL     1       4.896  -3.747  -3.732  0.00  0.00    +0.238 A 
ATOM      8  O   UNL     1       4.703  -4.953  -3.628  0.00  0.00    -0.283 OA
ATOM      9  C   UNL     1       4.290  -2.795  -2.773  0.00  0.00    +0.109 A 
ATOM     10  C   UNL     1       3.404  -3.190  -1.757  0.00  0.00    +0.135 A 
ATOM     11  C   UNL     1       2.863  -2.254  -0.873  0.00  0.00    +0.092 A 
ENDROOT
BRANCH   5  12
ATOM     12  C   UNL     1       6.839  -1.170  -5.786  0.00  0.00    +0.025 A 
ATOM     13  C   UNL     1       6.240  -0.561  -6.898  0.00  0.00    +0.015 A 
ATOM     14  C   UNL     1       7.016   0.146  -7.816  0.00  0.00    +0.050 A 
ATOM     15  C   UNL     1       8.386   0.243  -7.617  0.00  0.00    +0.158 A 
ATOM     16  C   UNL     1       9.015  -0.378  -6.532  0.00  0.00    +0.162 A 
ATOM     17  C   UNL     1       8.235  -1.091  -5.617  0.00  0.00    +0.061 A 
BRANCH  15  18
ATOM     18  O   UNL     1       9.119   0.977  -8.510  0.00  0.00    -0.503 OA
ATOM     19  H   UNL     1      10.034   0.948  -8.167  0.00  0.00    +0.292 HD
ENDBRANCH  15  18
BRANCH  16  20
ATOM     20  O   UNL     1      10.373  -0.190  -6.481  0.00  0.00    -0.491 OA
ATOM     21  C   UNL     1      11.080  -0.849  -5.439  0.00  0.00    +0.277 C 
ENDBRANCH  16  20
ENDBRANCH   5  12
BRANCH   1  23
ATOM     22  C   UNL     1       2.316  -0.302   1.117  0.00  0.00    +0.277 C 
ATOM     23  O   UNL     1       2.718   0.091  -0.193  0.00  0.00    -0.495 OA
ENDBRANCH   1  23
BRANCH   6  24
ATOM     24  O   UNL     1       6.281  -3.941  -5.855  0.00  0.00    -0.488 OA
ATOM     25  C   UNL     1       6.418  -5.339  -5.631  0.00  0.00    +0.277 C 
ENDBRANCH   6  24
BRANCH  10  26
ATOM     26  O   UNL     1       3.040  -4.499  -1.611  0.00  0.00    -0.506 OA
ATOM     27  H   UNL     1       2.415  -4.608  -0.878  0.00  0.00    +0.292 HD
ENDBRANCH  10  26
TORSDOF 6
