REMARK  Name = 
REMARK  7 active torsions:
REMARK  status: ('A' for Active; 'I' for Inactive)
REMARK    1  A    between atoms: C_1  and  O_2
REMARK    2  A    between atoms: O_2  and  C_3
REMARK    3  A    between atoms: C_5  and  O_23
REMARK    4  A    between atoms: C_11  and  O_22
REMARK    5  A    between atoms: C_12  and  C_14
REMARK    6  A    between atoms: C_16  and  O_21
REMARK    7  A    between atoms: C_17  and  O_20
REMARK                            x       y       z     vdW  Elec       q    Type
REMARK                         _______ _______ _______ _____ _____    ______ ____
ROOT
ATOM      1  C   UNL     1       2.965   1.178   0.116  0.00  0.00    +0.138 A 
ATOM      2  C   UNL     1       2.189   2.358   0.085  0.00  0.00    +0.109 A 
ATOM      3  C   UNL     1       0.714   2.430   0.071  0.00  0.00    +0.238 A 
ATOM      4  C   UNL     1       0.068   3.756   0.116  0.00  0.00    +0.208 A 
ATOM      5  C   UNL     1       0.811   4.867   0.025  0.00  0.00    +0.181 A 
ATOM      6  O   UNL     1       2.198   4.833   0.013  0.00  0.00    -0.451 OA
ATOM      7  O   UNL     1      -0.070   1.491   0.003  0.00  0.00    -0.283 OA
ATOM      8  C   UNL     1       2.846   3.610   0.078  0.00  0.00    +0.147 A 
ATOM      9  C   UNL     1       4.242   3.695   0.122  0.00  0.00    +0.092 A 
ATOM     10  C   UNL     1       4.994   2.533   0.158  0.00  0.00    +0.124 A 
ATOM     11  C   UNL     1       4.371   1.297   0.149  0.00  0.00    +0.092 A 
ENDROOT
BRANCH   5  12
ATOM     12  C   UNL     1       0.205   6.222  -0.105  0.00  0.00    +0.025 A 
ATOM     13  C   UNL     1       0.829   7.373   0.412  0.00  0.00    +0.015 A 
ATOM     14  C   UNL     1       0.237   8.640   0.271  0.00  0.00    +0.050 A 
ATOM     15  C   UNL     1      -0.981   8.762  -0.384  0.00  0.00    +0.158 A 
ATOM     16  C   UNL     1      -1.608   7.643  -0.910  0.00  0.00    +0.159 A 
ATOM     17  C   UNL     1      -1.014   6.393  -0.795  0.00  0.00    +0.060 A 
BRANCH  15  18
ATOM     18  O   UNL     1      -1.563   9.989  -0.517  0.00  0.00    -0.503 OA
ATOM     19  H   UNL     1      -2.388   9.813  -1.014  0.00  0.00    +0.292 HD
ENDBRANCH  15  18
BRANCH  16  20
ATOM     20  O   UNL     1      -2.813   7.809  -1.536  0.00  0.00    -0.503 OA
ATOM     21  H   UNL     1      -3.165   6.925  -1.744  0.00  0.00    +0.292 HD
ENDBRANCH  16  20
ENDBRANCH   5  12
BRANCH   1  23
ATOM     22  C   UNL     1       1.335  -0.651   0.075  0.00  0.00    +0.277 C 
ATOM     23  O   UNL     1       2.655  -0.152   0.125  0.00  0.00    -0.494 OA
ENDBRANCH   1  23
BRANCH   4  24
ATOM     24  O   UNL     1      -1.318   3.733   0.190  0.00  0.00    -0.501 OA
ATOM     25  H   UNL     1      -1.544   2.776   0.171  0.00  0.00    +0.292 HD
ENDBRANCH   4  24
BRANCH  10  26
ATOM     26  O   UNL     1       6.351   2.636   0.203  0.00  0.00    -0.507 OA
ATOM     27  H   UNL     1       6.742   1.748   0.223  0.00  0.00    +0.292 HD
ENDBRANCH  10  26
TORSDOF 6
