REMARK  Name = 
REMARK  18 active torsions:
REMARK  status: ('A' for Active; 'I' for Inactive)
REMARK    1  A    between atoms: C_3  and  O_54
REMARK    2  A    between atoms: C_4  and  O_53
REMARK    3  A    between atoms: C_6  and  C_7
REMARK    4  A    between atoms: C_8  and  O_20
REMARK    5  A    between atoms: C_12  and  O_19
REMARK    6  A    between atoms: C_14  and  O_18
REMARK    7  A    between atoms: O_20  and  C_21
REMARK    8  A    between atoms: C_23  and  O_36
REMARK    9  A    between atoms: C_25  and  O_35
REMARK   10  A    between atoms: C_27  and  O_34
REMARK   11  A    between atoms: C_29  and  C_32
REMARK   12  A    between atoms: C_32  and  O_33
REMARK   13  A    between atoms: O_36  and  C_37
REMARK   14  A    between atoms: C_39  and  O_52
REMARK   15  A    between atoms: C_41  and  O_51
REMARK   16  A    between atoms: C_43  and  O_50
REMARK   17  A    between atoms: C_45  and  C_48
REMARK   18  A    between atoms: C_48  and  O_49
REMARK                            x       y       z     vdW  Elec       q    Type
REMARK                         _______ _______ _______ _____ _____    ______ ____
ROOT
ATOM      1  C   UNL     1      -2.449  -0.918  -1.074  0.00  0.00    +0.340 C 
ATOM      2  O   UNL     1      -2.728   0.072  -2.064  0.00  0.00    -0.331 OA
ATOM      3  C   UNL     1      -2.961  -0.288  -3.420  0.00  0.00    +0.179 C 
ATOM      4  C   UNL     1      -2.042  -1.425  -3.872  0.00  0.00    +0.177 C 
ATOM      5  C   UNL     1      -2.033  -2.606  -2.885  0.00  0.00    +0.180 C 
ATOM      6  C   UNL     1      -1.682  -2.239  -1.442  0.00  0.00    +0.221 C 
ENDROOT
BRANCH   5   7
ATOM      7  O   UNL     1      -3.312  -3.257  -2.906  0.00  0.00    -0.386 OA
ATOM      8  H   UNL     1      -3.909  -2.827  -2.262  0.00  0.00    +0.210 HD
ENDBRANCH   5   7
BRANCH   4   9
ATOM      9  O   UNL     1      -0.762  -0.831  -4.092  0.00  0.00    -0.386 OA
ATOM     10  H   UNL     1      -0.021  -1.360  -3.744  0.00  0.00    +0.210 HD
ENDBRANCH   4   9
BRANCH   6  11
ATOM     11  O   UNL     1      -0.262  -2.163  -1.148  0.00  0.00    -0.337 OA
BRANCH  11  12
ATOM     12  C   UNL     1       0.485  -3.403  -1.119  0.00  0.00    +0.282 C 
ATOM     13  O   UNL     1       1.413  -3.472  -0.012  0.00  0.00    -0.341 OA
ATOM     14  C   UNL     1       2.565  -2.593  -0.007  0.00  0.00    +0.178 C 
ATOM     15  C   UNL     1       3.203  -2.265  -1.386  0.00  0.00    +0.177 C 
ATOM     16  C   UNL     1       2.224  -2.362  -2.559  0.00  0.00    +0.179 C 
ATOM     17  C   UNL     1       1.325  -3.594  -2.393  0.00  0.00    +0.201 C 
BRANCH  17  18
ATOM     18  O   UNL     1       2.130  -4.787  -2.335  0.00  0.00    -0.384 OA
ATOM     19  H   UNL     1       2.242  -5.025  -1.391  0.00  0.00    +0.210 HD
ENDBRANCH  17  18
BRANCH  16  20
ATOM     20  O   UNL     1       1.456  -1.170  -2.695  0.00  0.00    -0.386 OA
ATOM     21  H   UNL     1       1.066  -0.949  -1.817  0.00  0.00    +0.210 HD
ENDBRANCH  16  20
BRANCH  15  22
ATOM     22  O   UNL     1       4.293  -3.185  -1.611  0.00  0.00    -0.386 OA
ATOM     23  H   UNL     1       3.972  -3.914  -2.180  0.00  0.00    +0.210 HD
ENDBRANCH  15  22
BRANCH  14  24
ATOM     24  C   UNL     1       2.237  -1.358   0.842  0.00  0.00    +0.190 C 
BRANCH  24  25
ATOM     25  O   UNL     1       1.108  -0.657   0.332  0.00  0.00    -0.392 OA
ATOM     26  H   UNL     1       0.385  -1.327   0.324  0.00  0.00    +0.210 HD
ENDBRANCH  24  25
ENDBRANCH  14  24
ENDBRANCH  11  12
ENDBRANCH   6  11
BRANCH   3  27
ATOM     27  C   UNL     1      -4.450  -0.482  -3.755  0.00  0.00    +0.190 C 
BRANCH  27  28
ATOM     28  O   UNL     1      -5.213   0.696  -3.474  0.00  0.00    -0.392 OA
ATOM     29  H   UNL     1      -4.764   1.455  -3.886  0.00  0.00    +0.210 HD
ENDBRANCH  27  28
ENDBRANCH   3  27
BRANCH   1  30
ATOM     30  O   UNL     1      -3.686  -1.322  -0.405  0.00  0.00    -0.453 OA
BRANCH  30  41
ATOM     31  C   UNL     1      -4.901  -0.640   1.596  0.00  0.00    +0.181 A 
ATOM     32  O   UNL     1      -4.830   0.090   2.833  0.00  0.00    -0.451 OA
ATOM     33  C   UNL     1      -3.643   0.730   3.173  0.00  0.00    +0.147 A 
ATOM     34  C   UNL     1      -2.417   0.352   2.610  0.00  0.00    +0.109 A 
ATOM     35  C   UNL     1      -1.210   0.997   2.941  0.00  0.00    +0.135 A 
ATOM     36  C   UNL     1      -1.213   2.044   3.847  0.00  0.00    +0.091 A 
ATOM     37  C   UNL     1      -2.410   2.429   4.427  0.00  0.00    +0.124 A 
ATOM     38  C   UNL     1      -2.475  -0.741   1.676  0.00  0.00    +0.238 A 
ATOM     39  O   UNL     1      -1.488  -1.457   1.481  0.00  0.00    -0.283 OA
ATOM     40  C   UNL     1      -3.625   1.786   4.101  0.00  0.00    +0.092 A 
ATOM     41  C   UNL     1      -3.757  -0.899   0.911  0.00  0.00    +0.214 A 
BRANCH  31  43
ATOM     42  C   UNL     1      -7.460  -0.828   1.989  0.00  0.00    +0.015 A 
ATOM     43  C   UNL     1      -6.320  -1.086   1.186  0.00  0.00    +0.025 A 
ATOM     44  C   UNL     1      -6.589  -1.856   0.031  0.00  0.00    +0.060 A 
ATOM     45  C   UNL     1      -7.886  -2.286  -0.315  0.00  0.00    +0.159 A 
ATOM     46  C   UNL     1      -8.978  -2.017   0.498  0.00  0.00    +0.158 A 
ATOM     47  C   UNL     1      -8.775  -1.293   1.657  0.00  0.00    +0.050 A 
BRANCH  46  48
ATOM     48  O   UNL     1     -10.193  -2.503   0.099  0.00  0.00    -0.503 OA
ATOM     49  H   UNL     1     -10.788  -2.562   0.867  0.00  0.00    +0.292 HD
ENDBRANCH  46  48
BRANCH  45  50
ATOM     50  O   UNL     1      -8.080  -3.006  -1.466  0.00  0.00    -0.503 OA
ATOM     51  H   UNL     1      -9.053  -3.103  -1.540  0.00  0.00    +0.292 HD
ENDBRANCH  45  50
ENDBRANCH  31  43
BRANCH  37  52
ATOM     52  O   UNL     1      -2.412   3.458   5.330  0.00  0.00    -0.507 OA
ATOM     53  H   UNL     1      -1.505   3.800   5.434  0.00  0.00    +0.292 HD
ENDBRANCH  37  52
BRANCH  35  54
ATOM     54  O   UNL     1       0.011   0.732   2.402  0.00  0.00    -0.506 OA
ATOM     55  H   UNL     1      -0.044   0.106   1.651  0.00  0.00    +0.292 HD
ENDBRANCH  35  54
ENDBRANCH  30  41
ENDBRANCH   1  30
TORSDOF 18
