REMARK  Name = 
REMARK  12 active torsions:
REMARK  status: ('A' for Active; 'I' for Inactive)
REMARK    1  A    between atoms: C_3  and  O_38
REMARK    2  A    between atoms: C_4  and  O_37
REMARK    3  A    between atoms: C_6  and  C_7
REMARK    4  A    between atoms: C_8  and  O_36
REMARK    5  A    between atoms: C_12  and  O_35
REMARK    6  A    between atoms: C_14  and  O_18
REMARK    7  A    between atoms: O_18  and  C_19
REMARK    8  A    between atoms: C_21  and  O_34
REMARK    9  A    between atoms: C_23  and  O_33
REMARK   10  A    between atoms: C_25  and  O_32
REMARK   11  A    between atoms: C_27  and  C_30
REMARK   12  A    between atoms: C_30  and  O_31
REMARK                            x       y       z     vdW  Elec       q    Type
REMARK                         _______ _______ _______ _____ _____    ______ ____
ROOT
ATOM      1  C   UNL     1      -1.416  -2.538  -0.204  0.00  0.00    +0.181 A 
ATOM      2  O   UNL     1      -0.675  -3.719  -0.008  0.00  0.00    -0.451 OA
ATOM      3  C   UNL     1      -1.297  -4.939  -0.205  0.00  0.00    +0.147 A 
ATOM      4  C   UNL     1      -2.657  -5.022  -0.495  0.00  0.00    +0.109 A 
ATOM      5  C   UNL     1      -3.269  -6.256  -0.676  0.00  0.00    +0.135 A 
ATOM      6  C   UNL     1      -2.532  -7.414  -0.565  0.00  0.00    +0.092 A 
ATOM      7  C   UNL     1      -1.168  -7.383  -0.227  0.00  0.00    +0.131 A 
ATOM      8  C   UNL     1      -3.443  -3.799  -0.630  0.00  0.00    +0.238 A 
ATOM      9  O   UNL     1      -4.658  -3.867  -0.834  0.00  0.00    -0.283 OA
ATOM     10  C   UNL     1      -0.544  -6.128  -0.080  0.00  0.00    +0.093 A 
ATOM     11  C   UNL     1      -2.718  -2.523  -0.560  0.00  0.00    +0.208 A 
ENDROOT
BRANCH   1  13
ATOM     12  C   UNL     1      -1.257  -0.087   0.444  0.00  0.00    +0.015 A 
ATOM     13  C   UNL     1      -0.638  -1.272  -0.025  0.00  0.00    +0.025 A 
ATOM     14  C   UNL     1       0.723  -1.204  -0.351  0.00  0.00    +0.060 A 
ATOM     15  C   UNL     1       1.389   0.021  -0.306  0.00  0.00    +0.159 A 
ATOM     16  C   UNL     1       0.730   1.193   0.055  0.00  0.00    +0.158 A 
ATOM     17  C   UNL     1      -0.594   1.147   0.451  0.00  0.00    +0.050 A 
BRANCH  15  18
ATOM     18  O   UNL     1       2.711   0.073  -0.648  0.00  0.00    -0.503 OA
ATOM     19  H   UNL     1       2.958   1.013  -0.538  0.00  0.00    +0.292 HD
ENDBRANCH  15  18
BRANCH  16  20
ATOM     20  O   UNL     1       1.428   2.366   0.002  0.00  0.00    -0.503 OA
ATOM     21  H   UNL     1       0.810   3.099   0.169  0.00  0.00    +0.292 HD
ENDBRANCH  16  20
ENDBRANCH   1  13
BRANCH   5  22
ATOM     22  O   UNL     1      -4.602  -6.412  -0.951  0.00  0.00    -0.506 OA
ATOM     23  H   UNL     1      -5.023  -5.522  -0.948  0.00  0.00    +0.292 HD
ENDBRANCH   5  22
BRANCH  11  24
ATOM     24  O   UNL     1      -3.454  -1.402  -0.889  0.00  0.00    -0.501 OA
ATOM     25  H   UNL     1      -2.864  -0.779  -1.345  0.00  0.00    +0.292 HD
ENDBRANCH  11  24
BRANCH   7  26
ATOM     26  O   UNL     1      -0.413  -8.533   0.015  0.00  0.00    -0.461 OA
BRANCH  26  27
ATOM     27  C   UNL     1      -1.227  -9.713   0.191  0.00  0.00    +0.339 C 
ATOM     28  O   UNL     1      -2.144  -9.564   1.280  0.00  0.00    -0.331 OA
ATOM     29  C   UNL     1      -1.655  -9.889   2.587  0.00  0.00    +0.179 C 
ATOM     30  C   UNL     1      -1.232 -11.362   2.606  0.00  0.00    +0.177 C 
ATOM     31  C   UNL     1      -0.108 -11.612   1.588  0.00  0.00    +0.180 C 
ATOM     32  C   UNL     1      -0.492 -11.083   0.196  0.00  0.00    +0.214 C 
BRANCH  30  33
ATOM     33  O   UNL     1      -2.380 -12.158   2.247  0.00  0.00    -0.386 OA
ATOM     34  H   UNL     1      -2.151 -13.094   2.389  0.00  0.00    +0.210 HD
ENDBRANCH  30  33
BRANCH  31  35
ATOM     35  O   UNL     1       1.129 -11.096   2.082  0.00  0.00    -0.386 OA
ATOM     36  H   UNL     1       1.494 -10.459   1.442  0.00  0.00    +0.210 HD
ENDBRANCH  31  35
BRANCH  32  37
ATOM     37  O   UNL     1      -1.396 -12.070  -0.366  0.00  0.00    -0.383 OA
ATOM     38  H   UNL     1      -2.208 -12.051   0.190  0.00  0.00    +0.210 HD
ENDBRANCH  32  37
BRANCH  29  39
ATOM     39  C   UNL     1      -0.578  -8.932   3.140  0.00  0.00    +0.190 C 
BRANCH  39  40
ATOM     40  O   UNL     1      -1.002  -7.568   3.176  0.00  0.00    -0.392 OA
ATOM     41  H   UNL     1      -1.961  -7.551   3.319  0.00  0.00    +0.210 HD
ENDBRANCH  39  40
ENDBRANCH  29  39
ENDBRANCH  26  27
ENDBRANCH   7  26
TORSDOF 12
