REMARK  Name = 
REMARK  24 active torsions:
REMARK  status: ('A' for Active; 'I' for Inactive)
REMARK    1  A    between atoms: C_3  and  O_70
REMARK    2  A    between atoms: C_4  and  O_69
REMARK    3  A    between atoms: C_6  and  C_7
REMARK    4  A    between atoms: C_8  and  O_20
REMARK    5  A    between atoms: C_12  and  O_19
REMARK    6  A    between atoms: C_14  and  O_18
REMARK    7  A    between atoms: O_20  and  C_21
REMARK    8  A    between atoms: C_23  and  O_36
REMARK    9  A    between atoms: C_25  and  O_35
REMARK   10  A    between atoms: C_27  and  O_34
REMARK   11  A    between atoms: C_29  and  C_32
REMARK   12  A    between atoms: C_32  and  O_33
REMARK   13  A    between atoms: O_36  and  C_37
REMARK   14  A    between atoms: C_39  and  O_52
REMARK   15  A    between atoms: C_41  and  O_51
REMARK   16  A    between atoms: C_43  and  O_50
REMARK   17  A    between atoms: C_45  and  C_48
REMARK   18  A    between atoms: C_48  and  O_49
REMARK   19  A    between atoms: O_52  and  C_53
REMARK   20  A    between atoms: C_55  and  O_68
REMARK   21  A    between atoms: C_57  and  O_67
REMARK   22  A    between atoms: C_59  and  O_66
REMARK   23  A    between atoms: C_61  and  C_64
REMARK   24  A    between atoms: C_64  and  O_65
REMARK                            x       y       z     vdW  Elec       q    Type
REMARK                         _______ _______ _______ _____ _____    ______ ____
ROOT
ATOM      1  C   UNL     1      -2.508  -0.723  -1.190  0.00  0.00    +0.340 C 
ATOM      2  O   UNL     1      -2.683   0.284  -2.195  0.00  0.00    -0.331 OA
ATOM      3  C   UNL     1      -2.962  -0.104  -3.539  0.00  0.00    +0.179 C 
ATOM      4  C   UNL     1      -1.966  -1.171  -3.986  0.00  0.00    +0.177 C 
ATOM      5  C   UNL     1      -1.925  -2.351  -3.017  0.00  0.00    +0.180 C 
ATOM      6  C   UNL     1      -1.700  -1.998  -1.528  0.00  0.00    +0.221 C 
ENDROOT
BRANCH   5   7
ATOM      7  O   UNL     1      -3.128  -3.114  -3.164  0.00  0.00    -0.386 OA
ATOM      8  H   UNL     1      -3.783  -2.816  -2.506  0.00  0.00    +0.210 HD
ENDBRANCH   5   7
BRANCH   4   9
ATOM      9  O   UNL     1      -0.682  -0.550  -4.105  0.00  0.00    -0.386 OA
ATOM     10  H   UNL     1       0.020  -1.111  -3.742  0.00  0.00    +0.210 HD
ENDBRANCH   4   9
BRANCH   6  11
ATOM     11  O   UNL     1      -0.304  -2.079  -1.185  0.00  0.00    -0.337 OA
BRANCH  11  12
ATOM     12  C   UNL     1       0.086  -2.580   0.127  0.00  0.00    +0.283 C 
ATOM     13  O   UNL     1       1.521  -2.734   0.144  0.00  0.00    -0.341 OA
ATOM     14  C   UNL     1       2.094  -3.726  -0.724  0.00  0.00    +0.178 C 
ATOM     15  C   UNL     1       1.403  -5.106  -0.705  0.00  0.00    +0.177 C 
ATOM     16  C   UNL     1      -0.094  -5.049  -0.341  0.00  0.00    +0.179 C 
ATOM     17  C   UNL     1      -0.519  -3.945   0.657  0.00  0.00    +0.208 C 
BRANCH  16  18
ATOM     18  O   UNL     1      -0.822  -4.871  -1.557  0.00  0.00    -0.386 OA
ATOM     19  H   UNL     1      -0.442  -4.085  -1.982  0.00  0.00    +0.210 HD
ENDBRANCH  16  18
BRANCH  15  20
ATOM     20  O   UNL     1       2.171  -5.987   0.105  0.00  0.00    -0.386 OA
ATOM     21  H   UNL     1       1.635  -6.728   0.423  0.00  0.00    +0.210 HD
ENDBRANCH  15  20
BRANCH  14  22
ATOM     22  C   UNL     1       2.229  -3.239  -2.179  0.00  0.00    +0.190 C 
BRANCH  22  23
ATOM     23  O   UNL     1       2.890  -1.988  -2.289  0.00  0.00    -0.392 OA
ATOM     24  H   UNL     1       3.576  -1.951  -1.600  0.00  0.00    +0.210 HD
ENDBRANCH  22  23
ENDBRANCH  14  22
BRANCH  17  25
ATOM     25  O   UNL     1      -0.100  -4.173   2.037  0.00  0.00    -0.338 OA
BRANCH  25  26
ATOM     26  C   UNL     1      -0.791  -5.195   2.795  0.00  0.00    +0.282 C 
ATOM     27  O   UNL     1      -0.824  -4.906   4.211  0.00  0.00    -0.341 OA
ATOM     28  C   UNL     1       0.412  -4.986   4.965  0.00  0.00    +0.178 C 
ATOM     29  C   UNL     1       1.317  -6.203   4.631  0.00  0.00    +0.177 C 
ATOM     30  C   UNL     1       1.331  -6.463   3.139  0.00  0.00    +0.179 C 
ATOM     31  C   UNL     1      -0.117  -6.563   2.620  0.00  0.00    +0.201 C 
BRANCH  31  32
ATOM     32  O   UNL     1      -0.854  -7.618   3.253  0.00  0.00    -0.384 OA
ATOM     33  H   UNL     1      -0.745  -7.516   4.224  0.00  0.00    +0.210 HD
ENDBRANCH  31  32
BRANCH  30  34
ATOM     34  O   UNL     1       2.123  -5.441   2.547  0.00  0.00    -0.386 OA
ATOM     35  H   UNL     1       1.565  -4.690   2.273  0.00  0.00    +0.210 HD
ENDBRANCH  30  34
BRANCH  29  36
ATOM     36  O   UNL     1       0.822  -7.381   5.287  0.00  0.00    -0.386 OA
ATOM     37  H   UNL     1       1.405  -8.121   5.017  0.00  0.00    +0.210 HD
ENDBRANCH  29  36
BRANCH  28  38
ATOM     38  C   UNL     1       1.160  -3.641   4.906  0.00  0.00    +0.190 C 
BRANCH  38  39
ATOM     39  O   UNL     1       0.355  -2.580   5.424  0.00  0.00    -0.392 OA
ATOM     40  H   UNL     1      -0.052  -2.885   6.252  0.00  0.00    +0.210 HD
ENDBRANCH  38  39
ENDBRANCH  28  38
ENDBRANCH  25  26
ENDBRANCH  17  25
ENDBRANCH  11  12
ENDBRANCH   6  11
BRANCH   3  41
ATOM     41  C   UNL     1      -4.456  -0.399  -3.785  0.00  0.00    +0.190 C 
BRANCH  41  42
ATOM     42  O   UNL     1      -4.733  -0.687  -5.153  0.00  0.00    -0.392 OA
ATOM     43  H   UNL     1      -4.589  -1.638  -5.299  0.00  0.00    +0.210 HD
ENDBRANCH  41  42
ENDBRANCH   3  41
BRANCH   1  44
ATOM     44  O   UNL     1      -3.800  -1.232  -0.804  0.00  0.00    -0.453 OA
BRANCH  44  55
ATOM     45  C   UNL     1      -4.887  -2.566   0.870  0.00  0.00    +0.181 A 
ATOM     46  O   UNL     1      -5.389  -2.651   2.179  0.00  0.00    -0.451 OA
ATOM     47  C   UNL     1      -5.039  -1.674   3.095  0.00  0.00    +0.147 A 
ATOM     48  C   UNL     1      -3.928  -0.862   2.924  0.00  0.00    +0.109 A 
ATOM     49  C   UNL     1      -3.481   0.006   3.939  0.00  0.00    +0.135 A 
ATOM     50  C   UNL     1      -4.178   0.081   5.132  0.00  0.00    +0.091 A 
ATOM     51  C   UNL     1      -5.335  -0.679   5.276  0.00  0.00    +0.124 A 
ATOM     52  C   UNL     1      -3.247  -0.954   1.642  0.00  0.00    +0.238 A 
ATOM     53  O   UNL     1      -2.111  -0.483   1.572  0.00  0.00    -0.283 OA
ATOM     54  C   UNL     1      -5.777  -1.544   4.266  0.00  0.00    +0.092 A 
ATOM     55  C   UNL     1      -3.986  -1.614   0.517  0.00  0.00    +0.214 A 
BRANCH  45  57
ATOM     56  C   UNL     1      -6.910  -3.631  -0.200  0.00  0.00    +0.015 A 
ATOM     57  C   UNL     1      -5.515  -3.569  -0.071  0.00  0.00    +0.025 A 
ATOM     58  C   UNL     1      -4.782  -4.547  -0.805  0.00  0.00    +0.060 A 
ATOM     59  C   UNL     1      -5.431  -5.482  -1.643  0.00  0.00    +0.159 A 
ATOM     60  C   UNL     1      -6.814  -5.512  -1.738  0.00  0.00    +0.158 A 
ATOM     61  C   UNL     1      -7.565  -4.586  -1.032  0.00  0.00    +0.050 A 
BRANCH  60  62
ATOM     62  O   UNL     1      -7.452  -6.428  -2.519  0.00  0.00    -0.503 OA
ATOM     63  H   UNL     1      -7.220  -7.306  -2.173  0.00  0.00    +0.292 HD
ENDBRANCH  60  62
BRANCH  59  64
ATOM     64  O   UNL     1      -4.698  -6.351  -2.403  0.00  0.00    -0.503 OA
ATOM     65  H   UNL     1      -5.267  -6.608  -3.155  0.00  0.00    +0.292 HD
ENDBRANCH  59  64
ENDBRANCH  45  57
BRANCH  51  66
ATOM     66  O   UNL     1      -6.070  -0.612   6.424  0.00  0.00    -0.507 OA
ATOM     67  H   UNL     1      -5.576  -0.081   7.075  0.00  0.00    +0.292 HD
ENDBRANCH  51  66
BRANCH  49  68
ATOM     68  O   UNL     1      -2.381   0.818   3.819  0.00  0.00    -0.506 OA
ATOM     69  H   UNL     1      -1.929   0.620   2.970  0.00  0.00    +0.292 HD
ENDBRANCH  49  68
ENDBRANCH  44  55
ENDBRANCH   1  44
TORSDOF 24
