REMARK  Name = 
REMARK  16 active torsions:
REMARK  status: ('A' for Active; 'I' for Inactive)
REMARK    1  A    between atoms: C_3  and  O_44
REMARK    2  A    between atoms: C_4  and  O_43
REMARK    3  A    between atoms: C_6  and  C_7
REMARK    4  A    between atoms: C_8  and  O_20
REMARK    5  A    between atoms: C_12  and  O_19
REMARK    6  A    between atoms: C_14  and  O_18
REMARK    7  A    between atoms: O_20  and  C_21
REMARK    8  A    between atoms: C_23  and  O_42
REMARK    9  A    between atoms: C_25  and  O_41
REMARK   10  A    between atoms: C_27  and  O_40
REMARK   11  A    between atoms: C_29  and  C_32
REMARK   12  A    between atoms: C_32  and  O_33
REMARK   13  A    between atoms: O_33  and  C_34
REMARK   14  A    between atoms: C_34  and  C_36
REMARK   15  A    between atoms: C_36  and  C_37
REMARK   16  A    between atoms: C_37  and  O_39
REMARK                            x       y       z     vdW  Elec       q    Type
REMARK                         _______ _______ _______ _____ _____    ______ ____
ROOT
ATOM      1  C   UNL     1      -3.103  -3.386   1.507  0.00  0.00    +0.181 A 
ATOM      2  O   UNL     1      -2.309  -4.067   2.451  0.00  0.00    -0.451 OA
ATOM      3  C   UNL     1      -0.991  -3.748   2.615  0.00  0.00    +0.147 A 
ATOM      4  C   UNL     1      -0.329  -2.887   1.768  0.00  0.00    +0.109 A 
ATOM      5  C   UNL     1       1.044  -2.625   1.909  0.00  0.00    +0.135 A 
ATOM      6  C   UNL     1       1.753  -3.224   2.932  0.00  0.00    +0.091 A 
ATOM      7  C   UNL     1       1.086  -4.097   3.784  0.00  0.00    +0.124 A 
ATOM      8  C   UNL     1      -1.090  -2.254   0.726  0.00  0.00    +0.238 A 
ATOM      9  O   UNL     1      -0.444  -1.600  -0.086  0.00  0.00    -0.283 OA
ATOM     10  C   UNL     1      -0.276  -4.367   3.639  0.00  0.00    +0.092 A 
ATOM     11  C   UNL     1      -2.582  -2.439   0.681  0.00  0.00    +0.214 A 
ENDROOT
BRANCH   1  13
ATOM     12  C   UNL     1      -4.899  -4.823   2.567  0.00  0.00    +0.015 A 
ATOM     13  C   UNL     1      -4.527  -3.914   1.539  0.00  0.00    +0.025 A 
ATOM     14  C   UNL     1      -5.500  -3.669   0.556  0.00  0.00    +0.060 A 
ATOM     15  C   UNL     1      -6.730  -4.343   0.577  0.00  0.00    +0.159 A 
ATOM     16  C   UNL     1      -7.031  -5.276   1.560  0.00  0.00    +0.158 A 
ATOM     17  C   UNL     1      -6.127  -5.507   2.575  0.00  0.00    +0.050 A 
BRANCH  16  18
ATOM     18  O   UNL     1      -8.217  -5.950   1.470  0.00  0.00    -0.503 OA
ATOM     19  H   UNL     1      -8.195  -6.691   2.099  0.00  0.00    +0.292 HD
ENDBRANCH  16  18
BRANCH  15  20
ATOM     20  O   UNL     1      -7.647  -4.103  -0.409  0.00  0.00    -0.503 OA
ATOM     21  H   UNL     1      -8.400  -4.690  -0.191  0.00  0.00    +0.292 HD
ENDBRANCH  15  20
ENDBRANCH   1  13
BRANCH   7  22
ATOM     22  O   UNL     1       1.759  -4.720   4.795  0.00  0.00    -0.507 OA
ATOM     23  H   UNL     1       2.704  -4.504   4.710  0.00  0.00    +0.292 HD
ENDBRANCH   7  22
BRANCH   5  24
ATOM     24  O   UNL     1       1.741  -1.791   1.080  0.00  0.00    -0.506 OA
ATOM     25  H   UNL     1       1.138  -1.504   0.353  0.00  0.00    +0.292 HD
ENDBRANCH   5  24
BRANCH  11  26
ATOM     26  O   UNL     1      -3.345  -1.690  -0.208  0.00  0.00    -0.453 OA
BRANCH  26  27
ATOM     27  C   UNL     1      -2.655  -0.747  -1.064  0.00  0.00    +0.340 C 
ATOM     28  O   UNL     1      -3.606   0.237  -1.442  0.00  0.00    -0.330 OA
ATOM     29  C   UNL     1      -3.785   0.631  -2.804  0.00  0.00    +0.191 C 
ATOM     30  C   UNL     1      -3.486  -0.414  -3.911  0.00  0.00    +0.178 C 
ATOM     31  C   UNL     1      -3.092  -1.761  -3.314  0.00  0.00    +0.180 C 
ATOM     32  C   UNL     1      -2.020  -1.499  -2.259  0.00  0.00    +0.214 C 
BRANCH  32  33
ATOM     33  O   UNL     1      -0.939  -0.754  -2.864  0.00  0.00    -0.383 OA
ATOM     34  H   UNL     1      -0.706  -0.017  -2.268  0.00  0.00    +0.210 HD
ENDBRANCH  32  33
BRANCH  31  35
ATOM     35  O   UNL     1      -4.225  -2.454  -2.793  0.00  0.00    -0.386 OA
ATOM     36  H   UNL     1      -4.621  -1.926  -2.074  0.00  0.00    +0.210 HD
ENDBRANCH  31  35
BRANCH  30  37
ATOM     37  O   UNL     1      -2.433   0.085  -4.764  0.00  0.00    -0.386 OA
ATOM     38  H   UNL     1      -1.579  -0.236  -4.391  0.00  0.00    +0.210 HD
ENDBRANCH  30  37
BRANCH  29  39
ATOM     39  C   UNL     1      -5.269   1.012  -2.815  0.00  0.00    +0.266 C 
BRANCH  39  40
ATOM     40  O   UNL     1      -5.731   1.420  -4.095  0.00  0.00    -0.462 OA
BRANCH  40  41
ATOM     41  C   UNL     1      -5.496   2.720  -4.405  0.00  0.00    +0.318 C 
ATOM     42  O   UNL     1      -4.844   3.506  -3.730  0.00  0.00    -0.250 OA
BRANCH  41  43
ATOM     43  C   UNL     1      -6.079   3.041  -5.739  0.00  0.00    +0.240 C 
BRANCH  43  44
ATOM     44  C   UNL     1      -7.573   2.919  -5.770  0.00  0.00    +0.316 C 
ATOM     45  O   UNL     1      -8.285   2.616  -4.830  0.00  0.00    -0.250 OA
BRANCH  44  46
ATOM     46  O   UNL     1      -8.084   3.192  -6.997  0.00  0.00    -0.480 OA
ATOM     47  H   UNL     1      -7.418   3.432  -7.668  0.00  0.00    +0.295 HD
ENDBRANCH  44  46
ENDBRANCH  43  44
ENDBRANCH  41  43
ENDBRANCH  40  41
ENDBRANCH  39  40
ENDBRANCH  29  39
ENDBRANCH  26  27
ENDBRANCH  11  26
TORSDOF 16
