REMARK  Name = 
REMARK  6 active torsions:
REMARK  status: ('A' for Active; 'I' for Inactive)
REMARK    1  A    between atoms: C_3  and  O_22
REMARK    2  A    between atoms: C_4  and  O_21
REMARK    3  A    between atoms: C_6  and  C_7
REMARK    4  A    between atoms: C_8  and  O_20
REMARK    5  A    between atoms: C_12  and  O_19
REMARK    6  A    between atoms: C_14  and  O_18
REMARK                            x       y       z     vdW  Elec       q    Type
REMARK                         _______ _______ _______ _____ _____    ______ ____
ROOT
ATOM      1  C   UNL     1      -1.672  -2.430  -0.681  0.00  0.00    +0.181 A 
ATOM      2  O   UNL     1      -0.832  -3.508  -0.390  0.00  0.00    -0.451 OA
ATOM      3  C   UNL     1      -1.347  -4.783  -0.402  0.00  0.00    +0.147 A 
ATOM      4  C   UNL     1      -2.697  -5.043  -0.603  0.00  0.00    +0.109 A 
ATOM      5  C   UNL     1      -3.171  -6.363  -0.635  0.00  0.00    +0.135 A 
ATOM      6  C   UNL     1      -2.295  -7.428  -0.454  0.00  0.00    +0.091 A 
ATOM      7  C   UNL     1      -0.948  -7.159  -0.235  0.00  0.00    +0.124 A 
ATOM      8  C   UNL     1      -3.597  -3.912  -0.798  0.00  0.00    +0.238 A 
ATOM      9  O   UNL     1      -4.805  -4.116  -0.913  0.00  0.00    -0.283 OA
ATOM     10  C   UNL     1      -0.465  -5.851  -0.208  0.00  0.00    +0.092 A 
ATOM     11  C   UNL     1      -2.999  -2.562  -0.903  0.00  0.00    +0.208 A 
ENDROOT
BRANCH   1  13
ATOM     12  C   UNL     1      -1.545   0.070  -0.244  0.00  0.00    +0.015 A 
ATOM     13  C   UNL     1      -0.959  -1.122  -0.725  0.00  0.00    +0.025 A 
ATOM     14  C   UNL     1       0.360  -1.056  -1.202  0.00  0.00    +0.060 A 
ATOM     15  C   UNL     1       1.047   0.155  -1.188  0.00  0.00    +0.159 A 
ATOM     16  C   UNL     1       0.439   1.325  -0.747  0.00  0.00    +0.158 A 
ATOM     17  C   UNL     1      -0.867   1.295  -0.286  0.00  0.00    +0.050 A 
BRANCH  15  18
ATOM     18  O   UNL     1       2.370   0.176  -1.539  0.00  0.00    -0.503 OA
ATOM     19  H   UNL     1       2.630   1.115  -1.422  0.00  0.00    +0.292 HD
ENDBRANCH  15  18
BRANCH  16  20
ATOM     20  O   UNL     1       1.187   2.468  -0.735  0.00  0.00    -0.503 OA
ATOM     21  H   UNL     1       0.702   3.136  -0.218  0.00  0.00    +0.292 HD
ENDBRANCH  16  20
ENDBRANCH   1  13
BRANCH   5  22
ATOM     22  O   UNL     1      -4.486  -6.680  -0.849  0.00  0.00    -0.506 OA
ATOM     23  H   UNL     1      -4.993  -5.839  -0.931  0.00  0.00    +0.292 HD
ENDBRANCH   5  22
BRANCH   7  24
ATOM     24  O   UNL     1      -0.053  -8.172  -0.046  0.00  0.00    -0.507 OA
ATOM     25  H   UNL     1      -0.529  -9.021  -0.073  0.00  0.00    +0.292 HD
ENDBRANCH   7  24
BRANCH  11  26
ATOM     26  O   UNL     1      -3.861  -1.534  -1.243  0.00  0.00    -0.501 OA
ATOM     27  H   UNL     1      -3.354  -0.823  -1.667  0.00  0.00    +0.292 HD
ENDBRANCH  11  26
TORSDOF 6
REMARK  Name = 
REMARK  6 active torsions:
REMARK  status: ('A' for Active; 'I' for Inactive)
REMARK    1  A    between atoms: C_3  and  O_22
REMARK    2  A    between atoms: C_4  and  O_21
REMARK    3  A    between atoms: C_6  and  C_7
REMARK    4  A    between atoms: C_8  and  O_20
REMARK    5  A    between atoms: C_12  and  O_19
REMARK    6  A    between atoms: C_14  and  O_18
REMARK                            x       y       z     vdW  Elec       q    Type
REMARK                         _______ _______ _______ _____ _____    ______ ____
ROOT
ATOM      1  O   HOH     1       0.695   0.097   2.358  0.00  0.00    -0.410 OA
ATOM      2  H   HOH     0       0.010  -0.464   1.963  0.00  0.00    +0.205 HD
ATOM      3  H   HOH     0       1.505  -0.335   2.007  0.00  0.00    +0.205 HD
ENDROOT
TORSDOF 0
REMARK  Name = 
REMARK  6 active torsions:
REMARK  status: ('A' for Active; 'I' for Inactive)
REMARK    1  A    between atoms: C_3  and  O_22
REMARK    2  A    between atoms: C_4  and  O_21
REMARK    3  A    between atoms: C_6  and  C_7
REMARK    4  A    between atoms: C_8  and  O_20
REMARK    5  A    between atoms: C_12  and  O_19
REMARK    6  A    between atoms: C_14  and  O_18
REMARK                            x       y       z     vdW  Elec       q    Type
REMARK                         _______ _______ _______ _____ _____    ______ ____
ROOT
ATOM      1  O   HOH     1       2.823  -1.223   1.144  0.00  0.00    -0.410 OA
ATOM      2  H   HOH     0       2.719  -1.418   0.194  0.00  0.00    +0.205 HD
ATOM      3  H   HOH     0       3.656  -0.721   1.147  0.00  0.00    +0.205 HD
ENDROOT
TORSDOF 0
