REMARK  Name = 
REMARK  20 active torsions:
REMARK  status: ('A' for Active; 'I' for Inactive)
REMARK    1  A    between atoms: C_1  and  O_2
REMARK    2  A    between atoms: O_2  and  C_3
REMARK    3  A    between atoms: C_4  and  O_50
REMARK    4  A    between atoms: C_6  and  C_9
REMARK    5  A    between atoms: C_10  and  O_36
REMARK    6  A    between atoms: C_14  and  O_35
REMARK    7  A    between atoms: C_16  and  O_20
REMARK    8  A    between atoms: O_20  and  C_21
REMARK    9  A    between atoms: C_23  and  O_34
REMARK   10  A    between atoms: C_24  and  O_33
REMARK   11  A    between atoms: C_26  and  O_32
REMARK   12  A    between atoms: C_28  and  C_30
REMARK   13  A    between atoms: C_30  and  O_31
REMARK   14  A    between atoms: O_36  and  C_37
REMARK   15  A    between atoms: C_39  and  O_49
REMARK   16  A    between atoms: C_40  and  O_48
REMARK   17  A    between atoms: C_41  and  O_47
REMARK   18  A    between atoms: C_43  and  C_45
REMARK   19  A    between atoms: C_45  and  O_46
REMARK   20  A    between atoms: O_50  and  C_51
REMARK                            x       y       z     vdW  Elec       q    Type
REMARK                         _______ _______ _______ _____ _____    ______ ____
ROOT
ATOM      1  C   UNL     1       5.452  -2.285   4.484  0.00  0.00    +0.181 A 
ATOM      2  O   UNL     1       6.131  -1.642   5.519  0.00  0.00    -0.451 OA
ATOM      3  C   UNL     1       6.823  -2.340   6.451  0.00  0.00    +0.147 A 
ATOM      4  C   UNL     1       6.731  -3.710   6.563  0.00  0.00    +0.109 A 
ATOM      5  C   UNL     1       7.404  -4.333   7.620  0.00  0.00    +0.135 A 
ATOM      6  C   UNL     1       8.192  -3.593   8.520  0.00  0.00    +0.092 A 
ATOM      7  C   UNL     1       8.347  -2.219   8.343  0.00  0.00    +0.131 A 
ATOM      8  C   UNL     1       5.927  -4.431   5.551  0.00  0.00    +0.238 A 
ATOM      9  O   UNL     1       5.844  -5.648   5.678  0.00  0.00    -0.283 OA
ATOM     10  C   UNL     1       7.635  -1.587   7.319  0.00  0.00    +0.093 A 
ATOM     11  C   UNL     1       5.292  -3.638   4.416  0.00  0.00    +0.214 A 
ENDROOT
BRANCH   1  15
ATOM     12  C   UNL     1       4.632   1.236   2.087  0.00  0.00    +0.162 A 
ATOM     13  C   UNL     1       5.912   0.878   2.487  0.00  0.00    +0.050 A 
ATOM     14  C   UNL     1       6.122  -0.321   3.172  0.00  0.00    +0.015 A 
ATOM     15  C   UNL     1       5.071  -1.208   3.499  0.00  0.00    +0.025 A 
ATOM     16  C   UNL     1       3.775  -0.847   3.101  0.00  0.00    +0.061 A 
ATOM     17  C   UNL     1       3.553   0.386   2.434  0.00  0.00    +0.162 A 
BRANCH  17  18
ATOM     18  O   UNL     1       2.308   0.836   2.058  0.00  0.00    -0.491 OA
ATOM     19  C   UNL     1       1.253   0.604   2.983  0.00  0.00    +0.277 C 
ENDBRANCH  17  18
BRANCH  12  21
ATOM     20  C   UNL     1       5.315   2.956   0.578  0.00  0.00    +0.277 C 
ATOM     21  O   UNL     1       4.349   2.442   1.496  0.00  0.00    -0.491 OA
ENDBRANCH  12  21
ENDBRANCH   1  15
BRANCH   5  22
ATOM     22  O   UNL     1       7.341  -5.683   7.842  0.00  0.00    -0.506 OA
ATOM     23  H   UNL     1       6.798  -6.091   7.130  0.00  0.00    +0.292 HD
ENDBRANCH   5  22
BRANCH  11  24
ATOM     24  O   UNL     1       4.591  -4.230   3.366  0.00  0.00    -0.453 OA
BRANCH  24  25
ATOM     25  C   UNL     1       4.645  -5.674   3.130  0.00  0.00    +0.340 C 
ATOM     26  O   UNL     1       5.820  -6.087   2.415  0.00  0.00    -0.331 OA
ATOM     27  C   UNL     1       5.981  -5.400   1.165  0.00  0.00    +0.179 C 
ATOM     28  C   UNL     1       4.779  -5.600   0.204  0.00  0.00    +0.177 C 
ATOM     29  C   UNL     1       3.410  -5.480   0.917  0.00  0.00    +0.180 C 
ATOM     30  C   UNL     1       3.405  -6.122   2.319  0.00  0.00    +0.214 C 
BRANCH  30  31
ATOM     31  O   UNL     1       2.200  -5.786   3.028  0.00  0.00    -0.383 OA
ATOM     32  H   UNL     1       2.180  -4.817   3.128  0.00  0.00    +0.210 HD
ENDBRANCH  30  31
BRANCH  29  33
ATOM     33  O   UNL     1       2.385  -6.053   0.096  0.00  0.00    -0.386 OA
ATOM     34  H   UNL     1       2.834  -6.692  -0.498  0.00  0.00    +0.210 HD
ENDBRANCH  29  33
BRANCH  28  35
ATOM     35  O   UNL     1       4.757  -6.832  -0.540  0.00  0.00    -0.386 OA
ATOM     36  H   UNL     1       5.542  -7.372  -0.358  0.00  0.00    +0.210 HD
ENDBRANCH  28  35
BRANCH  27  37
ATOM     37  C   UNL     1       7.340  -5.777   0.535  0.00  0.00    +0.190 C 
BRANCH  37  38
ATOM     38  O   UNL     1       8.411  -5.788   1.480  0.00  0.00    -0.392 OA
ATOM     39  H   UNL     1       8.288  -5.050   2.098  0.00  0.00    +0.210 HD
ENDBRANCH  37  38
ENDBRANCH  27  37
ENDBRANCH  24  25
ENDBRANCH  11  24
BRANCH   7  40
ATOM     40  O   UNL     1       9.108  -1.410   9.150  0.00  0.00    -0.461 OA
BRANCH  40  41
ATOM     41  C   UNL     1      10.415  -1.921   9.497  0.00  0.00    +0.339 C 
ATOM     42  O   UNL     1      10.462  -2.427  10.833  0.00  0.00    -0.331 OA
ATOM     43  C   UNL     1      10.346  -1.432  11.870  0.00  0.00    +0.179 C 
ATOM     44  C   UNL     1      11.372  -0.281  11.736  0.00  0.00    +0.177 C 
ATOM     45  C   UNL     1      11.315   0.315  10.330  0.00  0.00    +0.180 C 
ATOM     46  C   UNL     1      11.480  -0.812   9.294  0.00  0.00    +0.214 C 
BRANCH  46  47
ATOM     47  O   UNL     1      11.485  -0.252   7.977  0.00  0.00    -0.383 OA
ATOM     48  H   UNL     1      11.103  -0.896   7.361  0.00  0.00    +0.210 HD
ENDBRANCH  46  47
BRANCH  45  49
ATOM     49  O   UNL     1      10.103   1.062  10.177  0.00  0.00    -0.386 OA
ATOM     50  H   UNL     1       9.370   0.444  10.000  0.00  0.00    +0.210 HD
ENDBRANCH  45  49
BRANCH  44  51
ATOM     51  O   UNL     1      12.700  -0.745  11.999  0.00  0.00    -0.386 OA
ATOM     52  H   UNL     1      13.299   0.021  11.955  0.00  0.00    +0.210 HD
ENDBRANCH  44  51
BRANCH  43  53
ATOM     53  C   UNL     1      10.512  -2.135  13.231  0.00  0.00    +0.190 C 
BRANCH  53  54
ATOM     54  O   UNL     1       9.532  -3.149  13.449  0.00  0.00    -0.392 OA
ATOM     55  H   UNL     1       8.762  -2.958  12.890  0.00  0.00    +0.210 HD
ENDBRANCH  53  54
ENDBRANCH  43  53
ENDBRANCH  40  41
ENDBRANCH   7  40
TORSDOF 18
