REMARK  Name = 
REMARK  17 active torsions:
REMARK  status: ('A' for Active; 'I' for Inactive)
REMARK    1  A    between atoms: C_1  and  C_2
REMARK    2  A    between atoms: C_3  and  O_43
REMARK    3  A    between atoms: C_4  and  O_42
REMARK    4  A    between atoms: C_5  and  O_41
REMARK    5  A    between atoms: C_6  and  O_8
REMARK    6  A    between atoms: O_8  and  C_9
REMARK    7  A    between atoms: C_9  and  C_10
REMARK    8  A    between atoms: C_11  and  O_40
REMARK    9  A    between atoms: C_12  and  O_39
REMARK   10  A    between atoms: C_13  and  O_38
REMARK   11  A    between atoms: C_14  and  O_16
REMARK   12  A    between atoms: O_16  and  C_17
REMARK   13  A    between atoms: C_18  and  C_30
REMARK   14  A    between atoms: C_22  and  O_29
REMARK   15  A    between atoms: C_24  and  O_28
REMARK   16  A    between atoms: C_32  and  O_37
REMARK   17  A    between atoms: C_33  and  O_36
REMARK                            x       y       z     vdW  Elec       q    Type
REMARK                         _______ _______ _______ _____ _____    ______ ____
ROOT
ATOM      1  C   UNL     1       3.042   3.596  -4.454  0.00  0.00    +0.179 C 
ATOM      2  O   UNL     1       3.689   4.523  -3.549  0.00  0.00    -0.331 OA
ATOM      3  C   UNL     1       2.955   5.619  -2.984  0.00  0.00    +0.340 C 
ATOM      4  C   UNL     1       1.971   6.287  -3.997  0.00  0.00    +0.214 C 
ATOM      5  C   UNL     1       1.122   5.202  -4.676  0.00  0.00    +0.180 C 
ATOM      6  C   UNL     1       2.053   4.246  -5.425  0.00  0.00    +0.177 C 
ENDROOT
BRANCH   6   7
ATOM      7  O   UNL     1       1.363   3.268  -6.200  0.00  0.00    -0.386 OA
ATOM      8  H   UNL     1       0.410   3.380  -6.033  0.00  0.00    +0.210 HD
ENDBRANCH   6   7
BRANCH   5   9
ATOM      9  O   UNL     1       0.193   5.786  -5.604  0.00  0.00    -0.386 OA
ATOM     10  H   UNL     1       0.712   6.408  -6.154  0.00  0.00    +0.210 HD
ENDBRANCH   5   9
BRANCH   4  11
ATOM     11  O   UNL     1       2.633   7.040  -5.039  0.00  0.00    -0.383 OA
ATOM     12  H   UNL     1       3.558   7.176  -4.759  0.00  0.00    +0.210 HD
ENDBRANCH   4  11
BRANCH   3  13
ATOM     13  O   UNL     1       3.869   6.665  -2.504  0.00  0.00    -0.453 OA
BRANCH  13  14
ATOM     14  C   UNL     1       4.672   6.470  -1.364  0.00  0.00    +0.214 A 
ATOM     15  C   UNL     1       4.576   5.223  -0.528  0.00  0.00    +0.238 A 
ATOM     16  O   UNL     1       3.657   4.430  -0.640  0.00  0.00    -0.283 OA
ATOM     17  C   UNL     1       5.604   5.016   0.531  0.00  0.00    +0.109 A 
ATOM     18  C   UNL     1       6.373   6.102   0.891  0.00  0.00    +0.147 A 
ATOM     19  C   UNL     1       7.308   6.039   1.926  0.00  0.00    +0.092 A 
ATOM     20  C   UNL     1       7.482   4.847   2.605  0.00  0.00    +0.124 A 
ATOM     21  C   UNL     1       6.745   3.719   2.246  0.00  0.00    +0.091 A 
ATOM     22  O   UNL     1       6.256   7.302   0.281  0.00  0.00    -0.451 OA
ATOM     23  C   UNL     1       5.806   3.806   1.212  0.00  0.00    +0.135 A 
ATOM     24  C   UNL     1       5.526   7.423  -0.891  0.00  0.00    +0.181 A 
BRANCH  24  25
ATOM     25  C   UNL     1       5.825   8.779  -1.437  0.00  0.00    +0.025 A 
ATOM     26  C   UNL     1       4.804   9.636  -1.854  0.00  0.00    +0.015 A 
ATOM     27  C   UNL     1       5.091  10.947  -2.253  0.00  0.00    +0.050 A 
ATOM     28  C   UNL     1       6.375  11.457  -2.098  0.00  0.00    +0.158 A 
ATOM     29  C   UNL     1       7.384  10.667  -1.571  0.00  0.00    +0.159 A 
ATOM     30  C   UNL     1       7.135   9.321  -1.300  0.00  0.00    +0.060 A 
BRANCH  29  31
ATOM     31  O   UNL     1       8.554  11.272  -1.208  0.00  0.00    -0.503 OA
ATOM     32  H   UNL     1       9.297  10.669  -1.352  0.00  0.00    +0.292 HD
ENDBRANCH  29  31
BRANCH  28  33
ATOM     33  O   UNL     1       6.639  12.755  -2.422  0.00  0.00    -0.503 OA
ATOM     34  H   UNL     1       5.928  13.289  -2.035  0.00  0.00    +0.292 HD
ENDBRANCH  28  33
ENDBRANCH  24  25
BRANCH  23  35
ATOM     35  O   UNL     1       5.112   2.687   0.873  0.00  0.00    -0.506 OA
ATOM     36  H   UNL     1       5.311   1.961   1.485  0.00  0.00    +0.292 HD
ENDBRANCH  23  35
BRANCH  20  37
ATOM     37  O   UNL     1       8.373   4.738   3.628  0.00  0.00    -0.507 OA
ATOM     38  H   UNL     1       8.798   5.600   3.779  0.00  0.00    +0.292 HD
ENDBRANCH  20  37
ENDBRANCH  13  14
ENDBRANCH   3  13
BRANCH   1  39
ATOM     39  C   UNL     1       2.691   2.148  -3.905  0.00  0.00    +0.197 C 
BRANCH  39  40
ATOM     40  O   UNL     1       1.378   1.841  -3.368  0.00  0.00    -0.346 OA
BRANCH  40  44
ATOM     41  C   UNL     1       2.042  -2.567  -3.880  0.00  0.00    +0.041 C 
ATOM     42  C   UNL     1       0.802  -1.743  -4.246  0.00  0.00    +0.149 C 
ATOM     43  O   UNL     1       1.084  -0.331  -4.335  0.00  0.00    -0.343 OA
ATOM     44  C   UNL     1       1.238   0.393  -3.101  0.00  0.00    +0.282 C 
ATOM     45  C   UNL     1       0.004   0.131  -2.182  0.00  0.00    +0.201 C 
ATOM     46  C   UNL     1      -0.225  -1.383  -1.984  0.00  0.00    +0.179 C 
ATOM     47  C   UNL     1      -0.407  -2.067  -3.350  0.00  0.00    +0.174 C 
BRANCH  47  48
ATOM     48  O   UNL     1      -0.597  -3.487  -3.248  0.00  0.00    -0.387 OA
ATOM     49  H   UNL     1      -0.226  -3.797  -2.404  0.00  0.00    +0.210 HD
ENDBRANCH  47  48
BRANCH  46  50
ATOM     50  O   UNL     1      -1.386  -1.626  -1.173  0.00  0.00    -0.386 OA
ATOM     51  H   UNL     1      -2.106  -1.097  -1.574  0.00  0.00    +0.210 HD
ENDBRANCH  46  50
BRANCH  45  52
ATOM     52  O   UNL     1      -1.212   0.652  -2.763  0.00  0.00    -0.384 OA
ATOM     53  H   UNL     1      -0.929   1.260  -3.473  0.00  0.00    +0.210 HD
ENDBRANCH  45  52
ENDBRANCH  40  44
ENDBRANCH  39  40
ENDBRANCH   1  39
TORSDOF 16
