REMARK  Name = 
REMARK  8 active torsions:
REMARK  status: ('A' for Active; 'I' for Inactive)
REMARK    1  A    between atoms: C_1  and  O_2
REMARK    2  A    between atoms: O_2  and  C_3
REMARK    3  A    between atoms: C_4  and  O_24
REMARK    4  A    between atoms: C_7  and  C_9
REMARK    5  A    between atoms: C_10  and  O_22
REMARK    6  A    between atoms: C_14  and  O_21
REMARK    7  A    between atoms: C_16  and  O_20
REMARK    8  A    between atoms: O_22  and  C_23
REMARK                            x       y       z     vdW  Elec       q    Type
REMARK                         _______ _______ _______ _____ _____    ______ ____
ROOT
ATOM      1  C   UNL     1       2.777  -4.733   1.163  0.00  0.00    +0.181 A 
ATOM      2  O   UNL     1       3.681  -5.646   1.729  0.00  0.00    -0.451 OA
ATOM      3  C   UNL     1       3.481  -6.996   1.567  0.00  0.00    +0.147 A 
ATOM      4  C   UNL     1       2.401  -7.507   0.864  0.00  0.00    +0.109 A 
ATOM      5  C   UNL     1       2.232  -8.892   0.700  0.00  0.00    +0.135 A 
ATOM      6  C   UNL     1       3.147  -9.781   1.247  0.00  0.00    +0.091 A 
ATOM      7  C   UNL     1       4.224  -9.272   1.960  0.00  0.00    +0.124 A 
ATOM      8  C   UNL     1       1.441  -6.569   0.302  0.00  0.00    +0.238 A 
ATOM      9  O   UNL     1       0.464  -7.019  -0.297  0.00  0.00    -0.283 OA
ATOM     10  C   UNL     1       4.400  -7.891   2.128  0.00  0.00    +0.092 A 
ATOM     11  C   UNL     1       1.671  -5.105   0.464  0.00  0.00    +0.211 A 
ENDROOT
BRANCH   1  14
ATOM     12  C   UNL     1       3.051  -1.298   2.776  0.00  0.00    +0.162 A 
ATOM     13  C   UNL     1       2.678  -2.628   2.546  0.00  0.00    +0.061 A 
ATOM     14  C   UNL     1       3.189  -3.337   1.438  0.00  0.00    +0.025 A 
ATOM     15  C   UNL     1       4.149  -2.712   0.622  0.00  0.00    +0.015 A 
ATOM     16  C   UNL     1       4.545  -1.391   0.863  0.00  0.00    +0.050 A 
ATOM     17  C   UNL     1       3.974  -0.694   1.919  0.00  0.00    +0.158 A 
BRANCH  12  19
ATOM     18  C   UNL     1       1.659  -1.029   4.692  0.00  0.00    +0.277 C 
ATOM     19  O   UNL     1       2.593  -0.476   3.775  0.00  0.00    -0.491 OA
ENDBRANCH  12  19
BRANCH  17  20
ATOM     20  O   UNL     1       4.341   0.613   2.102  0.00  0.00    -0.503 OA
ATOM     21  H   UNL     1       3.809   0.927   2.859  0.00  0.00    +0.292 HD
ENDBRANCH  17  20
ENDBRANCH   1  14
BRANCH   5  22
ATOM     22  O   UNL     1       1.187  -9.443   0.005  0.00  0.00    -0.506 OA
ATOM     23  H   UNL     1       0.614  -8.707  -0.316  0.00  0.00    +0.292 HD
ENDBRANCH   5  22
BRANCH   7  24
ATOM     24  O   UNL     1       5.140 -10.122   2.518  0.00  0.00    -0.507 OA
ATOM     25  H   UNL     1       4.884 -11.033   2.317  0.00  0.00    +0.292 HD
ENDBRANCH   7  24
BRANCH  11  26
ATOM     26  O   UNL     1       0.680  -4.400  -0.151  0.00  0.00    -0.488 OA
ATOM     27  C   UNL     1       0.636  -3.013  -0.377  0.00  0.00    +0.277 C 
ENDBRANCH  11  26
TORSDOF 6
