REMARK  Name = 
REMARK  16 active torsions:
REMARK  status: ('A' for Active; 'I' for Inactive)
REMARK    1  A    between atoms: C_3  and  O_49
REMARK    2  A    between atoms: C_6  and  C_7
REMARK    3  A    between atoms: C_8  and  C_9
REMARK    4  A    between atoms: C_9  and  O_11
REMARK    5  A    between atoms: O_11  and  C_12
REMARK    6  A    between atoms: C_12  and  C_13
REMARK    7  A    between atoms: C_15  and  O_48
REMARK    8  A    between atoms: C_17  and  O_47
REMARK    9  A    between atoms: C_19  and  O_46
REMARK   10  A    between atoms: C_21  and  O_24
REMARK   11  A    between atoms: O_24  and  C_25
REMARK   12  A    between atoms: C_26  and  C_38
REMARK   13  A    between atoms: C_30  and  O_37
REMARK   14  A    between atoms: C_32  and  O_36
REMARK   15  A    between atoms: C_40  and  O_45
REMARK   16  A    between atoms: C_41  and  O_44
REMARK                            x       y       z     vdW  Elec       q    Type
REMARK                         _______ _______ _______ _____ _____    ______ ____
ROOT
ATOM      1  C   UNL     1      -7.557   4.068  -0.526  0.00  0.00    +0.191 C 
ATOM      2  O   UNL     1      -8.365   3.053  -1.140  0.00  0.00    -0.330 OA
ATOM      3  C   UNL     1      -8.092   2.909  -2.547  0.00  0.00    +0.340 C 
ATOM      4  C   UNL     1      -8.402   4.213  -3.316  0.00  0.00    +0.214 C 
ATOM      5  C   UNL     1      -7.650   5.371  -2.670  0.00  0.00    +0.180 C 
ATOM      6  C   UNL     1      -7.880   5.433  -1.165  0.00  0.00    +0.178 C 
ENDROOT
BRANCH   6   7
ATOM      7  O   UNL     1      -7.060   6.511  -0.697  0.00  0.00    -0.386 OA
ATOM      8  H   UNL     1      -6.852   6.337   0.237  0.00  0.00    +0.210 HD
ENDBRANCH   6   7
BRANCH   5   9
ATOM      9  O   UNL     1      -8.050   6.615  -3.263  0.00  0.00    -0.386 OA
ATOM     10  H   UNL     1      -7.767   7.302  -2.625  0.00  0.00    +0.210 HD
ENDBRANCH   5   9
BRANCH   4  11
ATOM     11  O   UNL     1      -8.031   4.080  -4.706  0.00  0.00    -0.383 OA
ATOM     12  H   UNL     1      -7.304   4.706  -4.880  0.00  0.00    +0.210 HD
ENDBRANCH   4  11
BRANCH   3  13
ATOM     13  O   UNL     1      -8.949   1.922  -3.119  0.00  0.00    -0.453 OA
BRANCH  13  14
ATOM     14  C   UNL     1      -8.566   0.611  -3.321  0.00  0.00    +0.214 A 
ATOM     15  C   UNL     1      -7.266   0.048  -2.841  0.00  0.00    +0.238 A 
ATOM     16  O   UNL     1      -6.295   0.755  -2.606  0.00  0.00    -0.283 OA
ATOM     17  C   UNL     1      -7.183  -1.418  -2.734  0.00  0.00    +0.109 A 
ATOM     18  C   UNL     1      -8.179  -2.169  -3.357  0.00  0.00    +0.147 A 
ATOM     19  C   UNL     1      -8.174  -3.565  -3.256  0.00  0.00    +0.092 A 
ATOM     20  C   UNL     1      -7.155  -4.194  -2.545  0.00  0.00    +0.124 A 
ATOM     21  C   UNL     1      -6.136  -3.460  -1.950  0.00  0.00    +0.091 A 
ATOM     22  O   UNL     1      -9.174  -1.597  -4.114  0.00  0.00    -0.451 OA
ATOM     23  C   UNL     1      -6.150  -2.071  -2.044  0.00  0.00    +0.135 A 
ATOM     24  C   UNL     1      -9.371  -0.224  -4.019  0.00  0.00    +0.181 A 
BRANCH  24  25
ATOM     25  C   UNL     1     -10.565   0.265  -4.777  0.00  0.00    +0.025 A 
ATOM     26  C   UNL     1     -11.743  -0.500  -4.865  0.00  0.00    +0.015 A 
ATOM     27  C   UNL     1     -12.860  -0.032  -5.575  0.00  0.00    +0.050 A 
ATOM     28  C   UNL     1     -12.807   1.207  -6.197  0.00  0.00    +0.158 A 
ATOM     29  C   UNL     1     -11.648   1.966  -6.152  0.00  0.00    +0.159 A 
ATOM     30  C   UNL     1     -10.526   1.492  -5.476  0.00  0.00    +0.060 A 
BRANCH  29  31
ATOM     31  O   UNL     1     -11.648   3.182  -6.779  0.00  0.00    -0.503 OA
ATOM     32  H   UNL     1     -10.800   3.620  -6.578  0.00  0.00    +0.292 HD
ENDBRANCH  29  31
BRANCH  28  33
ATOM     33  O   UNL     1     -13.908   1.678  -6.853  0.00  0.00    -0.503 OA
ATOM     34  H   UNL     1     -13.640   2.564  -7.174  0.00  0.00    +0.292 HD
ENDBRANCH  28  33
ENDBRANCH  24  25
BRANCH  20  35
ATOM     35  O   UNL     1      -7.111  -5.549  -2.399  0.00  0.00    -0.507 OA
ATOM     36  H   UNL     1      -7.890  -5.944  -2.826  0.00  0.00    +0.292 HD
ENDBRANCH  20  35
BRANCH  23  37
ATOM     37  O   UNL     1      -5.152  -1.363  -1.438  0.00  0.00    -0.506 OA
ATOM     38  H   UNL     1      -4.446  -1.960  -1.141  0.00  0.00    +0.292 HD
ENDBRANCH  23  37
ENDBRANCH  13  14
ENDBRANCH   3  13
BRANCH   1  39
ATOM     39  C   UNL     1      -7.804   4.112   1.000  0.00  0.00    +0.266 C 
BRANCH  39  40
ATOM     40  O   UNL     1      -7.002   5.153   1.616  0.00  0.00    -0.459 OA
BRANCH  40  41
ATOM     41  C   UNL     1      -5.734   4.814   1.969  0.00  0.00    +0.332 C 
ATOM     42  O   UNL     1      -5.250   3.694   1.912  0.00  0.00    -0.246 OA
BRANCH  41  44
ATOM     43  C   UNL     1      -3.651   5.991   2.447  0.00  0.00    +0.015 C 
ATOM     44  C   UNL     1      -4.986   6.056   2.289  0.00  0.00    +0.092 C 
BRANCH  43  46
ATOM     45  C   UNL     1      -2.917   8.387   2.090  0.00  0.00    +0.011 A 
ATOM     46  C   UNL     1      -2.738   7.126   2.677  0.00  0.00    -0.025 A 
ATOM     47  C   UNL     1      -1.570   6.897   3.420  0.00  0.00    +0.011 A 
ATOM     48  C   UNL     1      -0.611   7.899   3.581  0.00  0.00    +0.046 A 
ATOM     49  C   UNL     1      -0.802   9.139   2.988  0.00  0.00    +0.117 A 
ATOM     50  C   UNL     1      -1.953   9.394   2.246  0.00  0.00    +0.046 A 
BRANCH  49  51
ATOM     51  O   UNL     1       0.171  10.074   3.142  0.00  0.00    -0.507 OA
ATOM     52  H   UNL     1      -0.051  10.858   2.614  0.00  0.00    +0.292 HD
ENDBRANCH  49  51
ENDBRANCH  43  46
ENDBRANCH  41  44
ENDBRANCH  40  41
ENDBRANCH  39  40
ENDBRANCH   1  39
TORSDOF 16
