REMARK  Name = 
REMARK  24 active torsions:
REMARK  status: ('A' for Active; 'I' for Inactive)
REMARK    1  A    between atoms: C_3  and  O_70
REMARK    2  A    between atoms: C_4  and  O_69
REMARK    3  A    between atoms: C_6  and  C_7
REMARK    4  A    between atoms: C_8  and  O_20
REMARK    5  A    between atoms: C_12  and  O_19
REMARK    6  A    between atoms: C_14  and  O_18
REMARK    7  A    between atoms: O_20  and  C_21
REMARK    8  A    between atoms: C_23  and  O_68
REMARK    9  A    between atoms: C_25  and  O_67
REMARK   10  A    between atoms: C_27  and  O_66
REMARK   11  A    between atoms: C_29  and  C_32
REMARK   12  A    between atoms: C_32  and  O_33
REMARK   13  A    between atoms: O_33  and  C_34
REMARK   14  A    between atoms: C_36  and  O_65
REMARK   15  A    between atoms: C_38  and  O_64
REMARK   16  A    between atoms: C_40  and  O_63
REMARK   17  A    between atoms: C_42  and  C_45
REMARK   18  A    between atoms: C_45  and  O_46
REMARK   19  A    between atoms: O_46  and  C_47
REMARK   20  A    between atoms: C_49  and  O_62
REMARK   21  A    between atoms: C_51  and  O_61
REMARK   22  A    between atoms: C_53  and  O_60
REMARK   23  A    between atoms: C_55  and  C_58
REMARK   24  A    between atoms: C_58  and  O_59
REMARK                            x       y       z     vdW  Elec       q    Type
REMARK                         _______ _______ _______ _____ _____    ______ ____
ROOT
ATOM      1  C   UNL     1      -2.272  -0.187  -0.656  0.00  0.00    +0.340 C 
ATOM      2  O   UNL     1      -3.206   0.279  -1.660  0.00  0.00    -0.331 OA
ATOM      3  C   UNL     1      -3.055   0.069  -3.078  0.00  0.00    +0.179 C 
ATOM      4  C   UNL     1      -2.049  -1.003  -3.560  0.00  0.00    +0.177 C 
ATOM      5  C   UNL     1      -1.607  -1.880  -2.396  0.00  0.00    +0.180 C 
ATOM      6  C   UNL     1      -1.102  -0.982  -1.253  0.00  0.00    +0.214 C 
ENDROOT
BRANCH   6   7
ATOM      7  O   UNL     1      -0.052  -0.114  -1.716  0.00  0.00    -0.383 OA
ATOM      8  H   UNL     1      -0.421   0.510  -2.375  0.00  0.00    +0.210 HD
ENDBRANCH   6   7
BRANCH   5   9
ATOM      9  O   UNL     1      -2.681  -2.746  -2.029  0.00  0.00    -0.386 OA
ATOM     10  H   UNL     1      -3.367  -2.228  -1.563  0.00  0.00    +0.210 HD
ENDBRANCH   5   9
BRANCH   4  11
ATOM     11  O   UNL     1      -0.926  -0.320  -4.150  0.00  0.00    -0.386 OA
ATOM     12  H   UNL     1      -0.148  -0.912  -4.117  0.00  0.00    +0.210 HD
ENDBRANCH   4  11
BRANCH   3  13
ATOM     13  C   UNL     1      -4.470  -0.265  -3.610  0.00  0.00    +0.197 C 
BRANCH  13  14
ATOM     14  O   UNL     1      -5.457   0.764  -3.387  0.00  0.00    -0.346 OA
BRANCH  14  15
ATOM     15  C   UNL     1      -5.274   1.953  -4.158  0.00  0.00    +0.282 C 
ATOM     16  O   UNL     1      -5.979   3.073  -3.617  0.00  0.00    -0.341 OA
ATOM     17  C   UNL     1      -7.407   3.053  -3.632  0.00  0.00    +0.178 C 
ATOM     18  C   UNL     1      -8.037   2.387  -4.911  0.00  0.00    +0.177 C 
ATOM     19  C   UNL     1      -7.155   1.382  -5.698  0.00  0.00    +0.179 C 
ATOM     20  C   UNL     1      -5.669   1.751  -5.627  0.00  0.00    +0.201 C 
BRANCH  20  21
ATOM     21  O   UNL     1      -5.407   2.925  -6.408  0.00  0.00    -0.384 OA
ATOM     22  H   UNL     1      -6.048   3.612  -6.137  0.00  0.00    +0.210 HD
ENDBRANCH  20  21
BRANCH  19  23
ATOM     23  O   UNL     1      -7.457   0.041  -5.311  0.00  0.00    -0.386 OA
ATOM     24  H   UNL     1      -6.678  -0.354  -4.885  0.00  0.00    +0.210 HD
ENDBRANCH  19  23
BRANCH  18  25
ATOM     25  O   UNL     1      -8.287   3.474  -5.841  0.00  0.00    -0.386 OA
ATOM     26  H   UNL     1      -8.691   3.092  -6.645  0.00  0.00    +0.210 HD
ENDBRANCH  18  25
BRANCH  17  27
ATOM     27  C   UNL     1      -7.949   2.648  -2.229  0.00  0.00    +0.197 C 
BRANCH  27  28
ATOM     28  O   UNL     1      -7.158   3.163  -1.121  0.00  0.00    -0.346 OA
BRANCH  28  29
ATOM     29  C   UNL     1      -7.594   4.370  -0.473  0.00  0.00    +0.282 C 
ATOM     30  O   UNL     1      -7.081   5.514  -1.138  0.00  0.00    -0.341 OA
ATOM     31  C   UNL     1      -5.816   6.053  -0.731  0.00  0.00    +0.178 C 
ATOM     32  C   UNL     1      -4.968   5.336   0.349  0.00  0.00    +0.177 C 
ATOM     33  C   UNL     1      -5.698   4.298   1.213  0.00  0.00    +0.179 C 
ATOM     34  C   UNL     1      -7.213   4.330   1.036  0.00  0.00    +0.201 C 
BRANCH  34  35
ATOM     35  O   UNL     1      -7.738   5.444   1.773  0.00  0.00    -0.384 OA
ATOM     36  H   UNL     1      -8.703   5.333   1.835  0.00  0.00    +0.210 HD
ENDBRANCH  34  35
BRANCH  33  37
ATOM     37  O   UNL     1      -5.220   2.974   0.909  0.00  0.00    -0.386 OA
ATOM     38  H   UNL     1      -5.555   2.742   0.017  0.00  0.00    +0.210 HD
ENDBRANCH  33  37
BRANCH  32  39
ATOM     39  O   UNL     1      -4.343   6.342   1.186  0.00  0.00    -0.386 OA
ATOM     40  H   UNL     1      -5.038   6.904   1.571  0.00  0.00    +0.210 HD
ENDBRANCH  32  39
BRANCH  31  41
ATOM     41  C   UNL     1      -4.965   6.244  -2.003  0.00  0.00    +0.190 C 
BRANCH  41  42
ATOM     42  O   UNL     1      -4.504   5.003  -2.530  0.00  0.00    -0.392 OA
ATOM     43  H   UNL     1      -5.289   4.490  -2.819  0.00  0.00    +0.210 HD
ENDBRANCH  41  42
ENDBRANCH  31  41
ENDBRANCH  28  29
ENDBRANCH  27  28
ENDBRANCH  17  27
ENDBRANCH  14  15
ENDBRANCH  13  14
ENDBRANCH   3  13
BRANCH   1  44
ATOM     44  O   UNL     1      -3.016  -1.059   0.243  0.00  0.00    -0.453 OA
BRANCH  44  55
ATOM     45  C   UNL     1      -3.455  -2.097   2.358  0.00  0.00    +0.181 A 
ATOM     46  O   UNL     1      -3.327  -2.257   3.730  0.00  0.00    -0.451 OA
ATOM     47  C   UNL     1      -2.460  -1.494   4.443  0.00  0.00    +0.147 A 
ATOM     48  C   UNL     1      -1.525  -0.664   3.848  0.00  0.00    +0.109 A 
ATOM     49  C   UNL     1      -0.584  -0.051   4.697  0.00  0.00    +0.135 A 
ATOM     50  C   UNL     1      -0.656  -0.200   6.091  0.00  0.00    +0.091 A 
ATOM     51  C   UNL     1      -1.674  -0.957   6.652  0.00  0.00    +0.124 A 
ATOM     52  C   UNL     1      -1.617  -0.489   2.363  0.00  0.00    +0.238 A 
ATOM     53  O   UNL     1      -0.784   0.228   1.796  0.00  0.00    -0.283 OA
ATOM     54  C   UNL     1      -2.568  -1.628   5.833  0.00  0.00    +0.092 A 
ATOM     55  C   UNL     1      -2.732  -1.226   1.610  0.00  0.00    +0.214 A 
BRANCH  45  57
ATOM     56  C   UNL     1      -5.727  -2.499   1.263  0.00  0.00    +0.015 A 
ATOM     57  C   UNL     1      -4.583  -3.004   1.911  0.00  0.00    +0.025 A 
ATOM     58  C   UNL     1      -4.631  -4.341   2.398  0.00  0.00    +0.060 A 
ATOM     59  C   UNL     1      -5.794  -5.099   2.325  0.00  0.00    +0.159 A 
ATOM     60  C   UNL     1      -6.959  -4.526   1.772  0.00  0.00    +0.158 A 
ATOM     61  C   UNL     1      -6.898  -3.267   1.199  0.00  0.00    +0.050 A 
BRANCH  60  62
ATOM     62  O   UNL     1      -8.108  -5.262   1.850  0.00  0.00    -0.503 OA
ATOM     63  H   UNL     1      -8.858  -4.655   1.732  0.00  0.00    +0.292 HD
ENDBRANCH  60  62
BRANCH  59  64
ATOM     64  O   UNL     1      -5.846  -6.359   2.849  0.00  0.00    -0.503 OA
ATOM     65  H   UNL     1      -6.777  -6.637   2.739  0.00  0.00    +0.292 HD
ENDBRANCH  59  64
ENDBRANCH  45  57
BRANCH  51  66
ATOM     66  O   UNL     1      -1.840  -1.066   7.998  0.00  0.00    -0.507 OA
ATOM     67  H   UNL     1      -1.218  -0.469   8.448  0.00  0.00    +0.292 HD
ENDBRANCH  51  66
BRANCH  49  68
ATOM     68  O   UNL     1       0.456   0.731   4.271  0.00  0.00    -0.506 OA
ATOM     69  H   UNL     1       0.294   1.004   3.346  0.00  0.00    +0.292 HD
ENDBRANCH  49  68
ENDBRANCH  44  55
ENDBRANCH   1  44
TORSDOF 24
