REMARK  Name = 
REMARK  17 active torsions:
REMARK  status: ('A' for Active; 'I' for Inactive)
REMARK    1  A    between atoms: C_1  and  C_2
REMARK    2  A    between atoms: C_4  and  O_37
REMARK    3  A    between atoms: C_6  and  O_36
REMARK    4  A    between atoms: C_8  and  O_35
REMARK    5  A    between atoms: C_10  and  O_13
REMARK    6  A    between atoms: O_13  and  C_14
REMARK    7  A    between atoms: C_15  and  C_27
REMARK    8  A    between atoms: C_19  and  O_26
REMARK    9  A    between atoms: C_21  and  O_25
REMARK   10  A    between atoms: C_29  and  O_34
REMARK   11  A    between atoms: C_30  and  O_33
REMARK   12  A    between atoms: O_37  and  C_38
REMARK   13  A    between atoms: C_40  and  O_53
REMARK   14  A    between atoms: C_42  and  O_52
REMARK   15  A    between atoms: C_44  and  O_51
REMARK   16  A    between atoms: C_46  and  C_49
REMARK   17  A    between atoms: C_49  and  O_50
REMARK                            x       y       z     vdW  Elec       q    Type
REMARK                         _______ _______ _______ _____ _____    ______ ____
ROOT
ATOM      1  C   UNL     1       0.918   0.275   0.261  0.00  0.00    +0.041 C 
ATOM      2  C   UNL     1       2.414   0.085  -0.006  0.00  0.00    +0.151 C 
ATOM      3  O   UNL     1       2.914   0.958  -1.035  0.00  0.00    -0.334 OA
ATOM      4  C   UNL     1       2.491   0.583  -2.358  0.00  0.00    +0.339 C 
ATOM      5  C   UNL     1       2.966  -0.846  -2.708  0.00  0.00    +0.214 C 
ATOM      6  C   UNL     1       2.396  -1.828  -1.683  0.00  0.00    +0.180 C 
ATOM      7  C   UNL     1       2.809  -1.387  -0.273  0.00  0.00    +0.181 C 
ENDROOT
BRANCH   5   8
ATOM      8  O   UNL     1       2.630  -1.310  -4.021  0.00  0.00    -0.383 OA
ATOM      9  H   UNL     1       1.747  -0.954  -4.260  0.00  0.00    +0.210 HD
ENDBRANCH   5   8
BRANCH   6  10
ATOM     10  O   UNL     1       0.970  -1.948  -1.739  0.00  0.00    -0.386 OA
ATOM     11  H   UNL     1       0.631  -1.482  -2.526  0.00  0.00    +0.210 HD
ENDBRANCH   6  10
BRANCH   7  12
ATOM     12  O   UNL     1       4.231  -1.612  -0.202  0.00  0.00    -0.340 OA
BRANCH  12  13
ATOM     13  C   UNL     1       4.867  -1.345   1.045  0.00  0.00    +0.282 C 
ATOM     14  O   UNL     1       6.286  -1.489   0.898  0.00  0.00    -0.341 OA
ATOM     15  C   UNL     1       6.784  -2.821   0.687  0.00  0.00    +0.178 C 
ATOM     16  C   UNL     1       6.235  -3.822   1.727  0.00  0.00    +0.177 C 
ATOM     17  C   UNL     1       4.716  -3.700   1.904  0.00  0.00    +0.179 C 
ATOM     18  C   UNL     1       4.335  -2.236   2.184  0.00  0.00    +0.201 C 
BRANCH  18  19
ATOM     19  O   UNL     1       4.853  -1.797   3.446  0.00  0.00    -0.384 OA
ATOM     20  H   UNL     1       5.829  -1.901   3.399  0.00  0.00    +0.210 HD
ENDBRANCH  18  19
BRANCH  17  21
ATOM     21  O   UNL     1       4.029  -4.256   0.781  0.00  0.00    -0.386 OA
ATOM     22  H   UNL     1       3.996  -3.589   0.064  0.00  0.00    +0.210 HD
ENDBRANCH  17  21
BRANCH  16  23
ATOM     23  O   UNL     1       6.856  -3.524   2.995  0.00  0.00    -0.386 OA
ATOM     24  H   UNL     1       6.550  -4.195   3.633  0.00  0.00    +0.210 HD
ENDBRANCH  16  23
BRANCH  15  25
ATOM     25  C   UNL     1       6.652  -3.264  -0.781  0.00  0.00    +0.190 C 
BRANCH  25  26
ATOM     26  O   UNL     1       7.302  -4.510  -1.013  0.00  0.00    -0.392 OA
ATOM     27  H   UNL     1       6.670  -5.221  -0.807  0.00  0.00    +0.210 HD
ENDBRANCH  25  26
ENDBRANCH  15  25
ENDBRANCH  12  13
ENDBRANCH   7  12
BRANCH   4  28
ATOM     28  O   UNL     1       3.060   1.483  -3.317  0.00  0.00    -0.453 OA
BRANCH  28  29
ATOM     29  C   UNL     1       2.166   2.146  -4.144  0.00  0.00    +0.214 A 
ATOM     30  C   UNL     1       0.902   1.476  -4.590  0.00  0.00    +0.238 A 
ATOM     31  O   UNL     1       0.699   0.283  -4.365  0.00  0.00    -0.283 OA
ATOM     32  C   UNL     1      -0.071   2.281  -5.328  0.00  0.00    +0.109 A 
ATOM     33  C   UNL     1       0.343   3.524  -5.789  0.00  0.00    +0.147 A 
ATOM     34  C   UNL     1      -0.516   4.292  -6.581  0.00  0.00    +0.092 A 
ATOM     35  C   UNL     1      -1.787   3.804  -6.881  0.00  0.00    +0.124 A 
ATOM     36  C   UNL     1      -2.225   2.578  -6.393  0.00  0.00    +0.091 A 
ATOM     37  O   UNL     1       1.580   4.052  -5.511  0.00  0.00    -0.451 OA
ATOM     38  C   UNL     1      -1.366   1.816  -5.610  0.00  0.00    +0.135 A 
ATOM     39  C   UNL     1       2.433   3.378  -4.636  0.00  0.00    +0.181 A 
BRANCH  39  40
ATOM     40  C   UNL     1       3.702   4.136  -4.355  0.00  0.00    +0.025 A 
ATOM     41  C   UNL     1       4.198   5.055  -5.307  0.00  0.00    +0.015 A 
ATOM     42  C   UNL     1       5.373   5.790  -5.081  0.00  0.00    +0.050 A 
ATOM     43  C   UNL     1       6.074   5.610  -3.903  0.00  0.00    +0.158 A 
ATOM     44  C   UNL     1       5.615   4.712  -2.950  0.00  0.00    +0.159 A 
ATOM     45  C   UNL     1       4.435   3.996  -3.158  0.00  0.00    +0.060 A 
BRANCH  44  46
ATOM     46  O   UNL     1       6.359   4.559  -1.810  0.00  0.00    -0.503 OA
ATOM     47  H   UNL     1       5.985   3.816  -1.302  0.00  0.00    +0.292 HD
ENDBRANCH  44  46
BRANCH  43  48
ATOM     48  O   UNL     1       7.218   6.318  -3.680  0.00  0.00    -0.503 OA
ATOM     49  H   UNL     1       7.518   6.029  -2.794  0.00  0.00    +0.292 HD
ENDBRANCH  43  48
ENDBRANCH  39  40
BRANCH  38  50
ATOM     50  O   UNL     1      -1.812   0.629  -5.100  0.00  0.00    -0.506 OA
ATOM     51  H   UNL     1      -2.677   0.402  -5.481  0.00  0.00    +0.292 HD
ENDBRANCH  38  50
BRANCH  35  52
ATOM     52  O   UNL     1      -2.661   4.504  -7.659  0.00  0.00    -0.507 OA
ATOM     53  H   UNL     1      -2.230   5.318  -7.972  0.00  0.00    +0.292 HD
ENDBRANCH  35  52
ENDBRANCH  28  29
ENDBRANCH   4  28
TORSDOF 16
