REMARK  Name = 
REMARK  11 active torsions:
REMARK  status: ('A' for Active; 'I' for Inactive)
REMARK    1  A    between atoms: C_1  and  C_2
REMARK    2  A    between atoms: C_4  and  O_37
REMARK    3  A    between atoms: C_6  and  O_36
REMARK    4  A    between atoms: C_8  and  O_35
REMARK    5  A    between atoms: C_10  and  O_13
REMARK    6  A    between atoms: O_13  and  C_14
REMARK    7  A    between atoms: C_15  and  C_27
REMARK    8  A    between atoms: C_19  and  O_26
REMARK    9  A    between atoms: C_21  and  O_25
REMARK   10  A    between atoms: C_29  and  O_34
REMARK   11  A    between atoms: C_30  and  O_33
REMARK                            x       y       z     vdW  Elec       q    Type
REMARK                         _______ _______ _______ _____ _____    ______ ____
ROOT
ATOM      1  C   UNL     1       0.826   1.966  -2.644  0.00  0.00    +0.214 A 
ATOM      2  C   UNL     1      -0.677   1.941  -2.560  0.00  0.00    +0.238 A 
ATOM      3  O   UNL     1      -1.259   0.867  -2.450  0.00  0.00    -0.283 OA
ATOM      4  C   UNL     1      -1.400   3.225  -2.651  0.00  0.00    +0.109 A 
ATOM      5  C   UNL     1      -0.633   4.387  -2.618  0.00  0.00    +0.147 A 
ATOM      6  C   UNL     1      -1.242   5.640  -2.742  0.00  0.00    +0.092 A 
ATOM      7  C   UNL     1      -2.627   5.723  -2.883  0.00  0.00    +0.124 A 
ATOM      8  C   UNL     1      -3.405   4.581  -2.908  0.00  0.00    +0.091 A 
ATOM      9  O   UNL     1       0.730   4.380  -2.446  0.00  0.00    -0.451 OA
ATOM     10  C   UNL     1      -2.796   3.331  -2.787  0.00  0.00    +0.135 A 
ATOM     11  C   UNL     1       1.440   3.181  -2.506  0.00  0.00    +0.181 A 
ENDROOT
BRANCH  11  12
ATOM     12  C   UNL     1       2.920   3.448  -2.441  0.00  0.00    +0.025 A 
ATOM     13  C   UNL     1       3.807   2.567  -1.804  0.00  0.00    +0.015 A 
ATOM     14  C   UNL     1       5.198   2.661  -1.978  0.00  0.00    +0.050 A 
ATOM     15  C   UNL     1       5.728   3.744  -2.649  0.00  0.00    +0.158 A 
ATOM     16  C   UNL     1       4.884   4.744  -3.112  0.00  0.00    +0.159 A 
ATOM     17  C   UNL     1       3.493   4.596  -3.035  0.00  0.00    +0.060 A 
BRANCH  15  18
ATOM     18  O   UNL     1       7.077   3.826  -2.834  0.00  0.00    -0.503 OA
ATOM     19  H   UNL     1       7.209   4.652  -3.340  0.00  0.00    +0.292 HD
ENDBRANCH  15  18
BRANCH  16  20
ATOM     20  O   UNL     1       5.469   5.855  -3.657  0.00  0.00    -0.503 OA
ATOM     21  H   UNL     1       4.819   6.578  -3.620  0.00  0.00    +0.292 HD
ENDBRANCH  16  20
ENDBRANCH  11  12
BRANCH   7  22
ATOM     22  O   UNL     1      -3.262   6.921  -3.029  0.00  0.00    -0.507 OA
ATOM     23  H   UNL     1      -2.608   7.640  -3.012  0.00  0.00    +0.292 HD
ENDBRANCH   7  22
BRANCH  10  24
ATOM     24  O   UNL     1      -3.588   2.216  -2.826  0.00  0.00    -0.506 OA
ATOM     25  H   UNL     1      -4.527   2.475  -2.853  0.00  0.00    +0.292 HD
ENDBRANCH  10  24
BRANCH   1  26
ATOM     26  O   UNL     1       1.371   0.701  -2.823  0.00  0.00    -0.453 OA
BRANCH  26  30
ATOM     27  C   UNL     1       2.816  -1.792  -1.439  0.00  0.00    +0.041 C 
ATOM     28  C   UNL     1       3.710  -1.333  -2.591  0.00  0.00    +0.150 C 
ATOM     29  O   UNL     1       3.620   0.053  -2.884  0.00  0.00    -0.334 OA
ATOM     30  C   UNL     1       2.515   0.531  -3.659  0.00  0.00    +0.339 C 
ATOM     31  C   UNL     1       2.238  -0.316  -4.925  0.00  0.00    +0.214 C 
ATOM     32  C   UNL     1       2.343  -1.828  -4.670  0.00  0.00    +0.180 C 
ATOM     33  C   UNL     1       3.625  -2.144  -3.881  0.00  0.00    +0.174 C 
BRANCH  31  34
ATOM     34  O   UNL     1       3.221   0.059  -5.913  0.00  0.00    -0.383 OA
ATOM     35  H   UNL     1       3.011  -0.431  -6.728  0.00  0.00    +0.210 HD
ENDBRANCH  31  34
BRANCH  32  36
ATOM     36  O   UNL     1       1.156  -2.344  -4.062  0.00  0.00    -0.386 OA
ATOM     37  H   UNL     1       0.811  -1.710  -3.407  0.00  0.00    +0.210 HD
ENDBRANCH  32  36
BRANCH  33  38
ATOM     38  O   UNL     1       3.785  -3.540  -3.650  0.00  0.00    -0.387 OA
ATOM     39  H   UNL     1       4.652  -3.665  -3.226  0.00  0.00    +0.210 HD
ENDBRANCH  33  38
ENDBRANCH  26  30
ENDBRANCH   1  26
TORSDOF 10
