REMARK  Name = 
REMARK  18 active torsions:
REMARK  status: ('A' for Active; 'I' for Inactive)
REMARK    1  A    between atoms: C_3  and  O_54
REMARK    2  A    between atoms: C_4  and  O_53
REMARK    3  A    between atoms: C_6  and  C_7
REMARK    4  A    between atoms: C_8  and  O_20
REMARK    5  A    between atoms: C_12  and  O_19
REMARK    6  A    between atoms: C_14  and  O_18
REMARK    7  A    between atoms: O_20  and  C_21
REMARK    8  A    between atoms: C_23  and  O_52
REMARK    9  A    between atoms: C_25  and  O_51
REMARK   10  A    between atoms: C_27  and  O_50
REMARK   11  A    between atoms: C_29  and  C_32
REMARK   12  A    between atoms: C_32  and  O_33
REMARK   13  A    between atoms: O_33  and  C_34
REMARK   14  A    between atoms: C_36  and  O_49
REMARK   15  A    between atoms: C_38  and  O_48
REMARK   16  A    between atoms: C_40  and  O_47
REMARK   17  A    between atoms: C_42  and  C_45
REMARK   18  A    between atoms: C_45  and  O_46
REMARK                            x       y       z     vdW  Elec       q    Type
REMARK                         _______ _______ _______ _____ _____    ______ ____
ROOT
ATOM      1  C   UNL     1      -2.138  -0.850  -0.839  0.00  0.00    +0.340 C 
ATOM      2  O   UNL     1      -3.151  -0.261  -1.668  0.00  0.00    -0.331 OA
ATOM      3  C   UNL     1      -3.080  -0.268  -3.111  0.00  0.00    +0.179 C 
ATOM      4  C   UNL     1      -2.185  -1.306  -3.825  0.00  0.00    +0.177 C 
ATOM      5  C   UNL     1      -1.689  -2.316  -2.819  0.00  0.00    +0.180 C 
ATOM      6  C   UNL     1      -1.051  -1.523  -1.681  0.00  0.00    +0.214 C 
ENDROOT
BRANCH   6   7
ATOM      7  O   UNL     1      -0.057  -0.563  -2.083  0.00  0.00    -0.383 OA
ATOM      8  H   UNL     1      -0.508   0.207  -2.486  0.00  0.00    +0.210 HD
ENDBRANCH   6   7
BRANCH   5   9
ATOM      9  O   UNL     1      -2.760  -3.173  -2.411  0.00  0.00    -0.386 OA
ATOM     10  H   UNL     1      -3.346  -2.715  -1.778  0.00  0.00    +0.210 HD
ENDBRANCH   5   9
BRANCH   4  11
ATOM     11  O   UNL     1      -1.086  -0.588  -4.448  0.00  0.00    -0.386 OA
ATOM     12  H   UNL     1      -0.253  -1.083  -4.252  0.00  0.00    +0.210 HD
ENDBRANCH   4  11
BRANCH   3  13
ATOM     13  C   UNL     1      -4.529  -0.461  -3.582  0.00  0.00    +0.197 C 
BRANCH  13  14
ATOM     14  O   UNL     1      -5.417   0.588  -3.166  0.00  0.00    -0.346 OA
BRANCH  14  15
ATOM     15  C   UNL     1      -5.087   1.890  -3.651  0.00  0.00    +0.282 C 
ATOM     16  O   UNL     1      -5.882   2.890  -3.004  0.00  0.00    -0.341 OA
ATOM     17  C   UNL     1      -7.289   2.864  -3.280  0.00  0.00    +0.178 C 
ATOM     18  C   UNL     1      -7.605   2.785  -4.791  0.00  0.00    +0.177 C 
ATOM     19  C   UNL     1      -6.718   1.781  -5.545  0.00  0.00    +0.179 C 
ATOM     20  C   UNL     1      -5.237   1.986  -5.176  0.00  0.00    +0.201 C 
BRANCH  20  21
ATOM     21  O   UNL     1      -4.760   3.260  -5.642  0.00  0.00    -0.384 OA
ATOM     22  H   UNL     1      -5.316   3.944  -5.209  0.00  0.00    +0.210 HD
ENDBRANCH  20  21
BRANCH  19  23
ATOM     23  O   UNL     1      -7.166   0.442  -5.323  0.00  0.00    -0.386 OA
ATOM     24  H   UNL     1      -6.839   0.144  -4.451  0.00  0.00    +0.210 HD
ENDBRANCH  19  23
BRANCH  18  25
ATOM     25  O   UNL     1      -7.363   4.089  -5.356  0.00  0.00    -0.386 OA
ATOM     26  H   UNL     1      -7.667   4.063  -6.282  0.00  0.00    +0.210 HD
ENDBRANCH  18  25
BRANCH  17  27
ATOM     27  C   UNL     1      -8.010   1.830  -2.401  0.00  0.00    +0.190 C 
BRANCH  27  28
ATOM     28  O   UNL     1      -9.425   1.961  -2.495  0.00  0.00    -0.392 OA
ATOM     29  H   UNL     1      -9.720   1.450  -3.267  0.00  0.00    +0.210 HD
ENDBRANCH  27  28
ENDBRANCH  17  27
ENDBRANCH  14  15
ENDBRANCH  13  14
ENDBRANCH   3  13
BRANCH   1  30
ATOM     30  O   UNL     1      -2.790  -1.798   0.052  0.00  0.00    -0.453 OA
BRANCH  30  41
ATOM     31  C   UNL     1      -2.636  -2.250   2.475  0.00  0.00    +0.181 A 
ATOM     32  O   UNL     1      -1.798  -2.321   3.629  0.00  0.00    -0.451 OA
ATOM     33  C   UNL     1      -0.497  -1.873   3.530  0.00  0.00    +0.147 A 
ATOM     34  C   UNL     1       0.088  -1.673   2.290  0.00  0.00    +0.109 A 
ATOM     35  C   UNL     1       1.392  -1.219   2.118  0.00  0.00    +0.135 A 
ATOM     36  C   UNL     1       2.185  -1.065   3.242  0.00  0.00    +0.091 A 
ATOM     37  C   UNL     1       1.639  -1.354   4.495  0.00  0.00    +0.124 A 
ATOM     38  C   UNL     1      -0.672  -2.291   1.245  0.00  0.00    +0.238 A 
ATOM     39  O   UNL     1      -0.145  -3.155   0.562  0.00  0.00    -0.283 OA
ATOM     40  C   UNL     1       0.293  -1.714   4.657  0.00  0.00    +0.092 A 
ATOM     41  C   UNL     1      -2.118  -1.996   1.246  0.00  0.00    +0.214 A 
BRANCH  31  43
ATOM     42  C   UNL     1      -4.473  -2.784   4.108  0.00  0.00    +0.015 A 
ATOM     43  C   UNL     1      -4.059  -2.622   2.765  0.00  0.00    +0.025 A 
ATOM     44  C   UNL     1      -4.974  -3.002   1.765  0.00  0.00    +0.060 A 
ATOM     45  C   UNL     1      -6.203  -3.568   2.104  0.00  0.00    +0.159 A 
ATOM     46  C   UNL     1      -6.556  -3.777   3.432  0.00  0.00    +0.158 A 
ATOM     47  C   UNL     1      -5.706  -3.365   4.444  0.00  0.00    +0.050 A 
BRANCH  46  48
ATOM     48  O   UNL     1      -7.731  -4.423   3.686  0.00  0.00    -0.503 OA
ATOM     49  H   UNL     1      -7.737  -4.682   4.625  0.00  0.00    +0.292 HD
ENDBRANCH  46  48
BRANCH  45  50
ATOM     50  O   UNL     1      -7.059  -3.967   1.113  0.00  0.00    -0.503 OA
ATOM     51  H   UNL     1      -7.827  -4.349   1.585  0.00  0.00    +0.292 HD
ENDBRANCH  45  50
ENDBRANCH  31  43
BRANCH  37  52
ATOM     52  O   UNL     1       2.431  -1.328   5.607  0.00  0.00    -0.507 OA
ATOM     53  H   UNL     1       3.361  -1.324   5.318  0.00  0.00    +0.292 HD
ENDBRANCH  37  52
BRANCH  35  54
ATOM     54  O   UNL     1       1.955  -0.921   0.911  0.00  0.00    -0.506 OA
ATOM     55  H   UNL     1       1.301  -0.974   0.188  0.00  0.00    +0.292 HD
ENDBRANCH  35  54
ENDBRANCH  30  41
ENDBRANCH   1  30
TORSDOF 18
