REMARK  Name = 
REMARK  21 active torsions:
REMARK  status: ('A' for Active; 'I' for Inactive)
REMARK    1  A    between atoms: C_1  and  C_2
REMARK    2  A    between atoms: C_4  and  O_59
REMARK    3  A    between atoms: C_6  and  O_58
REMARK    4  A    between atoms: C_8  and  O_57
REMARK    5  A    between atoms: C_10  and  O_13
REMARK    6  A    between atoms: O_13  and  C_14
REMARK    7  A    between atoms: C_16  and  O_56
REMARK    8  A    between atoms: C_18  and  O_55
REMARK    9  A    between atoms: C_20  and  C_47
REMARK   10  A    between atoms: C_23  and  O_25
REMARK   11  A    between atoms: O_25  and  C_26
REMARK   12  A    between atoms: C_27  and  C_39
REMARK   13  A    between atoms: C_31  and  O_38
REMARK   14  A    between atoms: C_33  and  O_37
REMARK   15  A    between atoms: C_41  and  O_46
REMARK   16  A    between atoms: C_42  and  O_45
REMARK   17  A    between atoms: C_47  and  O_48
REMARK   18  A    between atoms: O_48  and  C_49
REMARK   19  A    between atoms: C_49  and  C_51
REMARK   20  A    between atoms: C_51  and  C_52
REMARK   21  A    between atoms: C_52  and  O_54
REMARK                            x       y       z     vdW  Elec       q    Type
REMARK                         _______ _______ _______ _____ _____    ______ ____
ROOT
ATOM      1  C   UNL     1       2.940   2.887  -3.161  0.00  0.00    +0.221 C 
ATOM      2  C   UNL     1       1.758   2.278  -3.963  0.00  0.00    +0.340 C 
ATOM      3  O   UNL     1       2.195   2.127  -5.337  0.00  0.00    -0.330 OA
ATOM      4  C   UNL     1       2.355   3.419  -5.978  0.00  0.00    +0.191 C 
ATOM      5  C   UNL     1       3.550   4.151  -5.348  0.00  0.00    +0.178 C 
ATOM      6  C   UNL     1       3.325   4.217  -3.845  0.00  0.00    +0.180 C 
ENDROOT
BRANCH   5   7
ATOM      7  O   UNL     1       3.628   5.517  -5.804  0.00  0.00    -0.386 OA
ATOM      8  H   UNL     1       4.189   5.972  -5.141  0.00  0.00    +0.210 HD
ENDBRANCH   5   7
BRANCH   6   9
ATOM      9  O   UNL     1       4.442   4.838  -3.200  0.00  0.00    -0.386 OA
ATOM     10  H   UNL     1       4.229   4.808  -2.246  0.00  0.00    +0.210 HD
ENDBRANCH   6   9
BRANCH   4  11
ATOM     11  C   UNL     1       2.496   3.294  -7.507  0.00  0.00    +0.266 C 
BRANCH  11  12
ATOM     12  O   UNL     1       2.480   4.597  -8.149  0.00  0.00    -0.462 OA
BRANCH  12  13
ATOM     13  C   UNL     1       3.665   5.028  -8.673  0.00  0.00    +0.318 C 
ATOM     14  O   UNL     1       4.696   4.375  -8.702  0.00  0.00    -0.250 OA
BRANCH  13  15
ATOM     15  C   UNL     1       3.583   6.458  -9.122  0.00  0.00    +0.240 C 
BRANCH  15  16
ATOM     16  C   UNL     1       2.510   6.747 -10.123  0.00  0.00    +0.316 C 
ATOM     17  O   UNL     1       2.729   7.190 -11.241  0.00  0.00    -0.250 OA
BRANCH  16  18
ATOM     18  O   UNL     1       1.253   6.555  -9.666  0.00  0.00    -0.480 OA
ATOM     19  H   UNL     1       1.219   6.158  -8.770  0.00  0.00    +0.295 HD
ENDBRANCH  16  18
ENDBRANCH  15  16
ENDBRANCH  13  15
ENDBRANCH  12  13
ENDBRANCH  11  12
ENDBRANCH   4  11
BRANCH   2  20
ATOM     20  O   UNL     1       1.292   1.041  -3.364  0.00  0.00    -0.453 OA
BRANCH  20  21
ATOM     21  C   UNL     1      -0.022   0.632  -3.648  0.00  0.00    +0.214 A 
ATOM     22  C   UNL     1      -0.772   1.192  -4.838  0.00  0.00    +0.238 A 
ATOM     23  O   UNL     1      -0.440   2.237  -5.388  0.00  0.00    -0.283 OA
ATOM     24  C   UNL     1      -2.008   0.534  -5.269  0.00  0.00    +0.109 A 
ATOM     25  C   UNL     1      -2.562  -0.395  -4.407  0.00  0.00    +0.147 A 
ATOM     26  C   UNL     1      -3.764  -1.036  -4.727  0.00  0.00    +0.092 A 
ATOM     27  C   UNL     1      -4.405  -0.724  -5.922  0.00  0.00    +0.124 A 
ATOM     28  C   UNL     1      -3.869   0.217  -6.791  0.00  0.00    +0.091 A 
ATOM     29  O   UNL     1      -2.004  -0.687  -3.197  0.00  0.00    -0.451 OA
ATOM     30  C   UNL     1      -2.670   0.847  -6.465  0.00  0.00    +0.135 A 
ATOM     31  C   UNL     1      -0.722  -0.238  -2.874  0.00  0.00    +0.181 A 
BRANCH  31  32
ATOM     32  C   UNL     1      -0.323  -0.830  -1.539  0.00  0.00    +0.025 A 
ATOM     33  C   UNL     1      -1.012  -1.980  -1.067  0.00  0.00    +0.015 A 
ATOM     34  C   UNL     1      -0.846  -2.482   0.231  0.00  0.00    +0.050 A 
ATOM     35  C   UNL     1       0.039  -1.855   1.080  0.00  0.00    +0.158 A 
ATOM     36  C   UNL     1       0.768  -0.752   0.637  0.00  0.00    +0.159 A 
ATOM     37  C   UNL     1       0.590  -0.234  -0.653  0.00  0.00    +0.060 A 
BRANCH  35  38
ATOM     38  O   UNL     1       0.180  -2.314   2.357  0.00  0.00    -0.503 OA
ATOM     39  H   UNL     1       0.833  -1.713   2.768  0.00  0.00    +0.292 HD
ENDBRANCH  35  38
BRANCH  36  40
ATOM     40  O   UNL     1       1.651  -0.196   1.528  0.00  0.00    -0.503 OA
ATOM     41  H   UNL     1       2.110   0.544   1.087  0.00  0.00    +0.292 HD
ENDBRANCH  36  40
ENDBRANCH  31  32
BRANCH  30  42
ATOM     42  O   UNL     1      -2.160   1.768  -7.336  0.00  0.00    -0.506 OA
ATOM     43  H   UNL     1      -2.747   1.866  -8.103  0.00  0.00    +0.292 HD
ENDBRANCH  30  42
BRANCH  27  44
ATOM     44  O   UNL     1      -5.575  -1.315  -6.288  0.00  0.00    -0.507 OA
ATOM     45  H   UNL     1      -5.821  -1.984  -5.629  0.00  0.00    +0.292 HD
ENDBRANCH  27  44
ENDBRANCH  20  21
ENDBRANCH   2  20
BRANCH   1  46
ATOM     46  O   UNL     1       2.719   3.088  -1.737  0.00  0.00    -0.337 OA
BRANCH  46  50
ATOM     47  C   UNL     1      -0.547   5.523  -2.799  0.00  0.00    +0.041 C 
ATOM     48  C   UNL     1       0.563   6.009  -1.872  0.00  0.00    +0.149 C 
ATOM     49  O   UNL     1       1.711   5.170  -1.932  0.00  0.00    -0.343 OA
ATOM     50  C   UNL     1       1.569   3.867  -1.390  0.00  0.00    +0.282 C 
ATOM     51  C   UNL     1       1.419   4.016   0.134  0.00  0.00    +0.201 C 
ATOM     52  C   UNL     1       0.193   4.916   0.419  0.00  0.00    +0.179 C 
ATOM     53  C   UNL     1       0.215   6.224  -0.395  0.00  0.00    +0.174 C 
BRANCH  51  54
ATOM     54  O   UNL     1       1.269   2.740   0.773  0.00  0.00    -0.384 OA
ATOM     55  H   UNL     1       0.321   2.650   0.999  0.00  0.00    +0.210 HD
ENDBRANCH  51  54
BRANCH  52  56
ATOM     56  O   UNL     1      -1.012   4.158   0.217  0.00  0.00    -0.386 OA
ATOM     57  H   UNL     1      -1.139   3.951  -0.722  0.00  0.00    +0.210 HD
ENDBRANCH  52  56
BRANCH  53  58
ATOM     58  O   UNL     1       1.236   7.068   0.167  0.00  0.00    -0.387 OA
ATOM     59  H   UNL     1       2.094   6.853  -0.258  0.00  0.00    +0.210 HD
ENDBRANCH  53  58
ENDBRANCH  46  50
ENDBRANCH   1  46
TORSDOF 20
