REMARK  Name = 
REMARK  10 active torsions:
REMARK  status: ('A' for Active; 'I' for Inactive)
REMARK    1  A    between atoms: C_2  and  O_35
REMARK    2  A    between atoms: C_4  and  O_34
REMARK    3  A    between atoms: C_6  and  O_33
REMARK    4  A    between atoms: C_8  and  O_11
REMARK    5  A    between atoms: O_11  and  C_12
REMARK    6  A    between atoms: C_13  and  C_25
REMARK    7  A    between atoms: C_17  and  O_24
REMARK    8  A    between atoms: C_19  and  O_23
REMARK    9  A    between atoms: C_27  and  O_32
REMARK   10  A    between atoms: C_28  and  O_31
REMARK                            x       y       z     vdW  Elec       q    Type
REMARK                         _______ _______ _______ _____ _____    ______ ____
ROOT
ATOM      1  C   UNL     1       2.634  -2.573  -0.000  0.00  0.00    +0.214 A 
ATOM      2  C   UNL     1       3.549  -1.489  -0.474  0.00  0.00    +0.238 A 
ATOM      3  O   UNL     1       3.126  -0.377  -0.761  0.00  0.00    -0.283 OA
ATOM      4  C   UNL     1       4.958  -1.844  -0.674  0.00  0.00    +0.109 A 
ATOM      5  C   UNL     1       5.270  -3.197  -0.770  0.00  0.00    +0.147 A 
ATOM      6  C   UNL     1       6.581  -3.592  -1.053  0.00  0.00    +0.092 A 
ATOM      7  C   UNL     1       7.565  -2.621  -1.233  0.00  0.00    +0.124 A 
ATOM      8  C   UNL     1       7.269  -1.267  -1.118  0.00  0.00    +0.091 A 
ATOM      9  O   UNL     1       4.328  -4.189  -0.625  0.00  0.00    -0.451 OA
ATOM     10  C   UNL     1       5.963  -0.878  -0.829  0.00  0.00    +0.135 A 
ATOM     11  C   UNL     1       3.053  -3.847  -0.174  0.00  0.00    +0.181 A 
ENDROOT
BRANCH  11  12
ATOM     12  C   UNL     1       2.184  -5.037   0.084  0.00  0.00    +0.025 A 
ATOM     13  C   UNL     1       2.733  -6.236   0.584  0.00  0.00    +0.015 A 
ATOM     14  C   UNL     1       1.930  -7.361   0.827  0.00  0.00    +0.050 A 
ATOM     15  C   UNL     1       0.570  -7.294   0.568  0.00  0.00    +0.158 A 
ATOM     16  C   UNL     1       0.010  -6.136   0.049  0.00  0.00    +0.159 A 
ATOM     17  C   UNL     1       0.805  -5.021  -0.211  0.00  0.00    +0.060 A 
BRANCH  15  18
ATOM     18  O   UNL     1      -0.219  -8.376   0.832  0.00  0.00    -0.503 OA
ATOM     19  H   UNL     1      -1.123  -8.081   0.601  0.00  0.00    +0.292 HD
ENDBRANCH  15  18
BRANCH  16  20
ATOM     20  O   UNL     1      -1.338  -6.132  -0.190  0.00  0.00    -0.503 OA
ATOM     21  H   UNL     1      -1.591  -5.236  -0.477  0.00  0.00    +0.292 HD
ENDBRANCH  16  20
ENDBRANCH  11  12
BRANCH   7  22
ATOM     22  O   UNL     1       8.854  -2.949  -1.525  0.00  0.00    -0.507 OA
ATOM     23  H   UNL     1       8.928  -3.913  -1.605  0.00  0.00    +0.292 HD
ENDBRANCH   7  22
BRANCH  10  24
ATOM     24  O   UNL     1       5.692   0.452  -0.674  0.00  0.00    -0.506 OA
ATOM     25  H   UNL     1       6.459   0.983  -0.944  0.00  0.00    +0.292 HD
ENDBRANCH  10  24
BRANCH   1  26
ATOM     26  O   UNL     1       1.379  -2.269   0.513  0.00  0.00    -0.453 OA
BRANCH  26  29
ATOM     27  C   UNL     1       2.220   0.187   3.056  0.00  0.00    +0.198 C 
ATOM     28  O   UNL     1       2.232  -1.045   2.345  0.00  0.00    -0.337 OA
ATOM     29  C   UNL     1       1.292  -1.046   1.261  0.00  0.00    +0.339 C 
ATOM     30  C   UNL     1      -0.155  -0.884   1.787  0.00  0.00    +0.214 C 
ATOM     31  C   UNL     1      -0.234   0.384   2.657  0.00  0.00    +0.180 C 
ATOM     32  C   UNL     1       0.865   0.396   3.726  0.00  0.00    +0.171 C 
BRANCH  30  33
ATOM     33  O   UNL     1      -1.085  -0.812   0.688  0.00  0.00    -0.383 OA
ATOM     34  H   UNL     1      -1.260   0.126   0.497  0.00  0.00    +0.210 HD
ENDBRANCH  30  33
BRANCH  31  35
ATOM     35  O   UNL     1      -1.516   0.486   3.289  0.00  0.00    -0.386 OA
ATOM     36  H   UNL     1      -1.430   1.213   3.937  0.00  0.00    +0.210 HD
ENDBRANCH  31  35
BRANCH  32  37
ATOM     37  O   UNL     1       0.811   1.642   4.425  0.00  0.00    -0.387 OA
ATOM     38  H   UNL     1       1.466   1.599   5.145  0.00  0.00    +0.210 HD
ENDBRANCH  32  37
ENDBRANCH  26  29
ENDBRANCH   1  26
TORSDOF 10
