REMARK  Name = 
REMARK  17 active torsions:
REMARK  status: ('A' for Active; 'I' for Inactive)
REMARK    1  A    between atoms: C_1  and  C_2
REMARK    2  A    between atoms: C_4  and  O_53
REMARK    3  A    between atoms: C_6  and  O_52
REMARK    4  A    between atoms: C_8  and  O_51
REMARK    5  A    between atoms: C_10  and  O_13
REMARK    6  A    between atoms: O_13  and  C_14
REMARK    7  A    between atoms: C_15  and  C_43
REMARK    8  A    between atoms: C_19  and  O_26
REMARK    9  A    between atoms: C_21  and  O_25
REMARK   10  A    between atoms: O_26  and  C_27
REMARK   11  A    between atoms: C_29  and  O_42
REMARK   12  A    between atoms: C_31  and  O_41
REMARK   13  A    between atoms: C_33  and  O_40
REMARK   14  A    between atoms: C_35  and  C_38
REMARK   15  A    between atoms: C_38  and  O_39
REMARK   16  A    between atoms: C_45  and  O_50
REMARK   17  A    between atoms: C_46  and  O_49
REMARK                            x       y       z     vdW  Elec       q    Type
REMARK                         _______ _______ _______ _____ _____    ______ ____
ROOT
ATOM      1  C   UNL     1       0.759   1.935  -2.478  0.00  0.00    +0.214 A 
ATOM      2  C   UNL     1      -0.750   1.944  -2.421  0.00  0.00    +0.238 A 
ATOM      3  O   UNL     1      -1.363   0.896  -2.295  0.00  0.00    -0.283 OA
ATOM      4  C   UNL     1      -1.444   3.252  -2.562  0.00  0.00    +0.109 A 
ATOM      5  C   UNL     1      -0.657   4.391  -2.525  0.00  0.00    +0.147 A 
ATOM      6  C   UNL     1      -1.231   5.661  -2.691  0.00  0.00    +0.093 A 
ATOM      7  C   UNL     1      -2.607   5.805  -2.891  0.00  0.00    +0.131 A 
ATOM      8  C   UNL     1      -3.412   4.664  -2.881  0.00  0.00    +0.092 A 
ATOM      9  O   UNL     1       0.698   4.358  -2.302  0.00  0.00    -0.451 OA
ATOM     10  C   UNL     1      -2.834   3.395  -2.733  0.00  0.00    +0.135 A 
ATOM     11  C   UNL     1       1.405   3.151  -2.364  0.00  0.00    +0.181 A 
ENDROOT
BRANCH  11  12
ATOM     12  C   UNL     1       2.887   3.457  -2.355  0.00  0.00    +0.025 A 
ATOM     13  C   UNL     1       3.810   2.718  -1.616  0.00  0.00    +0.015 A 
ATOM     14  C   UNL     1       5.175   2.695  -1.935  0.00  0.00    +0.050 A 
ATOM     15  C   UNL     1       5.678   3.671  -2.759  0.00  0.00    +0.158 A 
ATOM     16  C   UNL     1       4.822   4.668  -3.205  0.00  0.00    +0.159 A 
ATOM     17  C   UNL     1       3.432   4.546  -3.056  0.00  0.00    +0.060 A 
BRANCH  16  18
ATOM     18  O   UNL     1       5.388   5.788  -3.745  0.00  0.00    -0.503 OA
ATOM     19  H   UNL     1       4.891   6.544  -3.379  0.00  0.00    +0.292 HD
ENDBRANCH  16  18
BRANCH  15  20
ATOM     20  O   UNL     1       7.007   3.694  -3.044  0.00  0.00    -0.503 OA
ATOM     21  H   UNL     1       7.142   4.492  -3.591  0.00  0.00    +0.292 HD
ENDBRANCH  15  20
ENDBRANCH  11  12
BRANCH  10  22
ATOM     22  O   UNL     1      -3.655   2.301  -2.772  0.00  0.00    -0.506 OA
ATOM     23  H   UNL     1      -4.589   2.572  -2.782  0.00  0.00    +0.292 HD
ENDBRANCH  10  22
BRANCH   7  24
ATOM     24  O   UNL     1      -3.258   6.998  -3.076  0.00  0.00    -0.461 OA
BRANCH  24  25
ATOM     25  C   UNL     1      -2.534   7.940  -3.884  0.00  0.00    +0.339 C 
ATOM     26  O   UNL     1      -1.578   8.702  -3.142  0.00  0.00    -0.331 OA
ATOM     27  C   UNL     1      -2.082   9.796  -2.358  0.00  0.00    +0.179 C 
ATOM     28  C   UNL     1      -2.877  10.772  -3.242  0.00  0.00    +0.177 C 
ATOM     29  C   UNL     1      -4.034  10.050  -3.946  0.00  0.00    +0.180 C 
ATOM     30  C   UNL     1      -3.512   8.819  -4.710  0.00  0.00    +0.214 C 
BRANCH  29  31
ATOM     31  O   UNL     1      -5.072   9.763  -3.013  0.00  0.00    -0.386 OA
ATOM     32  H   UNL     1      -5.266   8.808  -3.020  0.00  0.00    +0.210 HD
ENDBRANCH  29  31
BRANCH  30  33
ATOM     33  O   UNL     1      -2.839   9.284  -5.897  0.00  0.00    -0.383 OA
ATOM     34  H   UNL     1      -2.062   9.800  -5.591  0.00  0.00    +0.210 HD
ENDBRANCH  30  33
BRANCH  28  35
ATOM     35  O   UNL     1      -1.981  11.309  -4.234  0.00  0.00    -0.386 OA
ATOM     36  H   UNL     1      -2.469  11.994  -4.730  0.00  0.00    +0.210 HD
ENDBRANCH  28  35
BRANCH  27  37
ATOM     37  C   UNL     1      -2.841   9.354  -1.091  0.00  0.00    +0.190 C 
BRANCH  37  38
ATOM     38  O   UNL     1      -2.038   8.525  -0.253  0.00  0.00    -0.392 OA
ATOM     39  H   UNL     1      -1.212   9.000  -0.061  0.00  0.00    +0.210 HD
ENDBRANCH  37  38
ENDBRANCH  27  37
ENDBRANCH  24  25
ENDBRANCH   7  24
BRANCH   1  40
ATOM     40  O   UNL     1       1.214   0.637  -2.689  0.00  0.00    -0.453 OA
BRANCH  40  44
ATOM     41  C   UNL     1       1.832  -1.112  -0.081  0.00  0.00    +0.041 C 
ATOM     42  C   UNL     1       3.141  -0.965  -0.848  0.00  0.00    +0.150 C 
ATOM     43  O   UNL     1       3.247   0.208  -1.641  0.00  0.00    -0.334 OA
ATOM     44  C   UNL     1       2.574   0.320  -2.891  0.00  0.00    +0.339 C 
ATOM     45  C   UNL     1       2.826  -0.917  -3.782  0.00  0.00    +0.214 C 
ATOM     46  C   UNL     1       2.762  -2.236  -3.000  0.00  0.00    +0.180 C 
ATOM     47  C   UNL     1       3.593  -2.136  -1.708  0.00  0.00    +0.174 C 
BRANCH  47  48
ATOM     48  O   UNL     1       4.976  -1.878  -2.057  0.00  0.00    -0.387 OA
ATOM     49  H   UNL     1       5.110  -0.916  -2.046  0.00  0.00    +0.210 HD
ENDBRANCH  47  48
BRANCH  46  50
ATOM     50  O   UNL     1       1.415  -2.635  -2.740  0.00  0.00    -0.386 OA
ATOM     51  H   UNL     1       0.862  -1.849  -2.574  0.00  0.00    +0.210 HD
ENDBRANCH  46  50
BRANCH  45  52
ATOM     52  O   UNL     1       2.009  -0.933  -4.953  0.00  0.00    -0.383 OA
ATOM     53  H   UNL     1       1.101  -1.146  -4.674  0.00  0.00    +0.210 HD
ENDBRANCH  45  52
ENDBRANCH  40  44
ENDBRANCH   1  40
TORSDOF 16
