REMARK  Name = 
REMARK  18 active torsions:
REMARK  status: ('A' for Active; 'I' for Inactive)
REMARK    1  A    between atoms: C_3  and  O_38
REMARK    2  A    between atoms: C_4  and  O_37
REMARK    3  A    between atoms: C_6  and  C_7
REMARK    4  A    between atoms: C_8  and  O_20
REMARK    5  A    between atoms: C_12  and  O_19
REMARK    6  A    between atoms: C_14  and  O_18
REMARK    7  A    between atoms: O_20  and  C_21
REMARK    8  A    between atoms: C_23  and  O_36
REMARK    9  A    between atoms: C_25  and  O_35
REMARK   10  A    between atoms: C_27  and  O_34
REMARK   11  A    between atoms: C_29  and  C_32
REMARK   12  A    between atoms: C_32  and  O_33
REMARK   13  A    between atoms: O_38  and  C_39
REMARK   14  A    between atoms: C_41  and  O_54
REMARK   15  A    between atoms: C_43  and  O_53
REMARK   16  A    between atoms: C_45  and  O_52
REMARK   17  A    between atoms: C_47  and  C_50
REMARK   18  A    between atoms: C_50  and  O_51
REMARK                            x       y       z     vdW  Elec       q    Type
REMARK                         _______ _______ _______ _____ _____    ______ ____
ROOT
ATOM      1  C   UNL     1      -1.318  -2.583   0.928  0.00  0.00    +0.181 A 
ATOM      2  O   UNL     1      -0.693  -3.826   1.075  0.00  0.00    -0.451 OA
ATOM      3  C   UNL     1      -1.240  -4.940   0.506  0.00  0.00    +0.147 A 
ATOM      4  C   UNL     1      -2.557  -4.973   0.077  0.00  0.00    +0.109 A 
ATOM      5  C   UNL     1      -3.104  -6.188  -0.359  0.00  0.00    +0.135 A 
ATOM      6  C   UNL     1      -2.315  -7.340  -0.427  0.00  0.00    +0.091 A 
ATOM      7  C   UNL     1      -0.974  -7.273  -0.048  0.00  0.00    +0.124 A 
ATOM      8  C   UNL     1      -3.302  -3.706   0.068  0.00  0.00    +0.238 A 
ATOM      9  O   UNL     1      -4.503  -3.720  -0.189  0.00  0.00    -0.283 OA
ATOM     10  C   UNL     1      -0.437  -6.081   0.425  0.00  0.00    +0.092 A 
ATOM     11  C   UNL     1      -2.535  -2.442   0.339  0.00  0.00    +0.214 A 
ENDROOT
BRANCH   1  13
ATOM     12  C   UNL     1       0.931  -1.745   1.637  0.00  0.00    +0.015 A 
ATOM     13  C   UNL     1      -0.445  -1.494   1.489  0.00  0.00    +0.025 A 
ATOM     14  C   UNL     1      -0.905  -0.238   1.925  0.00  0.00    +0.060 A 
ATOM     15  C   UNL     1      -0.028   0.703   2.486  0.00  0.00    +0.159 A 
ATOM     16  C   UNL     1       1.310   0.391   2.724  0.00  0.00    +0.165 A 
ATOM     17  C   UNL     1       1.793  -0.824   2.243  0.00  0.00    +0.050 A 
BRANCH  15  18
ATOM     18  O   UNL     1      -0.532   1.931   2.814  0.00  0.00    -0.503 OA
ATOM     19  H   UNL     1       0.215   2.452   3.166  0.00  0.00    +0.292 HD
ENDBRANCH  15  18
BRANCH  16  20
ATOM     20  O   UNL     1       2.087   1.284   3.439  0.00  0.00    -0.457 OA
BRANCH  20  21
ATOM     21  C   UNL     1       2.865   0.625   4.475  0.00  0.00    +0.339 C 
ATOM     22  O   UNL     1       2.651   1.230   5.753  0.00  0.00    -0.331 OA
ATOM     23  C   UNL     1       3.707   1.932   6.415  0.00  0.00    +0.179 C 
ATOM     24  C   UNL     1       5.113   1.374   6.155  0.00  0.00    +0.177 C 
ATOM     25  C   UNL     1       5.387   1.285   4.658  0.00  0.00    +0.180 C 
ATOM     26  C   UNL     1       4.328   0.399   3.997  0.00  0.00    +0.214 C 
BRANCH  26  27
ATOM     27  O   UNL     1       4.686  -0.979   4.257  0.00  0.00    -0.383 OA
ATOM     28  H   UNL     1       4.627  -1.097   5.231  0.00  0.00    +0.210 HD
ENDBRANCH  26  27
BRANCH  25  29
ATOM     29  O   UNL     1       5.490   2.591   4.103  0.00  0.00    -0.386 OA
ATOM     30  H   UNL     1       5.044   2.621   3.238  0.00  0.00    +0.210 HD
ENDBRANCH  25  29
BRANCH  24  31
ATOM     31  O   UNL     1       5.214   0.056   6.726  0.00  0.00    -0.386 OA
ATOM     32  H   UNL     1       6.164  -0.166   6.766  0.00  0.00    +0.210 HD
ENDBRANCH  24  31
BRANCH  23  33
ATOM     33  C   UNL     1       3.577   3.441   6.146  0.00  0.00    +0.190 C 
BRANCH  33  34
ATOM     34  O   UNL     1       2.310   3.945   6.577  0.00  0.00    -0.392 OA
ATOM     35  H   UNL     1       1.809   3.206   6.967  0.00  0.00    +0.210 HD
ENDBRANCH  33  34
ENDBRANCH  23  33
ENDBRANCH  20  21
ENDBRANCH  16  20
ENDBRANCH   1  13
BRANCH   7  36
ATOM     36  O   UNL     1      -0.158  -8.361  -0.111  0.00  0.00    -0.507 OA
ATOM     37  H   UNL     1      -0.668  -9.129  -0.425  0.00  0.00    +0.292 HD
ENDBRANCH   7  36
BRANCH   5  38
ATOM     38  O   UNL     1      -4.411  -6.327  -0.748  0.00  0.00    -0.506 OA
ATOM     39  H   UNL     1      -4.860  -5.459  -0.627  0.00  0.00    +0.292 HD
ENDBRANCH   5  38
BRANCH  11  40
ATOM     40  O   UNL     1      -3.155  -1.249  -0.032  0.00  0.00    -0.453 OA
BRANCH  40  41
ATOM     41  C   UNL     1      -2.347  -0.435  -0.902  0.00  0.00    +0.340 C 
ATOM     42  O   UNL     1      -2.630   0.958  -0.749  0.00  0.00    -0.331 OA
ATOM     43  C   UNL     1      -3.356   1.697  -1.739  0.00  0.00    +0.179 C 
ATOM     44  C   UNL     1      -3.499   1.084  -3.150  0.00  0.00    +0.177 C 
ATOM     45  C   UNL     1      -3.489  -0.446  -3.142  0.00  0.00    +0.180 C 
ATOM     46  C   UNL     1      -2.277  -0.926  -2.352  0.00  0.00    +0.214 C 
BRANCH  46  47
ATOM     47  O   UNL     1      -1.068  -0.420  -2.975  0.00  0.00    -0.383 OA
ATOM     48  H   UNL     1      -0.731   0.322  -2.428  0.00  0.00    +0.210 HD
ENDBRANCH  46  47
BRANCH  45  49
ATOM     49  O   UNL     1      -4.695  -1.023  -2.657  0.00  0.00    -0.386 OA
ATOM     50  H   UNL     1      -5.137  -0.408  -2.032  0.00  0.00    +0.210 HD
ENDBRANCH  45  49
BRANCH  44  51
ATOM     51  O   UNL     1      -2.421   1.592  -3.964  0.00  0.00    -0.386 OA
ATOM     52  H   UNL     1      -1.779   0.867  -4.112  0.00  0.00    +0.210 HD
ENDBRANCH  44  51
BRANCH  43  53
ATOM     53  C   UNL     1      -4.713   2.105  -1.161  0.00  0.00    +0.190 C 
BRANCH  53  54
ATOM     54  O   UNL     1      -5.527   0.953  -0.960  0.00  0.00    -0.392 OA
ATOM     55  H   UNL     1      -5.267   0.589  -0.090  0.00  0.00    +0.210 HD
ENDBRANCH  53  54
ENDBRANCH  43  53
ENDBRANCH  40  41
ENDBRANCH  11  40
TORSDOF 18
