REMARK  Name = 
REMARK  11 active torsions:
REMARK  status: ('A' for Active; 'I' for Inactive)
REMARK    1  A    between atoms: C_3  and  O_35
REMARK    2  A    between atoms: C_4  and  O_34
REMARK    3  A    between atoms: C_6  and  C_7
REMARK    4  A    between atoms: C_8  and  O_20
REMARK    5  A    between atoms: C_12  and  O_19
REMARK    6  A    between atoms: C_14  and  O_18
REMARK    7  A    between atoms: O_20  and  C_21
REMARK    8  A    between atoms: C_23  and  O_33
REMARK    9  A    between atoms: C_25  and  O_32
REMARK   10  A    between atoms: C_27  and  C_30
REMARK   11  A    between atoms: C_30  and  O_31
REMARK                            x       y       z     vdW  Elec       q    Type
REMARK                         _______ _______ _______ _____ _____    ______ ____
ROOT
ATOM      1  C   UNL     1      -1.317  -2.551  -0.223  0.00  0.00    +0.181 A 
ATOM      2  O   UNL     1      -0.604  -3.736   0.033  0.00  0.00    -0.451 OA
ATOM      3  C   UNL     1      -1.178  -4.960  -0.156  0.00  0.00    +0.147 A 
ATOM      4  C   UNL     1      -2.496  -5.105  -0.527  0.00  0.00    +0.109 A 
ATOM      5  C   UNL     1      -3.062  -6.380  -0.693  0.00  0.00    +0.135 A 
ATOM      6  C   UNL     1      -2.301  -7.519  -0.490  0.00  0.00    +0.091 A 
ATOM      7  C   UNL     1      -0.968  -7.370  -0.123  0.00  0.00    +0.124 A 
ATOM      8  C   UNL     1      -3.280  -3.904  -0.733  0.00  0.00    +0.238 A 
ATOM      9  O   UNL     1      -4.466  -4.096  -0.984  0.00  0.00    -0.283 OA
ATOM     10  C   UNL     1      -0.401  -6.103   0.047  0.00  0.00    +0.092 A 
ATOM     11  C   UNL     1      -2.627  -2.550  -0.593  0.00  0.00    +0.214 A 
ENDROOT
BRANCH   1  13
ATOM     12  C   UNL     1      -0.781  -0.029  -0.333  0.00  0.00    +0.015 A 
ATOM     13  C   UNL     1      -0.398  -1.357  -0.067  0.00  0.00    +0.025 A 
ATOM     14  C   UNL     1       0.957  -1.554   0.298  0.00  0.00    +0.060 A 
ATOM     15  C   UNL     1       1.877  -0.507   0.276  0.00  0.00    +0.159 A 
ATOM     16  C   UNL     1       1.491   0.762  -0.116  0.00  0.00    +0.158 A 
ATOM     17  C   UNL     1       0.155   1.020  -0.378  0.00  0.00    +0.050 A 
BRANCH  15  18
ATOM     18  O   UNL     1       3.181  -0.746   0.608  0.00  0.00    -0.503 OA
ATOM     19  H   UNL     1       3.619   0.127   0.542  0.00  0.00    +0.292 HD
ENDBRANCH  15  18
BRANCH  16  20
ATOM     20  O   UNL     1       2.455   1.717  -0.262  0.00  0.00    -0.503 OA
ATOM     21  H   UNL     1       2.127   2.366  -0.910  0.00  0.00    +0.292 HD
ENDBRANCH  16  20
ENDBRANCH   1  13
BRANCH   5  22
ATOM     22  O   UNL     1      -4.370  -6.577  -1.053  0.00  0.00    -0.506 OA
ATOM     23  H   UNL     1      -4.795  -5.700  -1.149  0.00  0.00    +0.292 HD
ENDBRANCH   5  22
BRANCH   7  24
ATOM     24  O   UNL     1      -0.182  -8.461   0.086  0.00  0.00    -0.507 OA
ATOM     25  H   UNL     1      -0.710  -9.267  -0.075  0.00  0.00    +0.292 HD
ENDBRANCH   7  24
BRANCH  11  26
ATOM     26  O   UNL     1      -3.372  -1.380  -0.860  0.00  0.00    -0.453 OA
BRANCH  26  27
ATOM     27  C   UNL     1      -4.785  -1.531  -0.683  0.00  0.00    +0.340 C 
ATOM     28  O   UNL     1      -5.479  -1.973  -1.874  0.00  0.00    -0.331 OA
ATOM     29  C   UNL     1      -6.865  -2.016  -1.441  0.00  0.00    +0.179 C 
ATOM     30  C   UNL     1      -7.001  -0.854  -0.429  0.00  0.00    +0.180 C 
ATOM     31  C   UNL     1      -5.582  -0.255  -0.383  0.00  0.00    +0.214 C 
BRANCH  30  32
ATOM     32  O   UNL     1      -7.320  -1.415   0.856  0.00  0.00    -0.386 OA
ATOM     33  H   UNL     1      -7.406  -0.678   1.486  0.00  0.00    +0.210 HD
ENDBRANCH  30  32
BRANCH  31  34
ATOM     34  O   UNL     1      -5.435   0.760  -1.382  0.00  0.00    -0.383 OA
ATOM     35  H   UNL     1      -4.847   0.402  -2.074  0.00  0.00    +0.210 HD
ENDBRANCH  31  34
BRANCH  29  36
ATOM     36  C   UNL     1      -7.809  -1.961  -2.638  0.00  0.00    +0.190 C 
BRANCH  36  37
ATOM     37  O   UNL     1      -7.646  -0.763  -3.385  0.00  0.00    -0.392 OA
ATOM     38  H   UNL     1      -6.719  -0.761  -3.684  0.00  0.00    +0.210 HD
ENDBRANCH  36  37
ENDBRANCH  29  36
ENDBRANCH  26  27
ENDBRANCH  11  26
TORSDOF 11
