REMARK  Name = 
REMARK  17 active torsions:
REMARK  status: ('A' for Active; 'I' for Inactive)
REMARK    1  A    between atoms: C_1  and  C_2
REMARK    2  A    between atoms: C_4  and  O_53
REMARK    3  A    between atoms: C_6  and  O_52
REMARK    4  A    between atoms: C_8  and  O_51
REMARK    5  A    between atoms: C_10  and  O_13
REMARK    6  A    between atoms: O_13  and  C_14
REMARK    7  A    between atoms: C_16  and  O_50
REMARK    8  A    between atoms: C_21  and  C_42
REMARK    9  A    between atoms: C_22  and  O_25
REMARK   10  A    between atoms: O_25  and  C_26
REMARK   11  A    between atoms: C_28  and  O_41
REMARK   12  A    between atoms: C_30  and  O_40
REMARK   13  A    between atoms: C_32  and  O_39
REMARK   14  A    between atoms: C_34  and  C_37
REMARK   15  A    between atoms: C_37  and  O_38
REMARK   16  A    between atoms: C_44  and  O_49
REMARK   17  A    between atoms: C_45  and  O_48
REMARK                            x       y       z     vdW  Elec       q    Type
REMARK                         _______ _______ _______ _____ _____    ______ ____
ROOT
ATOM      1  C   UNL     1       2.696   3.025  -3.202  0.00  0.00    +0.131 A 
ATOM      2  C   UNL     1       1.439   3.510  -2.825  0.00  0.00    +0.093 A 
ATOM      3  C   UNL     1       1.237   4.887  -2.706  0.00  0.00    +0.147 A 
ATOM      4  O   UNL     1      -0.002   5.336  -2.314  0.00  0.00    -0.451 OA
ATOM      5  C   UNL     1      -0.292   6.692  -2.486  0.00  0.00    +0.181 A 
ATOM      6  C   UNL     1       0.633   7.645  -2.736  0.00  0.00    +0.214 A 
ATOM      7  C   UNL     1       2.047   7.170  -2.626  0.00  0.00    +0.238 A 
ATOM      8  O   UNL     1       2.945   7.884  -2.201  0.00  0.00    -0.283 OA
ATOM      9  C   UNL     1       2.286   5.764  -2.946  0.00  0.00    +0.109 A 
ATOM     10  C   UNL     1       3.518   5.290  -3.390  0.00  0.00    +0.135 A 
ATOM     11  C   UNL     1       3.722   3.921  -3.518  0.00  0.00    +0.092 A 
ENDROOT
BRANCH   5  12
ATOM     12  C   UNL     1      -1.719   6.975  -2.243  0.00  0.00    +0.025 A 
ATOM     13  C   UNL     1      -2.173   7.036  -0.910  0.00  0.00    +0.015 A 
ATOM     14  C   UNL     1      -3.529   7.204  -0.617  0.00  0.00    +0.050 A 
ATOM     15  C   UNL     1      -4.432   7.323  -1.660  0.00  0.00    +0.158 A 
ATOM     16  C   UNL     1      -4.000   7.278  -2.984  0.00  0.00    +0.159 A 
ATOM     17  C   UNL     1      -2.648   7.102  -3.288  0.00  0.00    +0.060 A 
BRANCH  15  18
ATOM     18  O   UNL     1      -5.758   7.473  -1.373  0.00  0.00    -0.503 OA
ATOM     19  H   UNL     1      -6.195   7.536  -2.245  0.00  0.00    +0.292 HD
ENDBRANCH  15  18
BRANCH  16  20
ATOM     20  O   UNL     1      -4.952   7.404  -3.955  0.00  0.00    -0.503 OA
ATOM     21  H   UNL     1      -4.503   7.468  -4.815  0.00  0.00    +0.292 HD
ENDBRANCH  16  20
ENDBRANCH   5  12
BRANCH  10  22
ATOM     22  O   UNL     1       4.516   6.156  -3.728  0.00  0.00    -0.506 OA
ATOM     23  H   UNL     1       5.333   5.666  -3.917  0.00  0.00    +0.292 HD
ENDBRANCH  10  22
BRANCH   6  24
ATOM     24  O   UNL     1       0.320   8.988  -2.961  0.00  0.00    -0.453 OA
BRANCH  24  25
ATOM     25  C   UNL     1       1.324   9.753  -3.664  0.00  0.00    +0.340 C 
ATOM     26  O   UNL     1       1.116  11.173  -3.535  0.00  0.00    -0.331 OA
ATOM     27  C   UNL     1       0.157  11.806  -4.383  0.00  0.00    +0.179 C 
ATOM     28  C   UNL     1       0.312  11.412  -5.860  0.00  0.00    +0.177 C 
ATOM     29  C   UNL     1       0.451   9.900  -6.071  0.00  0.00    +0.180 C 
ATOM     30  C   UNL     1       1.525   9.327  -5.143  0.00  0.00    +0.214 C 
BRANCH  28  31
ATOM     31  O   UNL     1      -0.743  11.948  -6.658  0.00  0.00    -0.386 OA
ATOM     32  H   UNL     1      -1.369  11.216  -6.829  0.00  0.00    +0.210 HD
ENDBRANCH  28  31
BRANCH  29  33
ATOM     33  O   UNL     1      -0.806   9.224  -5.948  0.00  0.00    -0.386 OA
ATOM     34  H   UNL     1      -1.261   9.549  -5.139  0.00  0.00    +0.210 HD
ENDBRANCH  29  33
BRANCH  30  35
ATOM     35  O   UNL     1       2.807   9.773  -5.628  0.00  0.00    -0.383 OA
ATOM     36  H   UNL     1       3.065  10.575  -5.135  0.00  0.00    +0.210 HD
ENDBRANCH  30  35
BRANCH  27  37
ATOM     37  C   UNL     1      -1.262  11.705  -3.811  0.00  0.00    +0.190 C 
BRANCH  37  38
ATOM     38  O   UNL     1      -1.747  10.365  -3.824  0.00  0.00    -0.392 OA
ATOM     39  H   UNL     1      -1.360   9.938  -3.029  0.00  0.00    +0.210 HD
ENDBRANCH  37  38
ENDBRANCH  27  37
ENDBRANCH  24  25
ENDBRANCH   6  24
BRANCH   1  40
ATOM     40  O   UNL     1       3.077   1.717  -3.288  0.00  0.00    -0.461 OA
BRANCH  40  44
ATOM     41  C   UNL     1      -0.565  -0.018  -1.698  0.00  0.00    +0.041 C 
ATOM     42  C   UNL     1       0.831  -0.197  -1.110  0.00  0.00    +0.150 C 
ATOM     43  O   UNL     1       1.741   0.808  -1.572  0.00  0.00    -0.334 OA
ATOM     44  C   UNL     1       2.134   0.696  -2.944  0.00  0.00    +0.339 C 
ATOM     45  C   UNL     1       2.832  -0.659  -3.207  0.00  0.00    +0.214 C 
ATOM     46  C   UNL     1       1.975  -1.833  -2.713  0.00  0.00    +0.180 C 
ATOM     47  C   UNL     1       1.447  -1.593  -1.295  0.00  0.00    +0.174 C 
BRANCH  47  48
ATOM     48  O   UNL     1       2.558  -1.711  -0.381  0.00  0.00    -0.387 OA
ATOM     49  H   UNL     1       2.984  -0.835  -0.305  0.00  0.00    +0.210 HD
ENDBRANCH  47  48
BRANCH  46  50
ATOM     50  O   UNL     1       0.922  -2.118  -3.647  0.00  0.00    -0.386 OA
ATOM     51  H   UNL     1       0.473  -1.301  -3.917  0.00  0.00    +0.210 HD
ENDBRANCH  46  50
BRANCH  45  52
ATOM     52  O   UNL     1       3.121  -0.825  -4.605  0.00  0.00    -0.383 OA
ATOM     53  H   UNL     1       2.519  -1.510  -4.953  0.00  0.00    +0.210 HD
ENDBRANCH  45  52
ENDBRANCH  40  44
ENDBRANCH   1  40
TORSDOF 16
