REMARK  Name = 
REMARK  8 active torsions:
REMARK  status: ('A' for Active; 'I' for Inactive)
REMARK    1  A    between atoms: C_1  and  O_2
REMARK    2  A    between atoms: O_2  and  C_3
REMARK    3  A    between atoms: C_5  and  O_24
REMARK    4  A    between atoms: C_10  and  C_15
REMARK    5  A    between atoms: C_11  and  O_14
REMARK    6  A    between atoms: C_17  and  O_22
REMARK    7  A    between atoms: C_18  and  O_21
REMARK    8  A    between atoms: O_22  and  C_23
REMARK                            x       y       z     vdW  Elec       q    Type
REMARK                         _______ _______ _______ _____ _____    ______ ____
ROOT
ATOM      1  C   UNL     1       3.136  -1.141  -0.594  0.00  0.00    +0.127 A 
ATOM      2  C   UNL     1       4.211  -1.016  -1.486  0.00  0.00    +0.092 A 
ATOM      3  C   UNL     1       4.801  -2.153  -2.063  0.00  0.00    +0.147 A 
ATOM      4  O   UNL     1       5.850  -1.944  -2.932  0.00  0.00    -0.451 OA
ATOM      5  C   UNL     1       6.429  -3.044  -3.570  0.00  0.00    +0.181 A 
ATOM      6  C   UNL     1       6.012  -4.313  -3.368  0.00  0.00    +0.208 A 
ATOM      7  C   UNL     1       4.925  -4.584  -2.394  0.00  0.00    +0.238 A 
ATOM      8  O   UNL     1       4.543  -5.732  -2.204  0.00  0.00    -0.283 OA
ATOM      9  C   UNL     1       4.311  -3.416  -1.739  0.00  0.00    +0.109 A 
ATOM     10  C   UNL     1       3.244  -3.541  -0.841  0.00  0.00    +0.135 A 
ATOM     11  C   UNL     1       2.655  -2.409  -0.272  0.00  0.00    +0.092 A 
ENDROOT
BRANCH   5  12
ATOM     12  C   UNL     1       7.519  -2.696  -4.539  0.00  0.00    +0.025 A 
ATOM     13  C   UNL     1       8.572  -3.594  -4.813  0.00  0.00    +0.015 A 
ATOM     14  C   UNL     1       9.497  -3.352  -5.829  0.00  0.00    +0.050 A 
ATOM     15  C   UNL     1       9.418  -2.170  -6.541  0.00  0.00    +0.158 A 
ATOM     16  C   UNL     1       8.455  -1.203  -6.239  0.00  0.00    +0.162 A 
ATOM     17  C   UNL     1       7.508  -1.470  -5.238  0.00  0.00    +0.061 A 
BRANCH  15  18
ATOM     18  O   UNL     1      10.311  -1.969  -7.557  0.00  0.00    -0.503 OA
ATOM     19  H   UNL     1      10.075  -1.100  -7.935  0.00  0.00    +0.292 HD
ENDBRANCH  15  18
BRANCH  16  20
ATOM     20  O   UNL     1       8.539  -0.071  -7.008  0.00  0.00    -0.491 OA
ATOM     21  C   UNL     1       7.660   0.997  -6.684  0.00  0.00    +0.277 C 
ENDBRANCH  16  20
ENDBRANCH   5  12
BRANCH   1  23
ATOM     22  C   UNL     1       1.541  -0.071   0.813  0.00  0.00    +0.277 C 
ATOM     23  O   UNL     1       2.634   0.035  -0.101  0.00  0.00    -0.495 OA
ENDBRANCH   1  23
BRANCH   6  24
ATOM     24  O   UNL     1       6.503  -5.421  -4.037  0.00  0.00    -0.501 OA
ATOM     25  H   UNL     1       6.443  -5.234  -4.988  0.00  0.00    +0.292 HD
ENDBRANCH   6  24
BRANCH  10  26
ATOM     26  O   UNL     1       2.743  -4.766  -0.503  0.00  0.00    -0.506 OA
ATOM     27  H   UNL     1       1.999  -4.687   0.112  0.00  0.00    +0.292 HD
ENDBRANCH  10  26
TORSDOF 6
