REMARK  Name = 
REMARK  12 active torsions:
REMARK  status: ('A' for Active; 'I' for Inactive)
REMARK    1  A    between atoms: C_3  and  O_22
REMARK    2  A    between atoms: C_4  and  O_21
REMARK    3  A    between atoms: C_6  and  C_7
REMARK    4  A    between atoms: C_8  and  O_20
REMARK    5  A    between atoms: C_12  and  O_19
REMARK    6  A    between atoms: C_14  and  O_18
REMARK    7  A    between atoms: O_22  and  C_23
REMARK    8  A    between atoms: C_25  and  O_38
REMARK    9  A    between atoms: C_27  and  O_37
REMARK   10  A    between atoms: C_29  and  O_36
REMARK   11  A    between atoms: C_31  and  C_34
REMARK   12  A    between atoms: C_34  and  O_35
REMARK                            x       y       z     vdW  Elec       q    Type
REMARK                         _______ _______ _______ _____ _____    ______ ____
ROOT
ATOM      1  C   UNL     1      -1.404  -0.143   0.047  0.00  0.00    +0.015 A 
ATOM      2  C   UNL     1      -0.625  -1.304  -0.073  0.00  0.00    +0.025 A 
ATOM      3  C   UNL     1       0.765  -1.134  -0.157  0.00  0.00    +0.060 A 
ATOM      4  C   UNL     1       1.343   0.143  -0.047  0.00  0.00    +0.159 A 
ATOM      5  C   UNL     1       0.561   1.288   0.120  0.00  0.00    +0.165 A 
ATOM      6  C   UNL     1      -0.825   1.126   0.084  0.00  0.00    +0.050 A 
ENDROOT
BRANCH   2   7
ATOM      7  C   UNL     1      -1.335  -2.611  -0.198  0.00  0.00    +0.181 A 
ATOM      8  O   UNL     1      -2.597  -2.455  -0.774  0.00  0.00    -0.451 OA
ATOM      9  C   UNL     1      -3.422  -3.539  -0.906  0.00  0.00    +0.147 A 
ATOM     10  C   UNL     1      -3.020  -4.823  -0.600  0.00  0.00    +0.109 A 
ATOM     11  C   UNL     1      -3.900  -5.900  -0.793  0.00  0.00    +0.135 A 
ATOM     12  C   UNL     1      -5.190  -5.675  -1.277  0.00  0.00    +0.091 A 
ATOM     13  C   UNL     1      -5.589  -4.375  -1.561  0.00  0.00    +0.124 A 
ATOM     14  C   UNL     1      -1.677  -5.022  -0.056  0.00  0.00    +0.238 A 
ATOM     15  O   UNL     1      -1.287  -6.159   0.194  0.00  0.00    -0.283 OA
ATOM     16  C   UNL     1      -4.717  -3.304  -1.381  0.00  0.00    +0.092 A 
ATOM     17  C   UNL     1      -0.846  -3.802   0.207  0.00  0.00    +0.208 A 
BRANCH  11  18
ATOM     18  O   UNL     1      -3.567  -7.199  -0.525  0.00  0.00    -0.506 OA
ATOM     19  H   UNL     1      -2.637  -7.211  -0.197  0.00  0.00    +0.292 HD
ENDBRANCH  11  18
BRANCH  13  20
ATOM     20  O   UNL     1      -6.842  -4.105  -2.025  0.00  0.00    -0.507 OA
ATOM     21  H   UNL     1      -7.331  -4.942  -2.110  0.00  0.00    +0.292 HD
ENDBRANCH  13  20
BRANCH  17  22
ATOM     22  O   UNL     1       0.337  -4.003   0.882  0.00  0.00    -0.501 OA
ATOM     23  H   UNL     1       0.580  -3.184   1.341  0.00  0.00    +0.292 HD
ENDBRANCH  17  22
ENDBRANCH   2   7
BRANCH   4  24
ATOM     24  O   UNL     1       2.708   0.222  -0.113  0.00  0.00    -0.503 OA
ATOM     25  H   UNL     1       2.916   1.171  -0.201  0.00  0.00    +0.292 HD
ENDBRANCH   4  24
BRANCH   5  26
ATOM     26  O   UNL     1       1.195   2.504   0.338  0.00  0.00    -0.457 OA
BRANCH  26  27
ATOM     27  C   UNL     1       0.343   3.478   0.990  0.00  0.00    +0.339 C 
ATOM     28  O   UNL     1      -0.421   4.239   0.057  0.00  0.00    -0.331 OA
ATOM     29  C   UNL     1      -0.059   5.601  -0.184  0.00  0.00    +0.179 C 
ATOM     30  C   UNL     1       0.144   6.355   1.141  0.00  0.00    +0.177 C 
ATOM     31  C   UNL     1       1.293   5.730   1.936  0.00  0.00    +0.180 C 
ATOM     32  C   UNL     1       1.030   4.235   2.163  0.00  0.00    +0.214 C 
BRANCH  30  33
ATOM     33  O   UNL     1      -1.068   6.273   1.916  0.00  0.00    -0.386 OA
ATOM     34  H   UNL     1      -0.964   6.862   2.686  0.00  0.00    +0.210 HD
ENDBRANCH  30  33
BRANCH  31  35
ATOM     35  O   UNL     1       2.536   6.015   1.305  0.00  0.00    -0.386 OA
ATOM     36  H   UNL     1       3.139   5.259   1.415  0.00  0.00    +0.210 HD
ENDBRANCH  31  35
BRANCH  32  37
ATOM     37  O   UNL     1       0.136   4.169   3.310  0.00  0.00    -0.383 OA
ATOM     38  H   UNL     1      -0.727   4.525   3.001  0.00  0.00    +0.210 HD
ENDBRANCH  32  37
BRANCH  29  39
ATOM     39  C   UNL     1       1.124   5.741  -1.162  0.00  0.00    +0.190 C 
BRANCH  39  40
ATOM     40  O   UNL     1       0.848   5.154  -2.432  0.00  0.00    -0.392 OA
ATOM     41  H   UNL     1       0.134   5.661  -2.853  0.00  0.00    +0.210 HD
ENDBRANCH  39  40
ENDBRANCH  29  39
ENDBRANCH  26  27
ENDBRANCH   5  26
TORSDOF 12
