REMARK  Name = 
REMARK  10 active torsions:
REMARK  status: ('A' for Active; 'I' for Inactive)
REMARK    1  A    between atoms: C_2  and  O_34
REMARK    2  A    between atoms: C_4  and  O_33
REMARK    3  A    between atoms: C_6  and  O_32
REMARK    4  A    between atoms: C_8  and  O_10
REMARK    5  A    between atoms: O_10  and  C_11
REMARK    6  A    between atoms: C_12  and  C_24
REMARK    7  A    between atoms: C_16  and  O_23
REMARK    8  A    between atoms: C_18  and  O_22
REMARK    9  A    between atoms: C_26  and  O_31
REMARK   10  A    between atoms: C_27  and  O_30
REMARK                            x       y       z     vdW  Elec       q    Type
REMARK                         _______ _______ _______ _____ _____    ______ ____
ROOT
ATOM      1  C   UNL     1       2.637  -2.572   0.001  0.00  0.00    +0.214 A 
ATOM      2  C   UNL     1       3.552  -1.492  -0.482  0.00  0.00    +0.238 A 
ATOM      3  O   UNL     1       3.129  -0.382  -0.780  0.00  0.00    -0.283 OA
ATOM      4  C   UNL     1       4.961  -1.848  -0.678  0.00  0.00    +0.109 A 
ATOM      5  C   UNL     1       5.271  -3.203  -0.769  0.00  0.00    +0.147 A 
ATOM      6  C   UNL     1       6.581  -3.601  -1.051  0.00  0.00    +0.092 A 
ATOM      7  C   UNL     1       7.566  -2.630  -1.235  0.00  0.00    +0.124 A 
ATOM      8  C   UNL     1       7.272  -1.277  -1.123  0.00  0.00    +0.091 A 
ATOM      9  O   UNL     1       4.328  -4.191  -0.621  0.00  0.00    -0.451 OA
ATOM     10  C   UNL     1       5.968  -0.885  -0.835  0.00  0.00    +0.135 A 
ATOM     11  C   UNL     1       3.051  -3.847  -0.171  0.00  0.00    +0.181 A 
ENDROOT
BRANCH  11  12
ATOM     12  C   UNL     1       2.179  -5.033   0.085  0.00  0.00    +0.025 A 
ATOM     13  C   UNL     1       2.723  -6.235   0.582  0.00  0.00    +0.015 A 
ATOM     14  C   UNL     1       1.917  -7.358   0.815  0.00  0.00    +0.050 A 
ATOM     15  C   UNL     1       0.558  -7.287   0.554  0.00  0.00    +0.158 A 
ATOM     16  C   UNL     1       0.002  -6.125   0.040  0.00  0.00    +0.159 A 
ATOM     17  C   UNL     1       0.801  -5.011  -0.212  0.00  0.00    +0.060 A 
BRANCH  15  18
ATOM     18  O   UNL     1      -0.237  -8.367   0.804  0.00  0.00    -0.503 OA
ATOM     19  H   UNL     1      -1.138  -8.069   0.574  0.00  0.00    +0.292 HD
ENDBRANCH  15  18
BRANCH  16  20
ATOM     20  O   UNL     1      -1.346  -6.117  -0.202  0.00  0.00    -0.503 OA
ATOM     21  H   UNL     1      -1.595  -5.218  -0.483  0.00  0.00    +0.292 HD
ENDBRANCH  16  20
ENDBRANCH  11  12
BRANCH   7  22
ATOM     22  O   UNL     1       8.857  -2.963  -1.529  0.00  0.00    -0.507 OA
ATOM     23  H   UNL     1       8.932  -3.929  -1.607  0.00  0.00    +0.292 HD
ENDBRANCH   7  22
BRANCH  10  24
ATOM     24  O   UNL     1       5.699   0.447  -0.683  0.00  0.00    -0.506 OA
ATOM     25  H   UNL     1       6.466   0.975  -0.958  0.00  0.00    +0.292 HD
ENDBRANCH  10  24
BRANCH   1  26
ATOM     26  O   UNL     1       1.383  -2.262   0.514  0.00  0.00    -0.453 OA
BRANCH  26  29
ATOM     27  C   UNL     1       2.239   0.197   3.049  0.00  0.00    +0.198 C 
ATOM     28  O   UNL     1       2.246  -1.037   2.341  0.00  0.00    -0.337 OA
ATOM     29  C   UNL     1       1.301  -1.038   1.261  0.00  0.00    +0.339 C 
ATOM     30  C   UNL     1      -0.143  -0.873   1.794  0.00  0.00    +0.214 C 
ATOM     31  C   UNL     1      -0.214   0.398   2.661  0.00  0.00    +0.180 C 
ATOM     32  C   UNL     1       0.888   0.412   3.724  0.00  0.00    +0.171 C 
BRANCH  30  33
ATOM     33  O   UNL     1      -1.079  -0.804   0.700  0.00  0.00    -0.383 OA
ATOM     34  H   UNL     1      -1.285   0.132   0.532  0.00  0.00    +0.210 HD
ENDBRANCH  30  33
BRANCH  31  35
ATOM     35  O   UNL     1      -1.496   0.504   3.299  0.00  0.00    -0.386 OA
ATOM     36  H   UNL     1      -1.404   1.233   3.946  0.00  0.00    +0.210 HD
ENDBRANCH  31  35
BRANCH  32  37
ATOM     37  O   UNL     1       0.840   1.661   4.418  0.00  0.00    -0.387 OA
ATOM     38  H   UNL     1       1.500   1.620   5.135  0.00  0.00    +0.210 HD
ENDBRANCH  32  37
ENDBRANCH  26  29
ENDBRANCH   1  26
TORSDOF 10
