REMARK  Name = 
REMARK  8 active torsions:
REMARK  status: ('A' for Active; 'I' for Inactive)
REMARK    1  A    between atoms: C_1  and  O_2
REMARK    2  A    between atoms: O_2  and  C_3
REMARK    3  A    between atoms: C_4  and  O_24
REMARK    4  A    between atoms: C_6  and  C_9
REMARK    5  A    between atoms: C_10  and  O_23
REMARK    6  A    between atoms: C_14  and  O_22
REMARK    7  A    between atoms: C_16  and  O_20
REMARK    8  A    between atoms: O_20  and  C_21
REMARK                            x       y       z     vdW  Elec       q    Type
REMARK                         _______ _______ _______ _____ _____    ______ ____
ROOT
ATOM      1  C   UNL     1       4.511  -5.113  -1.798  0.00  0.00    +0.181 A 
ATOM      2  O   UNL     1       5.298  -5.120  -2.954  0.00  0.00    -0.451 OA
ATOM      3  C   UNL     1       5.692  -6.324  -3.488  0.00  0.00    +0.147 A 
ATOM      4  C   UNL     1       5.241  -7.541  -2.993  0.00  0.00    +0.109 A 
ATOM      5  C   UNL     1       5.617  -8.735  -3.613  0.00  0.00    +0.135 A 
ATOM      6  C   UNL     1       6.474  -8.722  -4.708  0.00  0.00    +0.092 A 
ATOM      7  C   UNL     1       6.968  -7.509  -5.189  0.00  0.00    +0.127 A 
ATOM      8  C   UNL     1       4.398  -7.544  -1.797  0.00  0.00    +0.238 A 
ATOM      9  O   UNL     1       3.977  -8.611  -1.352  0.00  0.00    -0.283 OA
ATOM     10  C   UNL     1       6.569  -6.309  -4.578  0.00  0.00    +0.092 A 
ATOM     11  C   UNL     1       4.115  -6.236  -1.159  0.00  0.00    +0.208 A 
ENDROOT
BRANCH   1  15
ATOM     12  C   UNL     1       3.545  -1.140  -0.391  0.00  0.00    +0.161 A 
ATOM     13  C   UNL     1       4.751  -1.387  -1.043  0.00  0.00    +0.050 A 
ATOM     14  C   UNL     1       5.058  -2.678  -1.497  0.00  0.00    +0.015 A 
ATOM     15  C   UNL     1       4.159  -3.745  -1.330  0.00  0.00    +0.025 A 
ATOM     16  C   UNL     1       2.912  -3.459  -0.747  0.00  0.00    +0.060 A 
ATOM     17  C   UNL     1       2.629  -2.184  -0.267  0.00  0.00    +0.159 A 
BRANCH  12  19
ATOM     18  C   UNL     1       4.212   0.934   0.512  0.00  0.00    +0.277 C 
ATOM     19  O   UNL     1       3.149   0.065   0.126  0.00  0.00    -0.491 OA
ENDBRANCH  12  19
BRANCH  17  20
ATOM     20  O   UNL     1       1.430  -1.985   0.361  0.00  0.00    -0.503 OA
ATOM     21  H   UNL     1       1.424  -1.043   0.619  0.00  0.00    +0.292 HD
ENDBRANCH  17  20
ENDBRANCH   1  15
BRANCH   5  22
ATOM     22  O   UNL     1       5.180  -9.965  -3.196  0.00  0.00    -0.506 OA
ATOM     23  H   UNL     1       4.588  -9.830  -2.420  0.00  0.00    +0.292 HD
ENDBRANCH   5  22
BRANCH   7  24
ATOM     24  O   UNL     1       7.837  -7.377  -6.240  0.00  0.00    -0.495 OA
ATOM     25  C   UNL     1       8.240  -8.586  -6.884  0.00  0.00    +0.277 C 
ENDBRANCH   7  24
BRANCH  11  26
ATOM     26  O   UNL     1       3.466  -6.280   0.060  0.00  0.00    -0.501 OA
ATOM     27  H   UNL     1       3.634  -5.454   0.542  0.00  0.00    +0.292 HD
ENDBRANCH  11  26
TORSDOF 6
