REMARK  Name = 
REMARK  11 active torsions:
REMARK  status: ('A' for Active; 'I' for Inactive)
REMARK    1  A    between atoms: C_3  and  O_35
REMARK    2  A    between atoms: C_4  and  O_34
REMARK    3  A    between atoms: C_6  and  C_7
REMARK    4  A    between atoms: C_8  and  O_20
REMARK    5  A    between atoms: C_12  and  O_19
REMARK    6  A    between atoms: C_14  and  O_18
REMARK    7  A    between atoms: O_20  and  C_21
REMARK    8  A    between atoms: C_23  and  O_33
REMARK    9  A    between atoms: C_25  and  O_32
REMARK   10  A    between atoms: C_27  and  C_30
REMARK   11  A    between atoms: C_30  and  O_31
REMARK                            x       y       z     vdW  Elec       q    Type
REMARK                         _______ _______ _______ _____ _____    ______ ____
ROOT
ATOM      1  C   UNL     1      -1.313  -2.494  -0.238  0.00  0.00    +0.181 A 
ATOM      2  O   UNL     1      -0.610  -3.670   0.086  0.00  0.00    -0.451 OA
ATOM      3  C   UNL     1      -1.171  -4.898  -0.131  0.00  0.00    +0.147 A 
ATOM      4  C   UNL     1      -2.497  -5.049  -0.473  0.00  0.00    +0.109 A 
ATOM      5  C   UNL     1      -3.058  -6.324  -0.650  0.00  0.00    +0.135 A 
ATOM      6  C   UNL     1      -2.281  -7.460  -0.481  0.00  0.00    +0.091 A 
ATOM      7  C   UNL     1      -0.944  -7.305  -0.134  0.00  0.00    +0.124 A 
ATOM      8  C   UNL     1      -3.298  -3.853  -0.592  0.00  0.00    +0.238 A 
ATOM      9  O   UNL     1      -4.518  -4.033  -0.649  0.00  0.00    -0.283 OA
ATOM     10  C   UNL     1      -0.382  -6.037   0.040  0.00  0.00    +0.092 A 
ATOM     11  C   UNL     1      -2.620  -2.505  -0.622  0.00  0.00    +0.214 A 
ENDROOT
BRANCH   1  13
ATOM     12  C   UNL     1      -0.829   0.031  -0.376  0.00  0.00    +0.015 A 
ATOM     13  C   UNL     1      -0.404  -1.289  -0.140  0.00  0.00    +0.025 A 
ATOM     14  C   UNL     1       0.968  -1.455   0.175  0.00  0.00    +0.060 A 
ATOM     15  C   UNL     1       1.855  -0.379   0.136  0.00  0.00    +0.159 A 
ATOM     16  C   UNL     1       1.420   0.884  -0.231  0.00  0.00    +0.158 A 
ATOM     17  C   UNL     1       0.073   1.106  -0.449  0.00  0.00    +0.050 A 
BRANCH  15  18
ATOM     18  O   UNL     1       3.173  -0.576   0.440  0.00  0.00    -0.503 OA
ATOM     19  H   UNL     1       3.575   0.315   0.389  0.00  0.00    +0.292 HD
ENDBRANCH  15  18
BRANCH  16  20
ATOM     20  O   UNL     1       2.349   1.874  -0.381  0.00  0.00    -0.503 OA
ATOM     21  H   UNL     1       1.953   2.564  -0.943  0.00  0.00    +0.292 HD
ENDBRANCH  16  20
ENDBRANCH   1  13
BRANCH   5  22
ATOM     22  O   UNL     1      -4.373  -6.531  -0.982  0.00  0.00    -0.506 OA
ATOM     23  H   UNL     1      -4.828  -5.659  -0.945  0.00  0.00    +0.292 HD
ENDBRANCH   5  22
BRANCH   7  24
ATOM     24  O   UNL     1      -0.145  -8.395   0.054  0.00  0.00    -0.507 OA
ATOM     25  H   UNL     1      -0.678  -9.200  -0.073  0.00  0.00    +0.292 HD
ENDBRANCH   7  24
BRANCH  11  26
ATOM     26  O   UNL     1      -3.332  -1.353  -1.013  0.00  0.00    -0.453 OA
BRANCH  26  27
ATOM     27  C   UNL     1      -4.522  -1.615  -1.759  0.00  0.00    +0.340 C 
ATOM     28  O   UNL     1      -4.246  -2.244  -3.021  0.00  0.00    -0.331 OA
ATOM     29  C   UNL     1      -5.495  -2.246  -3.748  0.00  0.00    +0.179 C 
ATOM     30  C   UNL     1      -6.391  -1.191  -3.072  0.00  0.00    +0.180 C 
ATOM     31  C   UNL     1      -5.435  -0.443  -2.123  0.00  0.00    +0.214 C 
BRANCH  30  32
ATOM     32  O   UNL     1      -7.109  -0.337  -3.947  0.00  0.00    -0.386 OA
ATOM     33  H   UNL     1      -6.460   0.036  -4.579  0.00  0.00    +0.210 HD
ENDBRANCH  30  32
BRANCH  31  34
ATOM     34  O   UNL     1      -6.120   0.113  -0.997  0.00  0.00    -0.383 OA
ATOM     35  H   UNL     1      -6.807  -0.521  -0.704  0.00  0.00    +0.210 HD
ENDBRANCH  31  34
BRANCH  29  36
ATOM     36  C   UNL     1      -5.245  -2.083  -5.245  0.00  0.00    +0.190 C 
BRANCH  36  37
ATOM     37  O   UNL     1      -4.862  -0.742  -5.553  0.00  0.00    -0.392 OA
ATOM     38  H   UNL     1      -4.241  -0.800  -6.303  0.00  0.00    +0.210 HD
ENDBRANCH  36  37
ENDBRANCH  29  36
ENDBRANCH  26  27
ENDBRANCH  11  26
TORSDOF 11
