REMARK  Name = 
REMARK  10 active torsions:
REMARK  status: ('A' for Active; 'I' for Inactive)
REMARK    1  A    between atoms: C_1  and  O_2
REMARK    2  A    between atoms: O_2  and  C_3
REMARK    3  A    between atoms: C_4  and  O_25
REMARK    4  A    between atoms: C_6  and  C_9
REMARK    5  A    between atoms: C_10  and  O_23
REMARK    6  A    between atoms: C_14  and  O_22
REMARK    7  A    between atoms: C_16  and  O_20
REMARK    8  A    between atoms: O_20  and  C_21
REMARK    9  A    between atoms: O_23  and  C_24
REMARK   10  A    between atoms: O_25  and  C_26
REMARK                            x       y       z     vdW  Elec       q    Type
REMARK                         _______ _______ _______ _____ _____    ______ ____
ROOT
ATOM      1  C   UNL     1       5.489   4.675   0.368  0.00  0.00    +0.181 A 
ATOM      2  O   UNL     1       4.817   5.904   0.432  0.00  0.00    -0.451 OA
ATOM      3  C   UNL     1       5.539   7.073   0.388  0.00  0.00    +0.147 A 
ATOM      4  C   UNL     1       6.922   7.082   0.309  0.00  0.00    +0.109 A 
ATOM      5  C   UNL     1       7.630   8.291   0.291  0.00  0.00    +0.135 A 
ATOM      6  C   UNL     1       6.955   9.502   0.331  0.00  0.00    +0.092 A 
ATOM      7  C   UNL     1       5.562   9.515   0.395  0.00  0.00    +0.127 A 
ATOM      8  C   UNL     1       7.626   5.809   0.243  0.00  0.00    +0.238 A 
ATOM      9  O   UNL     1       8.859   5.813   0.196  0.00  0.00    -0.283 OA
ATOM     10  C   UNL     1       4.859   8.298   0.427  0.00  0.00    +0.092 A 
ATOM     11  C   UNL     1       6.837   4.549   0.251  0.00  0.00    +0.211 A 
ENDROOT
BRANCH   1  15
ATOM     12  C   UNL     1       2.953   1.219   0.759  0.00  0.00    +0.162 A 
ATOM     13  C   UNL     1       3.523   1.839   1.880  0.00  0.00    +0.050 A 
ATOM     14  C   UNL     1       4.306   2.989   1.753  0.00  0.00    +0.015 A 
ATOM     15  C   UNL     1       4.551   3.536   0.491  0.00  0.00    +0.025 A 
ATOM     16  C   UNL     1       3.911   2.968  -0.628  0.00  0.00    +0.061 A 
ATOM     17  C   UNL     1       3.107   1.814  -0.505  0.00  0.00    +0.162 A 
BRANCH  12  19
ATOM     18  C   UNL     1       1.857  -0.809   0.059  0.00  0.00    +0.277 C 
ATOM     19  O   UNL     1       2.280   0.071   1.092  0.00  0.00    -0.491 OA
ENDBRANCH  12  19
BRANCH  17  20
ATOM     20  O   UNL     1       2.473   1.223  -1.564  0.00  0.00    -0.491 OA
ATOM     21  C   UNL     1       2.399   1.927  -2.795  0.00  0.00    +0.277 C 
ENDBRANCH  17  20
ENDBRANCH   1  15
BRANCH   5  22
ATOM     22  O   UNL     1       8.998   8.362   0.232  0.00  0.00    -0.506 OA
ATOM     23  H   UNL     1       9.349   7.441   0.217  0.00  0.00    +0.292 HD
ENDBRANCH   5  22
BRANCH   7  24
ATOM     24  O   UNL     1       4.793  10.648   0.431  0.00  0.00    -0.495 OA
ATOM     25  C   UNL     1       5.493  11.891   0.384  0.00  0.00    +0.277 C 
ENDBRANCH   7  24
BRANCH  11  26
ATOM     26  O   UNL     1       7.649   3.459   0.146  0.00  0.00    -0.488 OA
ATOM     27  C   UNL     1       7.263   2.105   0.160  0.00  0.00    +0.277 C 
ENDBRANCH  11  26
TORSDOF 6
