REMARK  Name = 
REMARK  11 active torsions:
REMARK  status: ('A' for Active; 'I' for Inactive)
REMARK    1  A    between atoms: C_1  and  C_2
REMARK    2  A    between atoms: C_3  and  O_32
REMARK    3  A    between atoms: C_4  and  O_31
REMARK    4  A    between atoms: C_5  and  O_30
REMARK    5  A    between atoms: C_6  and  O_8
REMARK    6  A    between atoms: O_8  and  C_9
REMARK    7  A    between atoms: C_10  and  C_22
REMARK    8  A    between atoms: C_14  and  O_21
REMARK    9  A    between atoms: C_16  and  O_20
REMARK   10  A    between atoms: C_24  and  O_29
REMARK   11  A    between atoms: C_25  and  O_28
REMARK                            x       y       z     vdW  Elec       q    Type
REMARK                         _______ _______ _______ _____ _____    ______ ____
ROOT
ATOM      1  C   UNL     1       2.696   2.809  -3.230  0.00  0.00    +0.214 A 
ATOM      2  C   UNL     1       1.283   3.286  -3.048  0.00  0.00    +0.238 A 
ATOM      3  O   UNL     1       0.316   2.569  -3.272  0.00  0.00    -0.283 OA
ATOM      4  C   UNL     1       1.074   4.701  -2.735  0.00  0.00    +0.109 A 
ATOM      5  C   UNL     1       2.130   5.568  -2.984  0.00  0.00    +0.147 A 
ATOM      6  C   UNL     1       1.932   6.949  -2.894  0.00  0.00    +0.092 A 
ATOM      7  C   UNL     1       0.674   7.437  -2.543  0.00  0.00    +0.124 A 
ATOM      8  C   UNL     1      -0.376   6.578  -2.244  0.00  0.00    +0.091 A 
ATOM      9  O   UNL     1       3.375   5.133  -3.361  0.00  0.00    -0.451 OA
ATOM     10  C   UNL     1      -0.173   5.205  -2.332  0.00  0.00    +0.135 A 
ATOM     11  C   UNL     1       3.642   3.762  -3.417  0.00  0.00    +0.181 A 
ENDROOT
BRANCH  11  12
ATOM     12  C   UNL     1       5.071   3.475  -3.776  0.00  0.00    +0.025 A 
ATOM     13  C   UNL     1       5.782   4.405  -4.571  0.00  0.00    +0.015 A 
ATOM     14  C   UNL     1       7.117   4.190  -4.943  0.00  0.00    +0.050 A 
ATOM     15  C   UNL     1       7.758   3.039  -4.524  0.00  0.00    +0.158 A 
ATOM     16  C   UNL     1       7.088   2.106  -3.745  0.00  0.00    +0.159 A 
ATOM     17  C   UNL     1       5.763   2.321  -3.358  0.00  0.00    +0.060 A 
BRANCH  15  18
ATOM     18  O   UNL     1       9.057   2.826  -4.886  0.00  0.00    -0.503 OA
ATOM     19  H   UNL     1       9.286   1.971  -4.472  0.00  0.00    +0.292 HD
ENDBRANCH  15  18
BRANCH  16  20
ATOM     20  O   UNL     1       7.775   0.979  -3.379  0.00  0.00    -0.503 OA
ATOM     21  H   UNL     1       7.158   0.380  -2.923  0.00  0.00    +0.292 HD
ENDBRANCH  16  20
ENDBRANCH  11  12
BRANCH   7  22
ATOM     22  O   UNL     1       0.413   8.774  -2.478  0.00  0.00    -0.507 OA
ATOM     23  H   UNL     1       1.205   9.270  -2.742  0.00  0.00    +0.292 HD
ENDBRANCH   7  22
BRANCH  10  24
ATOM     24  O   UNL     1      -1.202   4.365  -2.014  0.00  0.00    -0.506 OA
ATOM     25  H   UNL     1      -2.023   4.869  -1.896  0.00  0.00    +0.292 HD
ENDBRANCH  10  24
BRANCH   1  26
ATOM     26  O   UNL     1       2.997   1.452  -3.323  0.00  0.00    -0.453 OA
BRANCH  26  30
ATOM     27  C   UNL     1      -0.863   0.091  -1.969  0.00  0.00    +0.041 C 
ATOM     28  C   UNL     1       0.467  -0.308  -1.318  0.00  0.00    +0.150 C 
ATOM     29  O   UNL     1       1.548   0.577  -1.661  0.00  0.00    -0.334 OA
ATOM     30  C   UNL     1       1.962   0.499  -3.034  0.00  0.00    +0.339 C 
ATOM     31  C   UNL     1       2.521  -0.915  -3.285  0.00  0.00    +0.214 C 
ATOM     32  C   UNL     1       1.403  -1.931  -3.018  0.00  0.00    +0.180 C 
ATOM     33  C   UNL     1       0.856  -1.773  -1.586  0.00  0.00    +0.174 C 
BRANCH  31  34
ATOM     34  O   UNL     1       3.633  -1.210  -2.408  0.00  0.00    -0.383 OA
ATOM     35  H   UNL     1       3.529  -0.623  -1.632  0.00  0.00    +0.210 HD
ENDBRANCH  31  34
BRANCH  32  36
ATOM     36  O   UNL     1       1.890  -3.263  -3.208  0.00  0.00    -0.386 OA
ATOM     37  H   UNL     1       2.773  -3.288  -2.787  0.00  0.00    +0.210 HD
ENDBRANCH  32  36
BRANCH  33  38
ATOM     38  O   UNL     1      -0.247  -2.643  -1.324  0.00  0.00    -0.387 OA
ATOM     39  H   UNL     1      -0.547  -3.021  -2.170  0.00  0.00    +0.210 HD
ENDBRANCH  33  38
ENDBRANCH  26  30
ENDBRANCH   1  26
TORSDOF 10
