REMARK  Name = 
REMARK  14 active torsions:
REMARK  status: ('A' for Active; 'I' for Inactive)
REMARK    1  A    between atoms: C_1  and  C_2
REMARK    2  A    between atoms: C_2  and  O_4
REMARK    3  A    between atoms: O_4  and  C_5
REMARK    4  A    between atoms: C_6  and  O_31
REMARK    5  A    between atoms: C_8  and  C_11
REMARK    6  A    between atoms: C_12  and  O_27
REMARK    7  A    between atoms: C_16  and  O_26
REMARK    8  A    between atoms: C_18  and  O_22
REMARK    9  A    between atoms: O_22  and  C_23
REMARK   10  A    between atoms: C_23  and  C_25
REMARK   11  A    between atoms: O_27  and  C_28
REMARK   12  A    between atoms: C_28  and  C_30
REMARK   13  A    between atoms: O_31  and  C_32
REMARK   14  A    between atoms: C_32  and  C_34
REMARK                            x       y       z     vdW  Elec       q    Type
REMARK                         _______ _______ _______ _____ _____    ______ ____
ROOT
ATOM      1  C   UNL     1       8.906  -0.880   0.155  0.00  0.00    +0.182 A 
ATOM      2  O   UNL     1       9.674   0.273   0.086  0.00  0.00    -0.451 OA
ATOM      3  C   UNL     1      11.014   0.152  -0.168  0.00  0.00    +0.147 A 
ATOM      4  C   UNL     1      11.650  -1.085  -0.251  0.00  0.00    +0.109 A 
ATOM      5  C   UNL     1      13.025  -1.142  -0.503  0.00  0.00    +0.135 A 
ATOM      6  C   UNL     1      13.763   0.027  -0.680  0.00  0.00    +0.092 A 
ATOM      7  C   UNL     1      13.116   1.260  -0.626  0.00  0.00    +0.139 A 
ATOM      8  C   UNL     1      10.847  -2.306  -0.087  0.00  0.00    +0.239 A 
ATOM      9  O   UNL     1      11.379  -3.412  -0.133  0.00  0.00    -0.283 OA
ATOM     10  C   UNL     1      11.745   1.328  -0.352  0.00  0.00    +0.093 A 
ATOM     11  C   UNL     1       9.388  -2.136   0.098  0.00  0.00    +0.221 A 
ENDROOT
BRANCH   1  15
ATOM     12  C   UNL     1       4.744  -0.101   0.624  0.00  0.00    +0.174 A 
ATOM     13  C   UNL     1       5.589  -0.147   1.741  0.00  0.00    +0.051 A 
ATOM     14  C   UNL     1       6.946  -0.399   1.579  0.00  0.00    +0.015 A 
ATOM     15  C   UNL     1       7.472  -0.609   0.303  0.00  0.00    +0.025 A 
ATOM     16  C   UNL     1       6.623  -0.604  -0.812  0.00  0.00    +0.061 A 
ATOM     17  C   UNL     1       5.248  -0.409  -0.645  0.00  0.00    +0.174 A 
BRANCH  12  18
ATOM     18  O   UNL     1       3.377   0.149   0.823  0.00  0.00    -0.422 OA
BRANCH  18  20
ATOM     19  C   UNL     1       1.759   1.117   2.261  0.00  0.00    +0.136 C 
ATOM     20  C   UNL     1       3.113   1.256   1.633  0.00  0.00    +0.309 C 
ATOM     21  O   UNL     1       3.858   2.207   1.836  0.00  0.00    -0.251 OA
ENDBRANCH  18  20
ENDBRANCH  12  18
BRANCH  17  22
ATOM     22  O   UNL     1       4.352  -0.511  -1.733  0.00  0.00    -0.422 OA
BRANCH  22  23
ATOM     23  C   UNL     1       4.534  -1.556  -2.649  0.00  0.00    +0.309 C 
ATOM     24  C   UNL     1       3.456  -1.531  -3.690  0.00  0.00    +0.136 C 
ATOM     25  O   UNL     1       5.440  -2.380  -2.649  0.00  0.00    -0.251 OA
ENDBRANCH  22  23
ENDBRANCH  17  22
ENDBRANCH   1  15
BRANCH   5  26
ATOM     26  O   UNL     1      13.718  -2.321  -0.594  0.00  0.00    -0.506 OA
ATOM     27  H   UNL     1      13.084  -3.062  -0.467  0.00  0.00    +0.292 HD
ENDBRANCH   5  26
BRANCH   7  28
ATOM     28  O   UNL     1      13.797   2.492  -0.768  0.00  0.00    -0.426 OA
BRANCH  28  29
ATOM     29  C   UNL     1      14.915   2.624  -1.595  0.00  0.00    +0.309 C 
ATOM     30  C   UNL     1      15.469   4.016  -1.497  0.00  0.00    +0.136 C 
ATOM     31  O   UNL     1      15.398   1.761  -2.316  0.00  0.00    -0.251 OA
ENDBRANCH  28  29
ENDBRANCH   7  28
BRANCH  11  32
ATOM     32  O   UNL     1       8.594  -3.296   0.056  0.00  0.00    -0.418 OA
BRANCH  32  33
ATOM     33  C   UNL     1       8.109  -3.721   1.263  0.00  0.00    +0.309 C 
ATOM     34  C   UNL     1       7.342  -4.998   1.066  0.00  0.00    +0.136 C 
ATOM     35  O   UNL     1       8.279  -3.184   2.351  0.00  0.00    -0.251 OA
ENDBRANCH  32  33
ENDBRANCH  11  32
TORSDOF 10
