REMARK  Name = 
REMARK  11 active torsions:
REMARK  status: ('A' for Active; 'I' for Inactive)
REMARK    1  A    between atoms: C_1  and  C_2
REMARK    2  A    between atoms: C_4  and  O_37
REMARK    3  A    between atoms: C_6  and  O_36
REMARK    4  A    between atoms: C_8  and  O_35
REMARK    5  A    between atoms: C_10  and  O_13
REMARK    6  A    between atoms: O_13  and  C_14
REMARK    7  A    between atoms: C_15  and  C_27
REMARK    8  A    between atoms: C_19  and  O_26
REMARK    9  A    between atoms: C_21  and  O_25
REMARK   10  A    between atoms: C_29  and  O_34
REMARK   11  A    between atoms: C_30  and  O_33
REMARK                            x       y       z     vdW  Elec       q    Type
REMARK                         _______ _______ _______ _____ _____    ______ ____
ROOT
ATOM      1  C   UNL     1       2.732   2.939  -3.354  0.00  0.00    +0.214 A 
ATOM      2  C   UNL     1       1.317   3.414  -3.202  0.00  0.00    +0.238 A 
ATOM      3  O   UNL     1       0.354   2.705  -3.473  0.00  0.00    -0.283 OA
ATOM      4  C   UNL     1       1.104   4.825  -2.875  0.00  0.00    +0.109 A 
ATOM      5  C   UNL     1       2.155   5.696  -3.115  0.00  0.00    +0.147 A 
ATOM      6  C   UNL     1       1.958   7.077  -3.013  0.00  0.00    +0.092 A 
ATOM      7  C   UNL     1       0.700   7.561  -2.656  0.00  0.00    +0.124 A 
ATOM      8  C   UNL     1      -0.348   6.694  -2.366  0.00  0.00    +0.091 A 
ATOM      9  O   UNL     1       3.403   5.263  -3.496  0.00  0.00    -0.451 OA
ATOM     10  C   UNL     1      -0.142   5.322  -2.465  0.00  0.00    +0.135 A 
ATOM     11  C   UNL     1       3.678   3.891  -3.529  0.00  0.00    +0.181 A 
ENDROOT
BRANCH  11  12
ATOM     12  C   UNL     1       5.113   3.606  -3.873  0.00  0.00    +0.025 A 
ATOM     13  C   UNL     1       5.836   4.534  -4.657  0.00  0.00    +0.015 A 
ATOM     14  C   UNL     1       7.175   4.313  -5.016  0.00  0.00    +0.050 A 
ATOM     15  C   UNL     1       7.807   3.157  -4.596  0.00  0.00    +0.158 A 
ATOM     16  C   UNL     1       7.121   2.225  -3.827  0.00  0.00    +0.159 A 
ATOM     17  C   UNL     1       5.795   2.448  -3.451  0.00  0.00    +0.060 A 
BRANCH  15  18
ATOM     18  O   UNL     1       9.109   2.936  -4.944  0.00  0.00    -0.503 OA
ATOM     19  H   UNL     1       9.333   2.082  -4.524  0.00  0.00    +0.292 HD
ENDBRANCH  15  18
BRANCH  16  20
ATOM     20  O   UNL     1       7.794   1.090  -3.460  0.00  0.00    -0.503 OA
ATOM     21  H   UNL     1       7.170   0.515  -2.983  0.00  0.00    +0.292 HD
ENDBRANCH  16  20
ENDBRANCH  11  12
BRANCH   7  22
ATOM     22  O   UNL     1       0.438   8.895  -2.579  0.00  0.00    -0.507 OA
ATOM     23  H   UNL     1       1.235   9.392  -2.833  0.00  0.00    +0.292 HD
ENDBRANCH   7  22
BRANCH  10  24
ATOM     24  O   UNL     1      -1.166   4.476  -2.141  0.00  0.00    -0.506 OA
ATOM     25  H   UNL     1      -1.987   4.979  -2.022  0.00  0.00    +0.292 HD
ENDBRANCH  10  24
BRANCH   1  26
ATOM     26  O   UNL     1       3.043   1.589  -3.437  0.00  0.00    -0.453 OA
BRANCH  26  30
ATOM     27  C   UNL     1      -0.877   0.246  -2.100  0.00  0.00    +0.041 C 
ATOM     28  C   UNL     1       0.470  -0.181  -1.501  0.00  0.00    +0.150 C 
ATOM     29  O   UNL     1       1.531   0.726  -1.811  0.00  0.00    -0.334 OA
ATOM     30  C   UNL     1       2.018   0.622  -3.155  0.00  0.00    +0.339 C 
ATOM     31  C   UNL     1       2.601  -0.786  -3.423  0.00  0.00    +0.214 C 
ATOM     32  C   UNL     1       1.510  -1.837  -3.179  0.00  0.00    +0.180 C 
ATOM     33  C   UNL     1       0.877  -1.640  -1.786  0.00  0.00    +0.174 C 
BRANCH  31  34
ATOM     34  O   UNL     1       3.737  -1.057  -2.581  0.00  0.00    -0.383 OA
ATOM     35  H   UNL     1       4.074  -1.933  -2.838  0.00  0.00    +0.210 HD
ENDBRANCH  31  34
BRANCH  32  36
ATOM     36  O   UNL     1       0.574  -1.842  -4.264  0.00  0.00    -0.386 OA
ATOM     37  H   UNL     1       0.024  -1.043  -4.244  0.00  0.00    +0.210 HD
ENDBRANCH  32  36
BRANCH  33  38
ATOM     38  O   UNL     1      -0.201  -2.551  -1.572  0.00  0.00    -0.387 OA
ATOM     39  H   UNL     1      -0.461  -2.491  -0.635  0.00  0.00    +0.210 HD
ENDBRANCH  33  38
ENDBRANCH  26  30
ENDBRANCH   1  26
TORSDOF 10
