REMARK  Name = 
REMARK  12 active torsions:
REMARK  status: ('A' for Active; 'I' for Inactive)
REMARK    1  A    between atoms: C_3  and  O_33
REMARK    2  A    between atoms: C_4  and  O_32
REMARK    3  A    between atoms: C_6  and  C_7
REMARK    4  A    between atoms: C_8  and  O_20
REMARK    5  A    between atoms: C_12  and  O_19
REMARK    6  A    between atoms: C_14  and  O_18
REMARK    7  A    between atoms: O_20  and  C_21
REMARK    8  A    between atoms: C_22  and  O_31
REMARK    9  A    between atoms: C_23  and  O_30
REMARK   10  A    between atoms: C_24  and  O_29
REMARK   11  A    between atoms: C_25  and  C_27
REMARK   12  A    between atoms: C_27  and  O_28
REMARK                            x       y       z     vdW  Elec       q    Type
REMARK                         _______ _______ _______ _____ _____    ______ ____
ROOT
ATOM      1  C   UNL     1      -1.245  -2.706   0.321  0.00  0.00    +0.181 A 
ATOM      2  O   UNL     1      -0.526  -3.869   0.489  0.00  0.00    -0.451 OA
ATOM      3  C   UNL     1      -1.134  -5.065   0.183  0.00  0.00    +0.147 A 
ATOM      4  C   UNL     1      -2.461  -5.152  -0.234  0.00  0.00    +0.109 A 
ATOM      5  C   UNL     1      -2.998  -6.412  -0.526  0.00  0.00    +0.135 A 
ATOM      6  C   UNL     1      -2.210  -7.569  -0.441  0.00  0.00    +0.091 A 
ATOM      7  C   UNL     1      -0.886  -7.461  -0.040  0.00  0.00    +0.124 A 
ATOM      8  C   UNL     1      -3.234  -3.895  -0.375  0.00  0.00    +0.238 A 
ATOM      9  O   UNL     1      -4.424  -3.912  -0.683  0.00  0.00    -0.283 OA
ATOM     10  C   UNL     1      -0.348  -6.217   0.289  0.00  0.00    +0.092 A 
ATOM     11  C   UNL     1      -2.511  -2.606  -0.130  0.00  0.00    +0.214 A 
ENDROOT
BRANCH   1  13
ATOM     12  C   UNL     1      -0.760  -0.639   1.682  0.00  0.00    +0.015 A 
ATOM     13  C   UNL     1      -0.481  -1.481   0.585  0.00  0.00    +0.025 A 
ATOM     14  C   UNL     1       0.445  -1.073  -0.382  0.00  0.00    +0.060 A 
ATOM     15  C   UNL     1       1.011   0.185  -0.282  0.00  0.00    +0.159 A 
ATOM     16  C   UNL     1       0.678   1.046   0.760  0.00  0.00    +0.158 A 
ATOM     17  C   UNL     1      -0.185   0.633   1.767  0.00  0.00    +0.050 A 
BRANCH  15  18
ATOM     18  O   UNL     1       1.889   0.586  -1.246  0.00  0.00    -0.503 OA
ATOM     19  H   UNL     1       2.175   1.476  -0.969  0.00  0.00    +0.292 HD
ENDBRANCH  15  18
BRANCH  16  20
ATOM     20  O   UNL     1       1.207   2.306   0.733  0.00  0.00    -0.503 OA
ATOM     21  H   UNL     1       0.674   2.871   1.319  0.00  0.00    +0.292 HD
ENDBRANCH  16  20
ENDBRANCH   1  13
BRANCH   5  22
ATOM     22  O   UNL     1      -4.292  -6.616  -0.918  0.00  0.00    -0.506 OA
ATOM     23  H   UNL     1      -4.759  -5.749  -0.901  0.00  0.00    +0.292 HD
ENDBRANCH   5  22
BRANCH   7  24
ATOM     24  O   UNL     1      -0.074  -8.547   0.045  0.00  0.00    -0.507 OA
ATOM     25  H   UNL     1      -0.557  -9.327  -0.259  0.00  0.00    +0.292 HD
ENDBRANCH   7  24
BRANCH  11  26
ATOM     26  O   UNL     1      -3.169  -1.382  -0.139  0.00  0.00    -0.453 OA
BRANCH  26  27
ATOM     27  C   UNL     1      -3.487  -0.764  -1.403  0.00  0.00    +0.340 C 
ATOM     28  O   UNL     1      -2.898   0.550  -1.513  0.00  0.00    -0.331 OA
ATOM     29  C   UNL     1      -3.482   1.642  -0.763  0.00  0.00    +0.179 C 
ATOM     30  C   UNL     1      -4.907   1.465  -0.162  0.00  0.00    +0.177 C 
ATOM     31  C   UNL     1      -5.469   0.040  -0.214  0.00  0.00    +0.180 C 
ATOM     32  C   UNL     1      -5.007  -0.602  -1.529  0.00  0.00    +0.214 C 
BRANCH  30  33
ATOM     33  O   UNL     1      -5.864   2.343  -0.793  0.00  0.00    -0.386 OA
ATOM     34  H   UNL     1      -6.469   1.792  -1.332  0.00  0.00    +0.210 HD
ENDBRANCH  30  33
BRANCH  31  35
ATOM     35  O   UNL     1      -6.898   0.098  -0.125  0.00  0.00    -0.386 OA
ATOM     36  H   UNL     1      -7.120   0.761   0.555  0.00  0.00    +0.210 HD
ENDBRANCH  31  35
BRANCH  32  37
ATOM     37  O   UNL     1      -5.693  -1.812  -1.840  0.00  0.00    -0.383 OA
ATOM     38  H   UNL     1      -5.221  -2.577  -1.455  0.00  0.00    +0.210 HD
ENDBRANCH  32  37
BRANCH  29  39
ATOM     39  C   UNL     1      -3.444   2.899  -1.681  0.00  0.00    +0.190 C 
BRANCH  39  40
ATOM     40  O   UNL     1      -2.131   3.155  -2.177  0.00  0.00    -0.392 OA
ATOM     41  H   UNL     1      -1.650   2.307  -2.151  0.00  0.00    +0.210 HD
ENDBRANCH  39  40
ENDBRANCH  29  39
ENDBRANCH  26  27
ENDBRANCH  11  26
TORSDOF 12
