REMARK  Name = 
REMARK  8 active torsions:
REMARK  status: ('A' for Active; 'I' for Inactive)
REMARK    1  A    between atoms: C_1  and  O_2
REMARK    2  A    between atoms: O_2  and  C_3
REMARK    3  A    between atoms: C_4  and  O_24
REMARK    4  A    between atoms: C_6  and  C_9
REMARK    5  A    between atoms: C_10  and  O_22
REMARK    6  A    between atoms: C_14  and  O_21
REMARK    7  A    between atoms: C_16  and  O_20
REMARK    8  A    between atoms: O_22  and  C_23
REMARK                            x       y       z     vdW  Elec       q    Type
REMARK                         _______ _______ _______ _____ _____    ______ ____
ROOT
ATOM      1  C   UNL     1       5.255   3.104   3.689  0.00  0.00    +0.181 A 
ATOM      2  O   UNL     1       4.958   4.471   3.582  0.00  0.00    -0.451 OA
ATOM      3  C   UNL     1       5.632   5.383   4.353  0.00  0.00    +0.147 A 
ATOM      4  C   UNL     1       6.609   5.008   5.259  0.00  0.00    +0.109 A 
ATOM      5  C   UNL     1       7.265   5.967   6.042  0.00  0.00    +0.135 A 
ATOM      6  C   UNL     1       6.944   7.315   5.919  0.00  0.00    +0.091 A 
ATOM      7  C   UNL     1       5.969   7.691   5.003  0.00  0.00    +0.124 A 
ATOM      8  C   UNL     1       6.936   3.592   5.369  0.00  0.00    +0.238 A 
ATOM      9  O   UNL     1       7.818   3.251   6.164  0.00  0.00    -0.283 OA
ATOM     10  C   UNL     1       5.313   6.738   4.217  0.00  0.00    +0.092 A 
ATOM     11  C   UNL     1       6.204   2.604   4.520  0.00  0.00    +0.211 A 
ENDROOT
BRANCH   1  15
ATOM     12  C   UNL     1       2.701   1.361   0.702  0.00  0.00    +0.161 A 
ATOM     13  C   UNL     1       4.019   1.676   0.400  0.00  0.00    +0.050 A 
ATOM     14  C   UNL     1       4.871   2.182   1.400  0.00  0.00    +0.015 A 
ATOM     15  C   UNL     1       4.420   2.355   2.720  0.00  0.00    +0.025 A 
ATOM     16  C   UNL     1       3.104   1.988   3.028  0.00  0.00    +0.060 A 
ATOM     17  C   UNL     1       2.261   1.501   2.024  0.00  0.00    +0.159 A 
BRANCH  12  19
ATOM     18  C   UNL     1       2.021   1.237  -1.568  0.00  0.00    +0.277 C 
ATOM     19  O   UNL     1       1.754   0.932  -0.200  0.00  0.00    -0.491 OA
ENDBRANCH  12  19
BRANCH  17  20
ATOM     20  O   UNL     1       0.964   1.210   2.351  0.00  0.00    -0.503 OA
ATOM     21  H   UNL     1       0.536   0.950   1.511  0.00  0.00    +0.292 HD
ENDBRANCH  17  20
ENDBRANCH   1  15
BRANCH   5  22
ATOM     22  O   UNL     1       8.236   5.649   6.954  0.00  0.00    -0.506 OA
ATOM     23  H   UNL     1       8.366   4.671   6.933  0.00  0.00    +0.292 HD
ENDBRANCH   5  22
BRANCH   7  24
ATOM     24  O   UNL     1       5.631   9.004   4.851  0.00  0.00    -0.507 OA
ATOM     25  H   UNL     1       6.158   9.539   5.469  0.00  0.00    +0.292 HD
ENDBRANCH   7  24
BRANCH  11  26
ATOM     26  O   UNL     1       6.659   1.339   4.745  0.00  0.00    -0.488 OA
ATOM     27  C   UNL     1       6.120   0.148   4.229  0.00  0.00    +0.277 C 
ENDBRANCH  11  26
TORSDOF 6
