REMARK  Name = 
REMARK  12 active torsions:
REMARK  status: ('A' for Active; 'I' for Inactive)
REMARK    1  A    between atoms: C_3  and  O_33
REMARK    2  A    between atoms: C_4  and  O_32
REMARK    3  A    between atoms: C_6  and  C_7
REMARK    4  A    between atoms: C_8  and  O_31
REMARK    5  A    between atoms: C_12  and  O_30
REMARK    6  A    between atoms: C_14  and  O_18
REMARK    7  A    between atoms: O_18  and  C_19
REMARK    8  A    between atoms: C_20  and  O_29
REMARK    9  A    between atoms: C_21  and  O_28
REMARK   10  A    between atoms: C_22  and  O_27
REMARK   11  A    between atoms: C_23  and  C_25
REMARK   12  A    between atoms: C_25  and  O_26
REMARK                            x       y       z     vdW  Elec       q    Type
REMARK                         _______ _______ _______ _____ _____    ______ ____
ROOT
ATOM      1  C   UNL     1      -1.400  -2.562  -0.194  0.00  0.00    +0.181 A 
ATOM      2  O   UNL     1      -0.663  -3.743   0.022  0.00  0.00    -0.451 OA
ATOM      3  C   UNL     1      -1.287  -4.965  -0.157  0.00  0.00    +0.147 A 
ATOM      4  C   UNL     1      -2.642  -5.052  -0.460  0.00  0.00    +0.109 A 
ATOM      5  C   UNL     1      -3.261  -6.290  -0.613  0.00  0.00    +0.135 A 
ATOM      6  C   UNL     1      -2.532  -7.450  -0.459  0.00  0.00    +0.092 A 
ATOM      7  C   UNL     1      -1.171  -7.411  -0.127  0.00  0.00    +0.131 A 
ATOM      8  C   UNL     1      -3.420  -3.832  -0.637  0.00  0.00    +0.238 A 
ATOM      9  O   UNL     1      -4.618  -3.906  -0.864  0.00  0.00    -0.283 OA
ATOM     10  C   UNL     1      -0.542  -6.154  -0.002  0.00  0.00    +0.093 A 
ATOM     11  C   UNL     1      -2.699  -2.554  -0.566  0.00  0.00    +0.208 A 
ENDROOT
BRANCH   1  13
ATOM     12  C   UNL     1      -1.254  -0.104   0.435  0.00  0.00    +0.015 A 
ATOM     13  C   UNL     1      -0.630  -1.292  -0.022  0.00  0.00    +0.025 A 
ATOM     14  C   UNL     1       0.732  -1.223  -0.341  0.00  0.00    +0.060 A 
ATOM     15  C   UNL     1       1.397   0.002  -0.300  0.00  0.00    +0.159 A 
ATOM     16  C   UNL     1       0.734   1.175   0.050  0.00  0.00    +0.158 A 
ATOM     17  C   UNL     1      -0.593   1.131   0.437  0.00  0.00    +0.050 A 
BRANCH  15  18
ATOM     18  O   UNL     1       2.720   0.055  -0.640  0.00  0.00    -0.503 OA
ATOM     19  H   UNL     1       2.965   0.997  -0.537  0.00  0.00    +0.292 HD
ENDBRANCH  15  18
BRANCH  16  20
ATOM     20  O   UNL     1       1.432   2.349  -0.006  0.00  0.00    -0.503 OA
ATOM     21  H   UNL     1       0.812   3.084   0.150  0.00  0.00    +0.292 HD
ENDBRANCH  16  20
ENDBRANCH   1  13
BRANCH   5  22
ATOM     22  O   UNL     1      -4.592  -6.447  -0.899  0.00  0.00    -0.506 OA
ATOM     23  H   UNL     1      -5.001  -5.554  -0.962  0.00  0.00    +0.292 HD
ENDBRANCH   5  22
BRANCH  11  24
ATOM     24  O   UNL     1      -3.438  -1.436  -0.911  0.00  0.00    -0.501 OA
ATOM     25  H   UNL     1      -2.844  -0.797  -1.339  0.00  0.00    +0.292 HD
ENDBRANCH  11  24
BRANCH   7  26
ATOM     26  O   UNL     1      -0.418  -8.554   0.123  0.00  0.00    -0.461 OA
BRANCH  26  27
ATOM     27  C   UNL     1      -1.227  -9.727   0.382  0.00  0.00    +0.339 C 
ATOM     28  O   UNL     1      -2.052  -9.498   1.538  0.00  0.00    -0.331 OA
ATOM     29  C   UNL     1      -1.273  -9.548   2.748  0.00  0.00    +0.179 C 
ATOM     30  C   UNL     1      -0.964 -11.027   2.976  0.00  0.00    +0.177 C 
ATOM     31  C   UNL     1       0.011 -11.462   1.880  0.00  0.00    +0.180 C 
ATOM     32  C   UNL     1      -0.492 -11.094   0.475  0.00  0.00    +0.214 C 
BRANCH  30  33
ATOM     33  O   UNL     1      -2.136 -11.855   2.839  0.00  0.00    -0.386 OA
ATOM     34  H   UNL     1      -2.892 -11.252   2.687  0.00  0.00    +0.210 HD
ENDBRANCH  30  33
BRANCH  31  35
ATOM     35  O   UNL     1       0.173 -12.893   1.944  0.00  0.00    -0.386 OA
ATOM     36  H   UNL     1      -0.710 -13.237   2.206  0.00  0.00    +0.210 HD
ENDBRANCH  31  35
BRANCH  32  37
ATOM     37  O   UNL     1       0.559 -11.209  -0.489  0.00  0.00    -0.383 OA
ATOM     38  H   UNL     1       1.138 -11.932  -0.180  0.00  0.00    +0.210 HD
ENDBRANCH  32  37
BRANCH  29  39
ATOM     39  C   UNL     1      -2.084  -8.903   3.869  0.00  0.00    +0.190 C 
BRANCH  39  40
ATOM     40  O   UNL     1      -3.395  -9.453   3.923  0.00  0.00    -0.392 OA
ATOM     41  H   UNL     1      -3.821  -9.192   3.084  0.00  0.00    +0.210 HD
ENDBRANCH  39  40
ENDBRANCH  29  39
ENDBRANCH  26  27
ENDBRANCH   7  26
TORSDOF 12
