REMARK  Name = 
REMARK  9 active torsions:
REMARK  status: ('A' for Active; 'I' for Inactive)
REMARK    1  A    between atoms: C_1  and  O_2
REMARK    2  A    between atoms: O_2  and  C_3
REMARK    3  A    between atoms: C_4  and  O_24
REMARK    4  A    between atoms: C_6  and  C_9
REMARK    5  A    between atoms: C_10  and  O_22
REMARK    6  A    between atoms: C_14  and  O_21
REMARK    7  A    between atoms: C_16  and  O_20
REMARK    8  A    between atoms: O_22  and  C_23
REMARK    9  A    between atoms: O_24  and  C_25
REMARK                            x       y       z     vdW  Elec       q    Type
REMARK                         _______ _______ _______ _____ _____    ______ ____
ROOT
ATOM      1  C   UNL     1       5.372   2.256   4.247  0.00  0.00    +0.181 A 
ATOM      2  O   UNL     1       5.228   3.652   4.381  0.00  0.00    -0.451 OA
ATOM      3  C   UNL     1       5.957   4.345   5.308  0.00  0.00    +0.147 A 
ATOM      4  C   UNL     1       6.848   3.731   6.167  0.00  0.00    +0.109 A 
ATOM      5  C   UNL     1       7.565   4.478   7.115  0.00  0.00    +0.135 A 
ATOM      6  C   UNL     1       7.391   5.854   7.206  0.00  0.00    +0.091 A 
ATOM      7  C   UNL     1       6.498   6.472   6.338  0.00  0.00    +0.124 A 
ATOM      8  C   UNL     1       7.020   2.294   6.050  0.00  0.00    +0.238 A 
ATOM      9  O   UNL     1       7.818   1.743   6.811  0.00  0.00    -0.283 OA
ATOM     10  C   UNL     1       5.782   5.736   5.392  0.00  0.00    +0.092 A 
ATOM     11  C   UNL     1       6.230   1.533   5.028  0.00  0.00    +0.211 A 
ENDROOT
BRANCH   1  15
ATOM     12  C   UNL     1       2.837   0.898   0.962  0.00  0.00    +0.162 A 
ATOM     13  C   UNL     1       4.060   0.285   1.241  0.00  0.00    +0.050 A 
ATOM     14  C   UNL     1       4.896   0.757   2.260  0.00  0.00    +0.015 A 
ATOM     15  C   UNL     1       4.493   1.772   3.125  0.00  0.00    +0.025 A 
ATOM     16  C   UNL     1       3.266   2.415   2.809  0.00  0.00    +0.061 A 
ATOM     17  C   UNL     1       2.455   2.014   1.719  0.00  0.00    +0.162 A 
BRANCH  12  19
ATOM     18  C   UNL     1       0.852   0.689  -0.385  0.00  0.00    +0.277 C 
ATOM     19  O   UNL     1       2.193   0.317  -0.100  0.00  0.00    -0.491 OA
ENDBRANCH  12  19
BRANCH  17  20
ATOM     20  O   UNL     1       1.312   2.657   1.332  0.00  0.00    -0.491 OA
ATOM     21  C   UNL     1       0.973   3.913   1.895  0.00  0.00    +0.277 C 
ENDBRANCH  17  20
ENDBRANCH   1  15
BRANCH   5  22
ATOM     22  O   UNL     1       8.457   3.917   7.990  0.00  0.00    -0.506 OA
ATOM     23  H   UNL     1       8.486   2.943   7.813  0.00  0.00    +0.292 HD
ENDBRANCH   5  22
BRANCH   7  24
ATOM     24  O   UNL     1       6.302   7.823   6.384  0.00  0.00    -0.507 OA
ATOM     25  H   UNL     1       6.875   8.194   7.079  0.00  0.00    +0.292 HD
ENDBRANCH   7  24
BRANCH  11  26
ATOM     26  O   UNL     1       6.563   0.216   5.106  0.00  0.00    -0.488 OA
ATOM     27  C   UNL     1       5.937  -0.941   4.618  0.00  0.00    +0.277 C 
ENDBRANCH  11  26
TORSDOF 6
