REMARK  Name = 
REMARK  16 active torsions:
REMARK  status: ('A' for Active; 'I' for Inactive)
REMARK    1  A    between atoms: C_2  and  O_51
REMARK    2  A    between atoms: C_4  and  O_50
REMARK    3  A    between atoms: C_6  and  O_49
REMARK    4  A    between atoms: C_8  and  O_11
REMARK    5  A    between atoms: O_11  and  C_12
REMARK    6  A    between atoms: C_13  and  C_41
REMARK    7  A    between atoms: C_17  and  O_24
REMARK    8  A    between atoms: C_19  and  O_23
REMARK    9  A    between atoms: O_24  and  C_25
REMARK   10  A    between atoms: C_27  and  O_40
REMARK   11  A    between atoms: C_29  and  O_39
REMARK   12  A    between atoms: C_31  and  O_38
REMARK   13  A    between atoms: C_33  and  C_36
REMARK   14  A    between atoms: C_36  and  O_37
REMARK   15  A    between atoms: C_43  and  O_48
REMARK   16  A    between atoms: C_44  and  O_47
REMARK                            x       y       z     vdW  Elec       q    Type
REMARK                         _______ _______ _______ _____ _____    ______ ____
ROOT
ATOM      1  C   UNL     1       2.595  -2.576  -0.018  0.00  0.00    +0.214 A 
ATOM      2  C   UNL     1       3.532  -1.493  -0.462  0.00  0.00    +0.238 A 
ATOM      3  O   UNL     1       3.169  -0.331  -0.602  0.00  0.00    -0.283 OA
ATOM      4  C   UNL     1       4.898  -1.897  -0.825  0.00  0.00    +0.109 A 
ATOM      5  C   UNL     1       5.113  -3.240  -1.095  0.00  0.00    +0.147 A 
ATOM      6  C   UNL     1       6.366  -3.678  -1.535  0.00  0.00    +0.093 A 
ATOM      7  C   UNL     1       7.433  -2.780  -1.659  0.00  0.00    +0.131 A 
ATOM      8  C   UNL     1       7.212  -1.425  -1.401  0.00  0.00    +0.092 A 
ATOM      9  O   UNL     1       4.137  -4.191  -0.947  0.00  0.00    -0.451 OA
ATOM     10  C   UNL     1       5.953  -0.989  -0.972  0.00  0.00    +0.135 A 
ATOM     11  C   UNL     1       2.939  -3.844  -0.331  0.00  0.00    +0.181 A 
ENDROOT
BRANCH  11  12
ATOM     12  C   UNL     1       2.069  -5.040  -0.099  0.00  0.00    +0.025 A 
ATOM     13  C   UNL     1       0.677  -4.993  -0.310  0.00  0.00    +0.015 A 
ATOM     14  C   UNL     1      -0.119  -6.142  -0.198  0.00  0.00    +0.050 A 
ATOM     15  C   UNL     1       0.475  -7.349   0.109  0.00  0.00    +0.158 A 
ATOM     16  C   UNL     1       1.843  -7.428   0.319  0.00  0.00    +0.159 A 
ATOM     17  C   UNL     1       2.645  -6.287   0.228  0.00  0.00    +0.060 A 
BRANCH  16  18
ATOM     18  O   UNL     1       2.367  -8.661   0.613  0.00  0.00    -0.503 OA
ATOM     19  H   UNL     1       3.326  -8.565   0.742  0.00  0.00    +0.292 HD
ENDBRANCH  16  18
BRANCH  15  20
ATOM     20  O   UNL     1      -0.297  -8.474   0.178  0.00  0.00    -0.503 OA
ATOM     21  H   UNL     1       0.337  -9.197   0.363  0.00  0.00    +0.292 HD
ENDBRANCH  15  20
ENDBRANCH  11  12
BRANCH  10  22
ATOM     22  O   UNL     1       5.791   0.328  -0.646  0.00  0.00    -0.506 OA
ATOM     23  H   UNL     1       6.507   0.861  -1.027  0.00  0.00    +0.292 HD
ENDBRANCH  10  22
BRANCH   7  24
ATOM     24  O   UNL     1       8.736  -3.103  -1.962  0.00  0.00    -0.461 OA
BRANCH  24  25
ATOM     25  C   UNL     1       8.998  -4.478  -2.287  0.00  0.00    +0.339 C 
ATOM     26  O   UNL     1       8.847  -5.338  -1.155  0.00  0.00    -0.331 OA
ATOM     27  C   UNL     1       9.962  -5.664  -0.321  0.00  0.00    +0.179 C 
ATOM     28  C   UNL     1      11.264  -5.884  -1.101  0.00  0.00    +0.177 C 
ATOM     29  C   UNL     1      11.529  -4.727  -2.071  0.00  0.00    +0.180 C 
ATOM     30  C   UNL     1      10.346  -4.580  -3.036  0.00  0.00    +0.214 C 
BRANCH  29  31
ATOM     31  O   UNL     1      11.833  -3.527  -1.359  0.00  0.00    -0.386 OA
ATOM     32  H   UNL     1      11.052  -2.940  -1.359  0.00  0.00    +0.210 HD
ENDBRANCH  29  31
BRANCH  30  33
ATOM     33  O   UNL     1      10.323  -5.707  -3.938  0.00  0.00    -0.383 OA
ATOM     34  H   UNL     1      10.245  -6.508  -3.376  0.00  0.00    +0.210 HD
ENDBRANCH  30  33
BRANCH  28  35
ATOM     35  O   UNL     1      11.131  -7.104  -1.854  0.00  0.00    -0.386 OA
ATOM     36  H   UNL     1      12.025  -7.368  -2.139  0.00  0.00    +0.210 HD
ENDBRANCH  28  35
BRANCH  27  37
ATOM     37  C   UNL     1      10.123  -4.746   0.906  0.00  0.00    +0.190 C 
BRANCH  37  38
ATOM     38  O   UNL     1      11.023  -5.323   1.857  0.00  0.00    -0.392 OA
ATOM     39  H   UNL     1      11.928  -5.036   1.642  0.00  0.00    +0.210 HD
ENDBRANCH  37  38
ENDBRANCH  27  37
ENDBRANCH  24  25
ENDBRANCH   7  24
BRANCH   1  40
ATOM     40  O   UNL     1       1.386  -2.266   0.606  0.00  0.00    -0.453 OA
BRANCH  40  43
ATOM     41  C   UNL     1       2.444   0.003   3.235  0.00  0.00    +0.198 C 
ATOM     42  O   UNL     1       2.363  -1.187   2.458  0.00  0.00    -0.337 OA
ATOM     43  C   UNL     1       1.380  -1.081   1.419  0.00  0.00    +0.339 C 
ATOM     44  C   UNL     1      -0.037  -0.867   2.012  0.00  0.00    +0.214 C 
ATOM     45  C   UNL     1      -0.006   0.349   2.959  0.00  0.00    +0.180 C 
ATOM     46  C   UNL     1       1.134   0.238   3.978  0.00  0.00    +0.171 C 
BRANCH  46  47
ATOM     47  O   UNL     1       1.176   1.440   4.749  0.00  0.00    -0.387 OA
ATOM     48  H   UNL     1       1.856   1.319   5.436  0.00  0.00    +0.210 HD
ENDBRANCH  46  47
BRANCH  45  49
ATOM     49  O   UNL     1      -1.254   0.493   3.653  0.00  0.00    -0.386 OA
ATOM     50  H   UNL     1      -1.099   1.178   4.337  0.00  0.00    +0.210 HD
ENDBRANCH  45  49
BRANCH  44  51
ATOM     51  O   UNL     1      -0.997  -0.664   0.958  0.00  0.00    -0.383 OA
ATOM     52  H   UNL     1      -1.164   0.288   0.868  0.00  0.00    +0.210 HD
ENDBRANCH  44  51
ENDBRANCH  40  43
ENDBRANCH   1  40
TORSDOF 16
