REMARK  Name = 
REMARK  19 active torsions:
REMARK  status: ('A' for Active; 'I' for Inactive)
REMARK    1  A    between atoms: C_1  and  C_2
REMARK    2  A    between atoms: C_3  and  O_47
REMARK    3  A    between atoms: C_4  and  O_46
REMARK    4  A    between atoms: C_5  and  O_45
REMARK    5  A    between atoms: C_6  and  O_8
REMARK    6  A    between atoms: O_8  and  C_9
REMARK    7  A    between atoms: C_9  and  C_10
REMARK    8  A    between atoms: C_11  and  O_44
REMARK    9  A    between atoms: C_12  and  O_43
REMARK   10  A    between atoms: C_13  and  O_42
REMARK   11  A    between atoms: C_14  and  O_16
REMARK   12  A    between atoms: O_16  and  C_17
REMARK   13  A    between atoms: C_18  and  C_30
REMARK   14  A    between atoms: C_22  and  O_29
REMARK   15  A    between atoms: C_24  and  O_28
REMARK   16  A    between atoms: C_32  and  O_37
REMARK   17  A    between atoms: C_33  and  O_36
REMARK   18  A    between atoms: O_37  and  S_38
REMARK   19  A    between atoms: S_38  and  O_41
REMARK                            x       y       z     vdW  Elec       q    Type
REMARK                         _______ _______ _______ _____ _____    ______ ____
ROOT
ATOM      1  C   UNL     1       4.954   6.806  -1.909  0.00  0.00    +0.214 A 
ATOM      2  C   UNL     1       6.131   6.385  -2.733  0.00  0.00    +0.238 A 
ATOM      3  O   UNL     1       6.017   6.292  -3.949  0.00  0.00    -0.283 OA
ATOM      4  C   UNL     1       7.450   6.290  -2.064  0.00  0.00    +0.109 A 
ATOM      5  C   UNL     1       7.555   6.736  -0.751  0.00  0.00    +0.147 A 
ATOM      6  C   UNL     1       8.774   6.725  -0.078  0.00  0.00    +0.092 A 
ATOM      7  C   UNL     1       9.913   6.267  -0.725  0.00  0.00    +0.124 A 
ATOM      8  C   UNL     1       9.835   5.834  -2.046  0.00  0.00    +0.091 A 
ATOM      9  O   UNL     1       6.487   7.264  -0.073  0.00  0.00    -0.451 OA
ATOM     10  C   UNL     1       8.606   5.843  -2.714  0.00  0.00    +0.135 A 
ATOM     11  C   UNL     1       5.271   7.389  -0.724  0.00  0.00    +0.181 A 
ENDROOT
BRANCH  11  12
ATOM     12  C   UNL     1       4.477   8.467  -0.096  0.00  0.00    +0.025 A 
ATOM     13  C   UNL     1       4.685   9.771  -0.595  0.00  0.00    +0.015 A 
ATOM     14  C   UNL     1       4.137  10.890   0.030  0.00  0.00    +0.050 A 
ATOM     15  C   UNL     1       3.253  10.699   1.075  0.00  0.00    +0.161 A 
ATOM     16  C   UNL     1       2.970   9.406   1.522  0.00  0.00    +0.201 A 
ATOM     17  C   UNL     1       3.660   8.296   1.021  0.00  0.00    +0.064 A 
BRANCH  15  18
ATOM     18  O   UNL     1       2.542  11.761   1.570  0.00  0.00    -0.503 OA
ATOM     19  H   UNL     1       2.354  12.323   0.789  0.00  0.00    +0.292 HD
ENDBRANCH  15  18
BRANCH  16  20
ATOM     20  O   UNL     1       1.901   9.180   2.351  0.00  0.00    -0.321 OA
BRANCH  20  21
ATOM     21  S   UNL     1       0.426   9.698   1.842  0.00  0.00    +0.251 S 
ATOM     22  O   UNL     1      -0.539   8.680   2.218  0.00  0.00    -0.108 OA
ATOM     23  O   UNL     1       0.479  10.178   0.477  0.00  0.00    -0.108 OA
BRANCH  21  24
ATOM     24  O   UNL     1       0.168  10.988   2.776  0.00  0.00    -0.222 OA
ATOM     25  H   UNL     1       0.929  11.597   2.645  0.00  0.00    +0.248 HD
ENDBRANCH  21  24
ENDBRANCH  20  21
ENDBRANCH  16  20
ENDBRANCH  11  12
BRANCH  10  26
ATOM     26  O   UNL     1       8.554   5.401  -4.002  0.00  0.00    -0.506 OA
ATOM     27  H   UNL     1       9.452   5.264  -4.345  0.00  0.00    +0.292 HD
ENDBRANCH  10  26
BRANCH   7  28
ATOM     28  O   UNL     1      11.132   6.217  -0.119  0.00  0.00    -0.507 OA
ATOM     29  H   UNL     1      11.051   6.516   0.803  0.00  0.00    +0.292 HD
ENDBRANCH   7  28
BRANCH   1  30
ATOM     30  O   UNL     1       3.731   6.961  -2.542  0.00  0.00    -0.453 OA
BRANCH  30  33
ATOM     31  C   UNL     1       3.430   3.823  -4.720  0.00  0.00    +0.179 C 
ATOM     32  O   UNL     1       3.899   4.752  -3.684  0.00  0.00    -0.331 OA
ATOM     33  C   UNL     1       3.063   5.796  -3.145  0.00  0.00    +0.340 C 
ATOM     34  C   UNL     1       2.069   6.398  -4.165  0.00  0.00    +0.214 C 
ATOM     35  C   UNL     1       1.318   5.257  -4.834  0.00  0.00    +0.180 C 
ATOM     36  C   UNL     1       2.305   4.383  -5.616  0.00  0.00    +0.177 C 
BRANCH  36  37
ATOM     37  O   UNL     1       1.617   3.345  -6.309  0.00  0.00    -0.386 OA
ATOM     38  H   UNL     1       0.664   3.560  -6.291  0.00  0.00    +0.210 HD
ENDBRANCH  36  37
BRANCH  35  39
ATOM     39  O   UNL     1       0.317   5.762  -5.730  0.00  0.00    -0.386 OA
ATOM     40  H   UNL     1       0.745   6.471  -6.254  0.00  0.00    +0.210 HD
ENDBRANCH  35  39
BRANCH  34  41
ATOM     41  O   UNL     1       2.705   7.186  -5.192  0.00  0.00    -0.383 OA
ATOM     42  H   UNL     1       3.654   7.272  -4.963  0.00  0.00    +0.210 HD
ENDBRANCH  34  41
BRANCH  31  43
ATOM     43  C   UNL     1       3.213   2.375  -4.132  0.00  0.00    +0.197 C 
BRANCH  43  44
ATOM     44  O   UNL     1       2.821   1.241  -4.920  0.00  0.00    -0.346 OA
BRANCH  44  48
ATOM     45  C   UNL     1       3.401  -1.037  -8.622  0.00  0.00    +0.041 C 
ATOM     46  C   UNL     1       3.371  -1.570  -7.188  0.00  0.00    +0.149 C 
ATOM     47  O   UNL     1       2.825  -0.612  -6.264  0.00  0.00    -0.343 OA
ATOM     48  C   UNL     1       3.643   0.522  -5.864  0.00  0.00    +0.282 C 
ATOM     49  C   UNL     1       4.980  -0.046  -5.302  0.00  0.00    +0.201 C 
ATOM     50  C   UNL     1       5.653  -0.976  -6.346  0.00  0.00    +0.179 C 
ATOM     51  C   UNL     1       4.720  -2.138  -6.724  0.00  0.00    +0.174 C 
BRANCH  51  52
ATOM     52  O   UNL     1       5.274  -3.009  -7.719  0.00  0.00    -0.387 OA
ATOM     53  H   UNL     1       6.059  -2.586  -8.112  0.00  0.00    +0.210 HD
ENDBRANCH  51  52
BRANCH  50  54
ATOM     54  O   UNL     1       6.888  -1.504  -5.843  0.00  0.00    -0.386 OA
ATOM     55  H   UNL     1       6.683  -1.912  -4.980  0.00  0.00    +0.210 HD
ENDBRANCH  50  54
BRANCH  49  56
ATOM     56  O   UNL     1       4.756  -0.821  -4.099  0.00  0.00    -0.384 OA
ATOM     57  H   UNL     1       3.786  -0.859  -3.982  0.00  0.00    +0.210 HD
ENDBRANCH  49  56
ENDBRANCH  44  48
ENDBRANCH  43  44
ENDBRANCH  31  43
ENDBRANCH  30  33
ENDBRANCH   1  30
TORSDOF 18
REMARK  Name = 
REMARK  19 active torsions:
REMARK  status: ('A' for Active; 'I' for Inactive)
REMARK    1  A    between atoms: C_1  and  C_2
REMARK    2  A    between atoms: C_3  and  O_47
REMARK    3  A    between atoms: C_4  and  O_46
REMARK    4  A    between atoms: C_5  and  O_45
REMARK    5  A    between atoms: C_6  and  O_8
REMARK    6  A    between atoms: O_8  and  C_9
REMARK    7  A    between atoms: C_9  and  C_10
REMARK    8  A    between atoms: C_11  and  O_44
REMARK    9  A    between atoms: C_12  and  O_43
REMARK   10  A    between atoms: C_13  and  O_42
REMARK   11  A    between atoms: C_14  and  O_16
REMARK   12  A    between atoms: O_16  and  C_17
REMARK   13  A    between atoms: C_18  and  C_30
REMARK   14  A    between atoms: C_22  and  O_29
REMARK   15  A    between atoms: C_24  and  O_28
REMARK   16  A    between atoms: C_32  and  O_37
REMARK   17  A    between atoms: C_33  and  O_36
REMARK   18  A    between atoms: O_37  and  S_38
REMARK   19  A    between atoms: S_38  and  O_41
REMARK                            x       y       z     vdW  Elec       q    Type
REMARK                         _______ _______ _______ _____ _____    ______ ____
ROOT
ATOM      1  K   UNL     1       0.703   0.999   2.876  0.00  0.00    +0.000 K 
ENDROOT
TORSDOF 0
