REMARK  Name = 
REMARK  10 active torsions:
REMARK  status: ('A' for Active; 'I' for Inactive)
REMARK    1  A    between atoms: C_1  and  O_2
REMARK    2  A    between atoms: O_2  and  C_3
REMARK    3  A    between atoms: C_4  and  O_35
REMARK    4  A    between atoms: C_7  and  C_9
REMARK    5  A    between atoms: C_10  and  C_33
REMARK    6  A    between atoms: C_16  and  C_19
REMARK    7  A    between atoms: C_20  and  O_32
REMARK    8  A    between atoms: C_24  and  O_31
REMARK    9  A    between atoms: C_26  and  O_30
REMARK   10  A    between atoms: C_33  and  O_34
REMARK                            x       y       z     vdW  Elec       q    Type
REMARK                         _______ _______ _______ _____ _____    ______ ____
ROOT
ATOM      1  C   UNL     1       6.656   2.367  -0.654  0.00  0.00    +0.246 C 
ATOM      2  O   UNL     1       7.337   3.630  -0.373  0.00  0.00    -0.477 OA
ATOM      3  C   UNL     1       8.702   3.536  -0.555  0.00  0.00    +0.164 A 
ATOM      4  C   UNL     1       9.463   4.722  -0.620  0.00  0.00    +0.061 A 
ATOM      5  C   UNL     1      10.858   4.687  -0.863  0.00  0.00    +0.025 A 
ATOM      6  C   UNL     1      11.426   3.424  -1.123  0.00  0.00    +0.015 A 
ATOM      7  C   UNL     1      10.687   2.244  -0.998  0.00  0.00    +0.050 A 
ATOM      8  C   UNL     1       9.342   2.303  -0.673  0.00  0.00    +0.163 A 
ATOM      9  O   UNL     1       8.717   1.099  -0.501  0.00  0.00    -0.479 OA
ATOM     10  C   UNL     1       7.402   1.241   0.089  0.00  0.00    +0.244 C 
ENDROOT
BRANCH   5  11
ATOM     11  C   UNL     1      11.722   5.918  -0.874  0.00  0.00    +0.181 A 
ATOM     12  O   UNL     1      11.062   7.079  -1.290  0.00  0.00    -0.451 OA
ATOM     13  C   UNL     1      11.775   8.256  -1.389  0.00  0.00    +0.147 A 
ATOM     14  C   UNL     1      13.130   8.352  -1.083  0.00  0.00    +0.109 A 
ATOM     15  C   UNL     1      13.809   9.576  -1.203  0.00  0.00    +0.135 A 
ATOM     16  C   UNL     1      13.135  10.713  -1.632  0.00  0.00    +0.091 A 
ATOM     17  C   UNL     1      11.782  10.614  -1.934  0.00  0.00    +0.124 A 
ATOM     18  C   UNL     1      13.821   7.156  -0.613  0.00  0.00    +0.238 A 
ATOM     19  O   UNL     1      15.008   7.216  -0.301  0.00  0.00    -0.283 OA
ATOM     20  C   UNL     1      11.096   9.400  -1.817  0.00  0.00    +0.092 A 
ATOM     21  C   UNL     1      13.028   5.906  -0.515  0.00  0.00    +0.208 A 
BRANCH  15  22
ATOM     22  O   UNL     1      15.139   9.729  -0.910  0.00  0.00    -0.506 OA
ATOM     23  H   UNL     1      15.489   8.856  -0.613  0.00  0.00    +0.292 HD
ENDBRANCH  15  22
BRANCH  17  24
ATOM     24  O   UNL     1      11.075  11.709  -2.358  0.00  0.00    -0.507 OA
ATOM     25  H   UNL     1      11.680  12.469  -2.397  0.00  0.00    +0.292 HD
ENDBRANCH  17  24
BRANCH  21  26
ATOM     26  O   UNL     1      13.718   4.803  -0.049  0.00  0.00    -0.501 OA
ATOM     27  H   UNL     1      13.242   4.478   0.734  0.00  0.00    +0.292 HD
ENDBRANCH  21  26
ENDBRANCH   5  11
BRANCH   1  30
ATOM     28  C   UNL     1       3.348   3.405   1.067  0.00  0.00    +0.162 A 
ATOM     29  C   UNL     1       4.719   3.258   0.771  0.00  0.00    +0.056 A 
ATOM     30  C   UNL     1       5.177   2.484  -0.307  0.00  0.00    -0.000 A 
ATOM     31  C   UNL     1       4.219   1.806  -1.075  0.00  0.00    +0.011 A 
ATOM     32  C   UNL     1       2.856   1.941  -0.797  0.00  0.00    +0.049 A 
ATOM     33  C   UNL     1       2.420   2.742   0.262  0.00  0.00    +0.158 A 
BRANCH  28  35
ATOM     34  C   UNL     1       1.853   4.708   2.456  0.00  0.00    +0.277 C 
ATOM     35  O   UNL     1       3.144   4.215   2.149  0.00  0.00    -0.491 OA
ENDBRANCH  28  35
BRANCH  33  36
ATOM     36  O   UNL     1       1.063   2.787   0.407  0.00  0.00    -0.503 OA
ATOM     37  H   UNL     1       0.857   2.859   1.348  0.00  0.00    +0.292 HD
ENDBRANCH  33  36
ENDBRANCH   1  30
BRANCH  10  38
ATOM     38  C   UNL     1       6.777  -0.153  -0.017  0.00  0.00    +0.204 C 
BRANCH  38  39
ATOM     39  O   UNL     1       6.666  -0.560  -1.381  0.00  0.00    -0.391 OA
ATOM     40  H   UNL     1       7.557  -0.454  -1.767  0.00  0.00    +0.210 HD
ENDBRANCH  38  39
ENDBRANCH  10  38
TORSDOF 9
