REMARK  Name = 
REMARK  20 active torsions:
REMARK  status: ('A' for Active; 'I' for Inactive)
REMARK    1  A    between atoms: C_1  and  C_2
REMARK    2  A    between atoms: C_4  and  O_65
REMARK    3  A    between atoms: C_6  and  O_64
REMARK    4  A    between atoms: C_8  and  O_63
REMARK    5  A    between atoms: C_10  and  O_13
REMARK    6  A    between atoms: O_13  and  C_14
REMARK    7  A    between atoms: C_16  and  O_62
REMARK    8  A    between atoms: C_18  and  O_61
REMARK    9  A    between atoms: C_22  and  O_24
REMARK   10  A    between atoms: O_24  and  C_25
REMARK   11  A    between atoms: C_26  and  C_53
REMARK   12  A    between atoms: C_30  and  O_37
REMARK   13  A    between atoms: C_32  and  O_36
REMARK   14  A    between atoms: O_37  and  C_38
REMARK   15  A    between atoms: C_40  and  O_52
REMARK   16  A    between atoms: C_42  and  O_51
REMARK   17  A    between atoms: C_44  and  O_50
REMARK   18  A    between atoms: C_46  and  C_49
REMARK   19  A    between atoms: C_55  and  O_60
REMARK   20  A    between atoms: C_56  and  O_59
REMARK                            x       y       z     vdW  Elec       q    Type
REMARK                         _______ _______ _______ _____ _____    ______ ____
ROOT
ATOM      1  C   UNL     1       0.434   0.636  -2.753  0.00  0.00    +0.214 A 
ATOM      2  C   UNL     1       0.289  -0.820  -2.353  0.00  0.00    +0.238 A 
ATOM      3  O   UNL     1       0.831  -1.676  -3.052  0.00  0.00    -0.283 OA
ATOM      4  C   UNL     1      -0.441  -1.132  -1.089  0.00  0.00    +0.109 A 
ATOM      5  C   UNL     1      -1.032  -0.067  -0.436  0.00  0.00    +0.147 A 
ATOM      6  C   UNL     1      -1.646  -0.211   0.818  0.00  0.00    +0.093 A 
ATOM      7  C   UNL     1      -1.718  -1.456   1.430  0.00  0.00    +0.131 A 
ATOM      8  C   UNL     1      -1.171  -2.558   0.759  0.00  0.00    +0.092 A 
ATOM      9  O   UNL     1      -1.071   1.193  -0.945  0.00  0.00    -0.451 OA
ATOM     10  C   UNL     1      -0.543  -2.401  -0.498  0.00  0.00    +0.135 A 
ATOM     11  C   UNL     1      -0.281   1.539  -2.029  0.00  0.00    +0.181 A 
ENDROOT
BRANCH  11  12
ATOM     12  C   UNL     1      -0.365   3.014  -2.138  0.00  0.00    +0.025 A 
ATOM     13  C   UNL     1       0.441   3.799  -1.295  0.00  0.00    +0.015 A 
ATOM     14  C   UNL     1       0.275   5.187  -1.232  0.00  0.00    +0.050 A 
ATOM     15  C   UNL     1      -0.680   5.796  -2.030  0.00  0.00    +0.158 A 
ATOM     16  C   UNL     1      -1.483   5.039  -2.875  0.00  0.00    +0.159 A 
ATOM     17  C   UNL     1      -1.371   3.647  -2.895  0.00  0.00    +0.060 A 
BRANCH  16  18
ATOM     18  O   UNL     1      -2.337   5.717  -3.701  0.00  0.00    -0.503 OA
ATOM     19  H   UNL     1      -2.587   5.129  -4.436  0.00  0.00    +0.292 HD
ENDBRANCH  16  18
BRANCH  15  20
ATOM     20  O   UNL     1      -0.816   7.154  -1.986  0.00  0.00    -0.503 OA
ATOM     21  H   UNL     1      -1.557   7.355  -2.591  0.00  0.00    +0.292 HD
ENDBRANCH  15  20
ENDBRANCH  11  12
BRANCH  10  22
ATOM     22  O   UNL     1      -0.027  -3.508  -1.114  0.00  0.00    -0.506 OA
ATOM     23  H   UNL     1      -0.201  -4.307  -0.594  0.00  0.00    +0.292 HD
ENDBRANCH  10  22
BRANCH   7  24
ATOM     24  O   UNL     1      -2.259  -1.671   2.679  0.00  0.00    -0.461 OA
BRANCH  24  25
ATOM     25  C   UNL     1      -3.276  -0.738   3.102  0.00  0.00    +0.339 C 
ATOM     26  O   UNL     1      -2.758   0.516   3.573  0.00  0.00    -0.334 OA
ATOM     27  C   UNL     1      -2.005   0.433   4.782  0.00  0.00    +0.150 C 
ATOM     28  C   UNL     1      -1.510   1.841   5.113  0.00  0.00    +0.041 C 
ATOM     29  C   UNL     1      -2.844  -0.114   5.944  0.00  0.00    +0.174 C 
ATOM     30  C   UNL     1      -3.524  -1.438   5.556  0.00  0.00    +0.180 C 
ATOM     31  C   UNL     1      -4.200  -1.364   4.173  0.00  0.00    +0.214 C 
BRANCH  31  32
ATOM     32  O   UNL     1      -5.429  -0.614   4.247  0.00  0.00    -0.383 OA
ATOM     33  H   UNL     1      -5.288   0.154   4.829  0.00  0.00    +0.210 HD
ENDBRANCH  31  32
BRANCH  30  34
ATOM     34  O   UNL     1      -4.495  -1.759   6.567  0.00  0.00    -0.386 OA
ATOM     35  H   UNL     1      -4.961  -2.570   6.302  0.00  0.00    +0.210 HD
ENDBRANCH  30  34
BRANCH  29  36
ATOM     36  O   UNL     1      -2.037  -0.276   7.119  0.00  0.00    -0.387 OA
ATOM     37  H   UNL     1      -1.192  -0.688   6.874  0.00  0.00    +0.210 HD
ENDBRANCH  29  36
ENDBRANCH  24  25
ENDBRANCH   7  24
BRANCH   1  38
ATOM     38  O   UNL     1       1.302   0.790  -3.816  0.00  0.00    -0.453 OA
BRANCH  38  40
ATOM     39  C   UNL     1       2.451   1.831  -5.740  0.00  0.00    +0.221 C 
ATOM     40  C   UNL     1       1.548   2.027  -4.473  0.00  0.00    +0.340 C 
ATOM     41  O   UNL     1       0.301   2.573  -4.916  0.00  0.00    -0.337 OA
ATOM     42  C   UNL     1       0.445   3.909  -5.407  0.00  0.00    +0.198 C 
ATOM     43  C   UNL     1       1.216   3.858  -6.708  0.00  0.00    +0.171 C 
ATOM     44  C   UNL     1       2.576   3.212  -6.430  0.00  0.00    +0.180 C 
BRANCH  44  45
ATOM     45  O   UNL     1       3.336   3.107  -7.638  0.00  0.00    -0.386 OA
ATOM     46  H   UNL     1       4.095   2.533  -7.420  0.00  0.00    +0.210 HD
ENDBRANCH  44  45
BRANCH  43  47
ATOM     47  O   UNL     1       0.443   3.100  -7.648  0.00  0.00    -0.387 OA
ATOM     48  H   UNL     1       0.122   2.299  -7.192  0.00  0.00    +0.210 HD
ENDBRANCH  43  47
BRANCH  39  49
ATOM     49  O   UNL     1       3.812   1.419  -5.552  0.00  0.00    -0.337 OA
BRANCH  49  53
ATOM     50  C   UNL     1       5.881  -0.863  -2.692  0.00  0.00    +0.041 C 
ATOM     51  C   UNL     1       6.055  -1.051  -4.197  0.00  0.00    +0.149 C 
ATOM     52  O   UNL     1       5.520   0.075  -4.909  0.00  0.00    -0.343 OA
ATOM     53  C   UNL     1       4.080   0.162  -4.937  0.00  0.00    +0.282 C 
ATOM     54  C   UNL     1       3.530  -1.087  -5.670  0.00  0.00    +0.201 C 
ATOM     55  C   UNL     1       3.980  -2.346  -4.897  0.00  0.00    +0.179 C 
ATOM     56  C   UNL     1       5.510  -2.378  -4.765  0.00  0.00    +0.174 C 
BRANCH  56  57
ATOM     57  O   UNL     1       6.098  -2.634  -6.050  0.00  0.00    -0.387 OA
ATOM     58  H   UNL     1       6.230  -1.778  -6.498  0.00  0.00    +0.210 HD
ENDBRANCH  56  57
BRANCH  55  59
ATOM     59  O   UNL     1       3.447  -2.388  -3.566  0.00  0.00    -0.386 OA
ATOM     60  H   UNL     1       2.534  -2.038  -3.524  0.00  0.00    +0.210 HD
ENDBRANCH  55  59
BRANCH  54  61
ATOM     61  O   UNL     1       2.109  -1.091  -5.850  0.00  0.00    -0.384 OA
ATOM     62  H   UNL     1       1.662  -1.449  -5.060  0.00  0.00    +0.210 HD
ENDBRANCH  54  61
ENDBRANCH  49  53
ENDBRANCH  39  49
ENDBRANCH  38  40
ENDBRANCH   1  38
TORSDOF 18
