REMARK  Name = 
REMARK  17 active torsions:
REMARK  status: ('A' for Active; 'I' for Inactive)
REMARK    1  A    between atoms: C_3  and  O_49
REMARK    2  A    between atoms: C_4  and  O_48
REMARK    3  A    between atoms: C_6  and  C_7
REMARK    4  A    between atoms: C_8  and  O_20
REMARK    5  A    between atoms: C_12  and  O_19
REMARK    6  A    between atoms: C_14  and  O_18
REMARK    7  A    between atoms: O_20  and  C_21
REMARK    8  A    between atoms: C_23  and  O_36
REMARK    9  A    between atoms: C_25  and  O_35
REMARK   10  A    between atoms: C_27  and  O_34
REMARK   11  A    between atoms: C_29  and  C_32
REMARK   12  A    between atoms: C_32  and  O_33
REMARK   13  A    between atoms: O_36  and  C_37
REMARK   14  A    between atoms: C_37  and  C_39
REMARK   15  A    between atoms: C_41  and  O_47
REMARK   16  A    between atoms: C_42  and  O_46
REMARK   17  A    between atoms: C_43  and  O_45
REMARK                            x       y       z     vdW  Elec       q    Type
REMARK                         _______ _______ _______ _____ _____    ______ ____
ROOT
ATOM      1  C   UNL     1      -2.797  -0.313  -0.587  0.00  0.00    +0.352 C 
ATOM      2  O   UNL     1      -3.147   0.521  -1.710  0.00  0.00    -0.330 OA
ATOM      3  C   UNL     1      -2.989   0.080  -3.071  0.00  0.00    +0.179 C 
ATOM      4  C   UNL     1      -1.762  -0.823  -3.320  0.00  0.00    +0.178 C 
ATOM      5  C   UNL     1      -1.384  -1.716  -2.129  0.00  0.00    +0.192 C 
ATOM      6  C   UNL     1      -1.401  -1.021  -0.720  0.00  0.00    +0.276 C 
ENDROOT
BRANCH   5   7
ATOM      7  O   UNL     1      -2.313  -2.822  -2.186  0.00  0.00    -0.385 OA
ATOM      8  H   UNL     1      -3.197  -2.497  -1.921  0.00  0.00    +0.210 HD
ENDBRANCH   5   7
BRANCH   4   9
ATOM      9  O   UNL     1      -0.635  -0.021  -3.682  0.00  0.00    -0.386 OA
ATOM     10  H   UNL     1       0.070  -0.635  -3.961  0.00  0.00    +0.210 HD
ENDBRANCH   4   9
BRANCH   6  11
ATOM     11  O   UNL     1      -0.044  -0.530  -0.246  0.00  0.00    -0.449 OA
BRANCH  11  12
ATOM     12  C   UNL     1       0.280   0.528   0.567  0.00  0.00    +0.340 C 
ATOM     13  O   UNL     1      -0.420   1.523   0.688  0.00  0.00    -0.245 OA
BRANCH  12  14
ATOM     14  C   UNL     1       1.615   0.389   1.391  0.00  0.00    +0.066 A 
ATOM     15  C   UNL     1       2.279  -0.842   1.530  0.00  0.00    +0.064 A 
ATOM     16  C   UNL     1       3.449  -0.960   2.333  0.00  0.00    +0.163 A 
ATOM     17  C   UNL     1       3.977   0.129   3.000  0.00  0.00    +0.201 A 
ATOM     18  C   UNL     1       3.345   1.357   2.884  0.00  0.00    +0.163 A 
ATOM     19  C   UNL     1       2.177   1.496   2.114  0.00  0.00    +0.064 A 
BRANCH  18  20
ATOM     20  O   UNL     1       3.954   2.375   3.590  0.00  0.00    -0.503 OA
ATOM     21  H   UNL     1       3.664   3.233   3.236  0.00  0.00    +0.292 HD
ENDBRANCH  18  20
BRANCH  17  22
ATOM     22  O   UNL     1       5.111  -0.042   3.740  0.00  0.00    -0.501 OA
ATOM     23  H   UNL     1       5.339   0.846   4.108  0.00  0.00    +0.292 HD
ENDBRANCH  17  22
BRANCH  16  24
ATOM     24  O   UNL     1       4.060  -2.170   2.475  0.00  0.00    -0.503 OA
ATOM     25  H   UNL     1       4.823  -1.985   3.064  0.00  0.00    +0.292 HD
ENDBRANCH  16  24
ENDBRANCH  12  14
ENDBRANCH  11  12
ENDBRANCH   6  11
BRANCH   3  26
ATOM     26  C   UNL     1      -4.291  -0.474  -3.734  0.00  0.00    +0.190 C 
BRANCH  26  27
ATOM     27  O   UNL     1      -5.376   0.458  -3.726  0.00  0.00    -0.392 OA
ATOM     28  H   UNL     1      -5.021   1.351  -3.880  0.00  0.00    +0.210 HD
ENDBRANCH  26  27
ENDBRANCH   3  26
BRANCH   1  29
ATOM     29  O   UNL     1      -3.728  -1.446  -0.468  0.00  0.00    -0.452 OA
BRANCH  29  40
ATOM     30  C   UNL     1      -4.799  -2.505   1.438  0.00  0.00    +0.181 A 
ATOM     31  O   UNL     1      -5.923  -2.722   2.241  0.00  0.00    -0.451 OA
ATOM     32  C   UNL     1      -7.044  -1.957   2.067  0.00  0.00    +0.147 A 
ATOM     33  C   UNL     1      -7.071  -0.879   1.194  0.00  0.00    +0.109 A 
ATOM     34  C   UNL     1      -8.229  -0.096   1.097  0.00  0.00    +0.135 A 
ATOM     35  C   UNL     1      -9.349  -0.383   1.876  0.00  0.00    +0.091 A 
ATOM     36  C   UNL     1      -9.316  -1.476   2.735  0.00  0.00    +0.124 A 
ATOM     37  C   UNL     1      -5.871  -0.603   0.385  0.00  0.00    +0.238 A 
ATOM     38  O   UNL     1      -5.874   0.374  -0.361  0.00  0.00    -0.283 OA
ATOM     39  C   UNL     1      -8.177  -2.275   2.829  0.00  0.00    +0.092 A 
ATOM     40  C   UNL     1      -4.708  -1.514   0.506  0.00  0.00    +0.214 A 
BRANCH  30  42
ATOM     41  C   UNL     1      -3.462  -3.680   3.193  0.00  0.00    +0.015 A 
ATOM     42  C   UNL     1      -3.701  -3.445   1.817  0.00  0.00    +0.025 A 
ATOM     43  C   UNL     1      -2.882  -4.111   0.900  0.00  0.00    +0.060 A 
ATOM     44  C   UNL     1      -1.795  -4.864   1.350  0.00  0.00    +0.159 A 
ATOM     45  C   UNL     1      -1.520  -5.001   2.707  0.00  0.00    +0.158 A 
ATOM     46  C   UNL     1      -2.374  -4.444   3.641  0.00  0.00    +0.050 A 
BRANCH  45  47
ATOM     47  O   UNL     1      -0.395  -5.688   3.071  0.00  0.00    -0.503 OA
ATOM     48  H   UNL     1      -0.219  -5.511   4.012  0.00  0.00    +0.292 HD
ENDBRANCH  45  47
BRANCH  44  49
ATOM     49  O   UNL     1      -0.970  -5.458   0.437  0.00  0.00    -0.503 OA
ATOM     50  H   UNL     1      -0.300  -5.927   0.974  0.00  0.00    +0.292 HD
ENDBRANCH  44  49
ENDBRANCH  30  42
BRANCH  36  51
ATOM     51  O   UNL     1     -10.391  -1.792   3.513  0.00  0.00    -0.507 OA
ATOM     52  H   UNL     1     -11.079  -1.116   3.389  0.00  0.00    +0.292 HD
ENDBRANCH  36  51
BRANCH  34  53
ATOM     53  O   UNL     1      -8.332   0.977   0.254  0.00  0.00    -0.506 OA
ATOM     54  H   UNL     1      -7.485   1.060  -0.245  0.00  0.00    +0.292 HD
ENDBRANCH  34  53
ENDBRANCH  29  40
ENDBRANCH   1  29
TORSDOF 17
