REMARK  Name = 
REMARK  22 active torsions:
REMARK  status: ('A' for Active; 'I' for Inactive)
REMARK    1  A    between atoms: C_1  and  C_2
REMARK    2  A    between atoms: C_4  and  C_10
REMARK    3  A    between atoms: C_6  and  C_9
REMARK    4  A    between atoms: C_7  and  C_8
REMARK    5  A    between atoms: C_10  and  O_12
REMARK    6  A    between atoms: O_12  and  C_13
REMARK    7  A    between atoms: C_13  and  C_14
REMARK    8  A    between atoms: C_16  and  O_60
REMARK    9  A    between atoms: C_18  and  O_59
REMARK   10  A    between atoms: C_20  and  O_47
REMARK   11  A    between atoms: C_22  and  O_25
REMARK   12  A    between atoms: O_25  and  C_26
REMARK   13  A    between atoms: C_27  and  C_39
REMARK   14  A    between atoms: C_31  and  O_38
REMARK   15  A    between atoms: C_33  and  O_37
REMARK   16  A    between atoms: C_41  and  O_46
REMARK   17  A    between atoms: C_42  and  O_45
REMARK   18  A    between atoms: O_47  and  C_48
REMARK   19  A    between atoms: C_48  and  C_50
REMARK   20  A    between atoms: C_52  and  O_58
REMARK   21  A    between atoms: C_53  and  O_57
REMARK   22  A    between atoms: C_54  and  O_56
REMARK                            x       y       z     vdW  Elec       q    Type
REMARK                         _______ _______ _______ _____ _____    ______ ____
ROOT
ATOM      1  C   UNL     1       8.859   3.493   0.177  0.00  0.00    +0.191 C 
ATOM      2  O   UNL     1       9.409   4.470  -0.713  0.00  0.00    -0.329 OA
ATOM      3  C   UNL     1       8.898   4.380  -2.053  0.00  0.00    +0.352 C 
ATOM      4  C   UNL     1       9.203   2.990  -2.651  0.00  0.00    +0.276 C 
ATOM      5  C   UNL     1       8.813   1.848  -1.706  0.00  0.00    +0.192 C 
ATOM      6  C   UNL     1       9.315   2.100  -0.283  0.00  0.00    +0.179 C 
ENDROOT
BRANCH   6   7
ATOM      7  O   UNL     1       8.838   1.029   0.537  0.00  0.00    -0.386 OA
ATOM      8  H   UNL     1       9.121   1.216   1.452  0.00  0.00    +0.210 HD
ENDBRANCH   6   7
BRANCH   5   9
ATOM      9  O   UNL     1       9.384   0.614  -2.178  0.00  0.00    -0.385 OA
ATOM     10  H   UNL     1       9.187  -0.038  -1.475  0.00  0.00    +0.210 HD
ENDBRANCH   5   9
BRANCH   4  11
ATOM     11  O   UNL     1       8.673   2.780  -3.990  0.00  0.00    -0.449 OA
BRANCH  11  12
ATOM     12  C   UNL     1       7.365   2.515  -4.230  0.00  0.00    +0.340 C 
ATOM     13  O   UNL     1       6.437   2.688  -3.461  0.00  0.00    -0.245 OA
BRANCH  12  14
ATOM     14  C   UNL     1       7.241   1.976  -5.624  0.00  0.00    +0.066 A 
ATOM     15  C   UNL     1       8.406   1.668  -6.342  0.00  0.00    +0.064 A 
ATOM     16  C   UNL     1       8.334   1.372  -7.694  0.00  0.00    +0.163 A 
ATOM     17  C   UNL     1       7.108   1.269  -8.328  0.00  0.00    +0.201 A 
ATOM     18  C   UNL     1       5.935   1.478  -7.601  0.00  0.00    +0.163 A 
ATOM     19  C   UNL     1       5.986   1.840  -6.250  0.00  0.00    +0.064 A 
BRANCH  18  20
ATOM     20  O   UNL     1       4.756   1.376  -8.291  0.00  0.00    -0.503 OA
ATOM     21  H   UNL     1       4.021   1.612  -7.700  0.00  0.00    +0.292 HD
ENDBRANCH  18  20
BRANCH  17  22
ATOM     22  O   UNL     1       7.047   1.030  -9.672  0.00  0.00    -0.501 OA
ATOM     23  H   UNL     1       6.095   1.023  -9.888  0.00  0.00    +0.292 HD
ENDBRANCH  17  22
BRANCH  16  24
ATOM     24  O   UNL     1       9.500   1.299  -8.394  0.00  0.00    -0.503 OA
ATOM     25  H   UNL     1       9.842   2.211  -8.400  0.00  0.00    +0.292 HD
ENDBRANCH  16  24
ENDBRANCH  12  14
ENDBRANCH  11  12
ENDBRANCH   4  11
BRANCH   3  26
ATOM     26  O   UNL     1       9.588   5.371  -2.854  0.00  0.00    -0.452 OA
BRANCH  26  27
ATOM     27  C   UNL     1       9.364   6.713  -2.547  0.00  0.00    +0.214 A 
ATOM     28  C   UNL     1       8.007   7.180  -2.108  0.00  0.00    +0.238 A 
ATOM     29  O   UNL     1       7.231   6.464  -1.480  0.00  0.00    -0.283 OA
ATOM     30  C   UNL     1       7.648   8.560  -2.410  0.00  0.00    +0.109 A 
ATOM     31  C   UNL     1       8.705   9.450  -2.585  0.00  0.00    +0.147 A 
ATOM     32  C   UNL     1       8.437  10.806  -2.812  0.00  0.00    +0.092 A 
ATOM     33  C   UNL     1       7.113  11.241  -2.873  0.00  0.00    +0.124 A 
ATOM     34  C   UNL     1       6.053  10.357  -2.723  0.00  0.00    +0.091 A 
ATOM     35  O   UNL     1      10.013   9.042  -2.515  0.00  0.00    -0.451 OA
ATOM     36  C   UNL     1       6.322   9.011  -2.492  0.00  0.00    +0.135 A 
ATOM     37  C   UNL     1      10.319   7.673  -2.664  0.00  0.00    +0.181 A 
BRANCH  37  38
ATOM     38  C   UNL     1      11.794   7.453  -2.921  0.00  0.00    +0.025 A 
ATOM     39  C   UNL     1      12.603   8.524  -3.372  0.00  0.00    +0.015 A 
ATOM     40  C   UNL     1      13.993   8.401  -3.547  0.00  0.00    +0.050 A 
ATOM     41  C   UNL     1      14.600   7.190  -3.277  0.00  0.00    +0.158 A 
ATOM     42  C   UNL     1      13.844   6.114  -2.836  0.00  0.00    +0.159 A 
ATOM     43  C   UNL     1      12.460   6.239  -2.645  0.00  0.00    +0.060 A 
BRANCH  41  44
ATOM     44  O   UNL     1      15.948   7.064  -3.442  0.00  0.00    -0.503 OA
ATOM     45  H   UNL     1      16.154   6.143  -3.181  0.00  0.00    +0.292 HD
ENDBRANCH  41  44
BRANCH  42  46
ATOM     46  O   UNL     1      14.513   4.944  -2.588  0.00  0.00    -0.503 OA
ATOM     47  H   UNL     1      13.860   4.258  -2.373  0.00  0.00    +0.292 HD
ENDBRANCH  42  46
ENDBRANCH  37  38
BRANCH  36  48
ATOM     48  O   UNL     1       5.276   8.137  -2.388  0.00  0.00    -0.506 OA
ATOM     49  H   UNL     1       4.434   8.618  -2.386  0.00  0.00    +0.292 HD
ENDBRANCH  36  48
BRANCH  33  50
ATOM     50  O   UNL     1       6.802  12.546  -3.112  0.00  0.00    -0.507 OA
ATOM     51  H   UNL     1       7.613  13.061  -3.242  0.00  0.00    +0.292 HD
ENDBRANCH  33  50
ENDBRANCH  26  27
ENDBRANCH   3  26
BRANCH   1  52
ATOM     52  C   UNL     1       9.368   3.806   1.595  0.00  0.00    +0.266 C 
BRANCH  52  53
ATOM     53  O   UNL     1       8.874   2.863   2.566  0.00  0.00    -0.458 OA
BRANCH  53  54
ATOM     54  C   UNL     1       7.624   3.143   3.023  0.00  0.00    +0.339 C 
ATOM     55  O   UNL     1       6.953   4.105   2.686  0.00  0.00    -0.245 OA
BRANCH  54  63
ATOM     56  C   UNL     1       3.872   1.542   5.827  0.00  0.00    +0.044 C 
ATOM     57  C   UNL     1       5.281   1.320   5.344  0.00  0.00    -0.047 A 
ATOM     58  C   UNL     1       6.052   0.210   5.764  0.00  0.00    -0.045 A 
ATOM     59  C   UNL     1       5.443  -0.776   6.731  0.00  0.00    +0.044 C 
ATOM     60  C   UNL     1       7.370   0.055   5.269  0.00  0.00    -0.047 A 
ATOM     61  C   UNL     1       8.233  -1.113   5.672  0.00  0.00    +0.044 C 
ATOM     62  C   UNL     1       7.900   1.010   4.380  0.00  0.00    +0.018 A 
ATOM     63  C   UNL     1       7.135   2.105   3.968  0.00  0.00    +0.060 A 
ATOM     64  C   UNL     1       5.832   2.249   4.452  0.00  0.00    +0.018 A 
ENDBRANCH  54  63
ENDBRANCH  53  54
ENDBRANCH  52  53
ENDBRANCH   1  52
TORSDOF 19
