REMARK  Name = 
REMARK  16 active torsions:
REMARK  status: ('A' for Active; 'I' for Inactive)
REMARK    1  A    between atoms: C_2  and  O_47
REMARK    2  A    between atoms: C_4  and  O_46
REMARK    3  A    between atoms: C_6  and  O_34
REMARK    4  A    between atoms: C_8  and  O_11
REMARK    5  A    between atoms: O_11  and  O_12
REMARK    6  A    between atoms: O_12  and  C_13
REMARK    7  A    between atoms: C_14  and  C_26
REMARK    8  A    between atoms: C_18  and  O_25
REMARK    9  A    between atoms: C_20  and  O_24
REMARK   10  A    between atoms: C_28  and  O_33
REMARK   11  A    between atoms: C_29  and  O_32
REMARK   12  A    between atoms: O_34  and  C_35
REMARK   13  A    between atoms: C_35  and  C_37
REMARK   14  A    between atoms: C_39  and  O_45
REMARK   15  A    between atoms: C_40  and  O_44
REMARK   16  A    between atoms: C_41  and  O_43
REMARK                            x       y       z     vdW  Elec       q    Type
REMARK                         _______ _______ _______ _____ _____    ______ ____
ROOT
ATOM      1  O   UNL     1       1.470  -2.131   0.294  0.00  0.00    -0.150 OA
ENDROOT
BRANCH   1   4
ATOM      2  C   UNL     1       0.654   1.346  -0.302  0.00  0.00    +0.197 C 
ATOM      3  O   UNL     1       1.319   0.206   0.248  0.00  0.00    -0.342 OA
ATOM      4  C   UNL     1       0.753  -1.027  -0.230  0.00  0.00    +0.343 C 
ATOM      5  C   UNL     1      -0.714  -1.172   0.234  0.00  0.00    +0.267 C 
ATOM      6  C   UNL     1      -1.507   0.050  -0.262  0.00  0.00    +0.191 C 
ATOM      7  C   UNL     1      -0.805   1.361   0.152  0.00  0.00    +0.172 C 
BRANCH   7   8
ATOM      8  O   UNL     1      -0.855   1.534   1.574  0.00  0.00    -0.387 OA
ATOM      9  H   UNL     1      -0.145   0.992   1.969  0.00  0.00    +0.210 HD
ENDBRANCH   7   8
BRANCH   6  10
ATOM     10  O   UNL     1      -2.852  -0.000   0.227  0.00  0.00    -0.385 OA
ATOM     11  H   UNL     1      -3.220   0.899   0.186  0.00  0.00    +0.210 HD
ENDBRANCH   6  10
BRANCH   5  12
ATOM     12  O   UNL     1      -1.342  -2.442  -0.121  0.00  0.00    -0.450 OA
BRANCH  12  13
ATOM     13  C   UNL     1      -1.397  -2.799  -1.421  0.00  0.00    +0.340 C 
ATOM     14  O   UNL     1      -0.937  -2.146  -2.344  0.00  0.00    -0.245 OA
BRANCH  13  15
ATOM     15  C   UNL     1      -2.102  -4.092  -1.636  0.00  0.00    +0.066 A 
ATOM     16  C   UNL     1      -2.621  -4.878  -0.595  0.00  0.00    +0.064 A 
ATOM     17  C   UNL     1      -3.321  -6.043  -0.910  0.00  0.00    +0.163 A 
ATOM     18  C   UNL     1      -3.482  -6.442  -2.233  0.00  0.00    +0.201 A 
ATOM     19  C   UNL     1      -2.943  -5.683  -3.261  0.00  0.00    +0.163 A 
ATOM     20  C   UNL     1      -2.258  -4.508  -2.973  0.00  0.00    +0.064 A 
BRANCH  19  21
ATOM     21  O   UNL     1      -3.113  -6.126  -4.543  0.00  0.00    -0.503 OA
ATOM     22  H   UNL     1      -2.627  -5.530  -5.140  0.00  0.00    +0.292 HD
ENDBRANCH  19  21
BRANCH  18  23
ATOM     23  O   UNL     1      -4.182  -7.586  -2.511  0.00  0.00    -0.501 OA
ATOM     24  H   UNL     1      -4.175  -7.645  -3.488  0.00  0.00    +0.292 HD
ENDBRANCH  18  23
BRANCH  17  25
ATOM     25  O   UNL     1      -3.862  -6.799   0.090  0.00  0.00    -0.503 OA
ATOM     26  H   UNL     1      -4.330  -7.525  -0.371  0.00  0.00    +0.292 HD
ENDBRANCH  17  25
ENDBRANCH  13  15
ENDBRANCH  12  13
ENDBRANCH   5  12
ENDBRANCH   1   4
BRANCH   1  27
ATOM     27  O   UNL     1       2.815  -2.052  -0.246  0.00  0.00    -0.325 OA
BRANCH  27  28
ATOM     28  C   UNL     1       3.387  -3.308  -0.080  0.00  0.00    +0.256 A 
ATOM     29  C   UNL     1       2.991  -4.154   1.093  0.00  0.00    +0.242 A 
ATOM     30  O   UNL     1       2.297  -3.719   2.005  0.00  0.00    -0.283 OA
ATOM     31  C   UNL     1       3.531  -5.521   1.146  0.00  0.00    +0.109 A 
ATOM     32  C   UNL     1       4.468  -5.887   0.183  0.00  0.00    +0.147 A 
ATOM     33  C   UNL     1       5.044  -7.161   0.211  0.00  0.00    +0.092 A 
ATOM     34  C   UNL     1       4.686  -8.052   1.220  0.00  0.00    +0.124 A 
ATOM     35  C   UNL     1       3.756  -7.700   2.189  0.00  0.00    +0.091 A 
ATOM     36  O   UNL     1       4.900  -5.040  -0.808  0.00  0.00    -0.451 OA
ATOM     37  C   UNL     1       3.172  -6.437   2.148  0.00  0.00    +0.135 A 
ATOM     38  C   UNL     1       4.350  -3.765  -0.908  0.00  0.00    +0.185 A 
BRANCH  38  39
ATOM     39  C   UNL     1       4.943  -2.969  -2.032  0.00  0.00    +0.025 A 
ATOM     40  C   UNL     1       5.407  -3.629  -3.191  0.00  0.00    +0.015 A 
ATOM     41  C   UNL     1       6.045  -2.934  -4.229  0.00  0.00    +0.050 A 
ATOM     42  C   UNL     1       6.207  -1.565  -4.125  0.00  0.00    +0.158 A 
ATOM     43  C   UNL     1       5.745  -0.882  -3.007  0.00  0.00    +0.159 A 
ATOM     44  C   UNL     1       5.139  -1.573  -1.958  0.00  0.00    +0.060 A 
BRANCH  43  45
ATOM     45  O   UNL     1       5.917   0.476  -2.982  0.00  0.00    -0.503 OA
ATOM     46  H   UNL     1       5.418   0.828  -2.225  0.00  0.00    +0.292 HD
ENDBRANCH  43  45
BRANCH  42  47
ATOM     47  O   UNL     1       6.839  -0.888  -5.132  0.00  0.00    -0.503 OA
ATOM     48  H   UNL     1       6.863   0.042  -4.829  0.00  0.00    +0.292 HD
ENDBRANCH  42  47
ENDBRANCH  38  39
BRANCH  37  49
ATOM     49  O   UNL     1       2.250  -6.115   3.102  0.00  0.00    -0.506 OA
ATOM     50  H   UNL     1       2.146  -6.837   3.741  0.00  0.00    +0.292 HD
ENDBRANCH  37  49
BRANCH  34  51
ATOM     51  O   UNL     1       5.234  -9.296   1.303  0.00  0.00    -0.507 OA
ATOM     52  H   UNL     1       5.880  -9.414   0.591  0.00  0.00    +0.292 HD
ENDBRANCH  34  51
ENDBRANCH  27  28
ENDBRANCH   1  27
TORSDOF 16
