REMARK  Name = 
REMARK  10 active torsions:
REMARK  status: ('A' for Active; 'I' for Inactive)
REMARK    1  A    between atoms: C_2  and  O_35
REMARK    2  A    between atoms: C_4  and  O_34
REMARK    3  A    between atoms: C_6  and  O_33
REMARK    4  A    between atoms: C_8  and  O_11
REMARK    5  A    between atoms: O_11  and  C_12
REMARK    6  A    between atoms: C_13  and  C_25
REMARK    7  A    between atoms: C_17  and  O_24
REMARK    8  A    between atoms: C_19  and  O_23
REMARK    9  A    between atoms: C_27  and  O_32
REMARK   10  A    between atoms: C_28  and  O_31
REMARK                            x       y       z     vdW  Elec       q    Type
REMARK                         _______ _______ _______ _____ _____    ______ ____
ROOT
ATOM      1  C   UNL     1       2.636  -2.588  -0.014  0.00  0.00    +0.214 A 
ATOM      2  C   UNL     1       3.539  -1.507  -0.504  0.00  0.00    +0.238 A 
ATOM      3  O   UNL     1       3.118  -0.401  -0.820  0.00  0.00    -0.283 OA
ATOM      4  C   UNL     1       4.954  -1.857  -0.683  0.00  0.00    +0.109 A 
ATOM      5  C   UNL     1       5.269  -3.210  -0.778  0.00  0.00    +0.147 A 
ATOM      6  C   UNL     1       6.583  -3.602  -1.048  0.00  0.00    +0.092 A 
ATOM      7  C   UNL     1       7.566  -2.629  -1.214  0.00  0.00    +0.124 A 
ATOM      8  C   UNL     1       7.269  -1.276  -1.096  0.00  0.00    +0.091 A 
ATOM      9  O   UNL     1       4.325  -4.204  -0.644  0.00  0.00    -0.451 OA
ATOM     10  C   UNL     1       5.961  -0.888  -0.821  0.00  0.00    +0.135 A 
ATOM     11  C   UNL     1       3.056  -3.861  -0.190  0.00  0.00    +0.181 A 
ENDROOT
BRANCH  11  12
ATOM     12  C   UNL     1       2.182  -5.047   0.074  0.00  0.00    +0.025 A 
ATOM     13  C   UNL     1       2.726  -6.244   0.578  0.00  0.00    +0.015 A 
ATOM     14  C   UNL     1       1.922  -7.368   0.817  0.00  0.00    +0.050 A 
ATOM     15  C   UNL     1       0.563  -7.299   0.554  0.00  0.00    +0.158 A 
ATOM     16  C   UNL     1       0.005  -6.139   0.033  0.00  0.00    +0.159 A 
ATOM     17  C   UNL     1       0.804  -5.026  -0.225  0.00  0.00    +0.060 A 
BRANCH  15  18
ATOM     18  O   UNL     1      -0.228  -8.381   0.813  0.00  0.00    -0.503 OA
ATOM     19  H   UNL     1      -1.130  -8.084   0.575  0.00  0.00    +0.292 HD
ENDBRANCH  15  18
BRANCH  16  20
ATOM     20  O   UNL     1      -1.340  -6.132  -0.212  0.00  0.00    -0.503 OA
ATOM     21  H   UNL     1      -1.588  -5.237  -0.503  0.00  0.00    +0.292 HD
ENDBRANCH  16  20
ENDBRANCH  11  12
BRANCH   7  22
ATOM     22  O   UNL     1       8.856  -2.954  -1.495  0.00  0.00    -0.507 OA
ATOM     23  H   UNL     1       8.932  -3.914  -1.584  0.00  0.00    +0.292 HD
ENDBRANCH   7  22
BRANCH  10  24
ATOM     24  O   UNL     1       5.684   0.439  -0.661  0.00  0.00    -0.506 OA
ATOM     25  H   UNL     1       6.447   0.971  -0.936  0.00  0.00    +0.292 HD
ENDBRANCH  10  24
BRANCH   1  26
ATOM     26  O   UNL     1       1.385  -2.281   0.509  0.00  0.00    -0.453 OA
BRANCH  26  29
ATOM     27  C   UNL     1       2.276   0.188   3.031  0.00  0.00    +0.198 C 
ATOM     28  O   UNL     1       2.242  -1.067   2.345  0.00  0.00    -0.337 OA
ATOM     29  C   UNL     1       1.309  -1.055   1.253  0.00  0.00    +0.339 C 
ATOM     30  C   UNL     1      -0.135  -0.863   1.772  0.00  0.00    +0.214 C 
ATOM     31  C   UNL     1      -0.181   0.418   2.631  0.00  0.00    +0.180 C 
ATOM     32  C   UNL     1       0.924   0.428   3.696  0.00  0.00    +0.171 C 
BRANCH  30  33
ATOM     33  O   UNL     1      -1.047  -0.769   0.660  0.00  0.00    -0.383 OA
ATOM     34  H   UNL     1      -1.442   0.121   0.670  0.00  0.00    +0.210 HD
ENDBRANCH  30  33
BRANCH  31  35
ATOM     35  O   UNL     1      -1.484   0.582   3.204  0.00  0.00    -0.386 OA
ATOM     36  H   UNL     1      -1.371   0.722   4.164  0.00  0.00    +0.210 HD
ENDBRANCH  31  35
BRANCH  32  37
ATOM     37  O   UNL     1       0.667  -0.598   4.667  0.00  0.00    -0.387 OA
ATOM     38  H   UNL     1       1.064  -1.427   4.333  0.00  0.00    +0.210 HD
ENDBRANCH  32  37
ENDBRANCH  26  29
ENDBRANCH   1  26
TORSDOF 10
