REMARK  Name = 
REMARK  10 active torsions:
REMARK  status: ('A' for Active; 'I' for Inactive)
REMARK    1  A    between atoms: C_2  and  O_35
REMARK    2  A    between atoms: C_4  and  O_34
REMARK    3  A    between atoms: C_6  and  O_33
REMARK    4  A    between atoms: C_8  and  O_11
REMARK    5  A    between atoms: O_11  and  C_12
REMARK    6  A    between atoms: C_13  and  C_25
REMARK    7  A    between atoms: C_17  and  O_24
REMARK    8  A    between atoms: C_19  and  O_23
REMARK    9  A    between atoms: C_27  and  O_32
REMARK   10  A    between atoms: C_28  and  O_31
REMARK                            x       y       z     vdW  Elec       q    Type
REMARK                         _______ _______ _______ _____ _____    ______ ____
ROOT
ATOM      1  C   UNL     1       2.636  -2.705  -0.008  0.00  0.00    +0.214 A 
ATOM      2  C   UNL     1       3.529  -1.559  -0.378  0.00  0.00    +0.238 A 
ATOM      3  O   UNL     1       3.084  -0.419  -0.442  0.00  0.00    -0.283 OA
ATOM      4  C   UNL     1       4.939  -1.873  -0.678  0.00  0.00    +0.109 A 
ATOM      5  C   UNL     1       5.279  -3.215  -0.824  0.00  0.00    +0.147 A 
ATOM      6  C   UNL     1       6.600  -3.590  -1.092  0.00  0.00    +0.092 A 
ATOM      7  C   UNL     1       7.574  -2.606  -1.231  0.00  0.00    +0.124 A 
ATOM      8  C   UNL     1       7.252  -1.264  -1.100  0.00  0.00    +0.091 A 
ATOM      9  O   UNL     1       4.363  -4.233  -0.746  0.00  0.00    -0.451 OA
ATOM     10  C   UNL     1       5.936  -0.894  -0.822  0.00  0.00    +0.135 A 
ATOM     11  C   UNL     1       3.070  -3.950  -0.317  0.00  0.00    +0.181 A 
ENDROOT
BRANCH  11  12
ATOM     12  C   UNL     1       2.227  -5.178  -0.274  0.00  0.00    +0.025 A 
ATOM     13  C   UNL     1       0.891  -5.152  -0.733  0.00  0.00    +0.015 A 
ATOM     14  C   UNL     1       0.046  -6.252  -0.563  0.00  0.00    +0.050 A 
ATOM     15  C   UNL     1       0.555  -7.411  -0.005  0.00  0.00    +0.158 A 
ATOM     16  C   UNL     1       1.886  -7.482   0.394  0.00  0.00    +0.159 A 
ATOM     17  C   UNL     1       2.726  -6.375   0.272  0.00  0.00    +0.060 A 
BRANCH  15  18
ATOM     18  O   UNL     1      -0.268  -8.489   0.150  0.00  0.00    -0.503 OA
ATOM     19  H   UNL     1       0.311  -9.198   0.494  0.00  0.00    +0.292 HD
ENDBRANCH  15  18
BRANCH  16  20
ATOM     20  O   UNL     1       2.320  -8.667   0.921  0.00  0.00    -0.503 OA
ATOM     21  H   UNL     1       3.279  -8.594   1.098  0.00  0.00    +0.292 HD
ENDBRANCH  16  20
ENDBRANCH  11  12
BRANCH   7  22
ATOM     22  O   UNL     1       8.872  -2.918  -1.499  0.00  0.00    -0.507 OA
ATOM     23  H   UNL     1       8.957  -3.879  -1.610  0.00  0.00    +0.292 HD
ENDBRANCH   7  22
BRANCH  10  24
ATOM     24  O   UNL     1       5.648   0.433  -0.676  0.00  0.00    -0.506 OA
ATOM     25  H   UNL     1       6.417   0.976  -0.910  0.00  0.00    +0.292 HD
ENDBRANCH  10  24
BRANCH   1  26
ATOM     26  O   UNL     1       1.417  -2.329   0.521  0.00  0.00    -0.453 OA
BRANCH  26  29
ATOM     27  C   UNL     1      -1.207  -4.031   2.307  0.00  0.00    +0.198 C 
ATOM     28  O   UNL     1      -0.582  -3.125   1.408  0.00  0.00    -0.337 OA
ATOM     29  C   UNL     1       0.846  -3.096   1.579  0.00  0.00    +0.339 C 
ATOM     30  C   UNL     1       1.239  -2.600   2.985  0.00  0.00    +0.214 C 
ATOM     31  C   UNL     1       0.583  -3.548   3.997  0.00  0.00    +0.180 C 
ATOM     32  C   UNL     1      -0.933  -3.648   3.760  0.00  0.00    +0.171 C 
BRANCH  30  33
ATOM     33  O   UNL     1       0.807  -1.261   3.252  0.00  0.00    -0.383 OA
ATOM     34  H   UNL     1       0.973  -1.126   4.206  0.00  0.00    +0.210 HD
ENDBRANCH  30  33
BRANCH  31  35
ATOM     35  O   UNL     1       0.836  -3.086   5.332  0.00  0.00    -0.386 OA
ATOM     36  H   UNL     1       0.260  -3.639   5.899  0.00  0.00    +0.210 HD
ENDBRANCH  31  35
BRANCH  32  37
ATOM     37  O   UNL     1      -1.469  -4.623   4.660  0.00  0.00    -0.387 OA
ATOM     38  H   UNL     1      -2.434  -4.643   4.515  0.00  0.00    +0.210 HD
ENDBRANCH  32  37
ENDBRANCH  26  29
ENDBRANCH   1  26
TORSDOF 10
