REMARK  Name = 
REMARK  10 active torsions:
REMARK  status: ('A' for Active; 'I' for Inactive)
REMARK    1  A    between atoms: C_1  and  C_2
REMARK    2  A    between atoms: C_2  and  C_3
REMARK    3  A    between atoms: C_2  and  C_4
REMARK    4  A    between atoms: C_4  and  O_6
REMARK    5  A    between atoms: O_6  and  C_7
REMARK    6  A    between atoms: C_8  and  C_20
REMARK    7  A    between atoms: C_12  and  O_19
REMARK    8  A    between atoms: C_14  and  O_18
REMARK    9  A    between atoms: C_22  and  O_27
REMARK   10  A    between atoms: C_23  and  O_26
REMARK                            x       y       z     vdW  Elec       q    Type
REMARK                         _______ _______ _______ _____ _____    ______ ____
ROOT
ATOM      1  C   UNL     1       4.838   1.330   2.447  0.00  0.00    +0.221 A 
ATOM      2  C   UNL     1       4.699   2.813   2.479  0.00  0.00    +0.239 A 
ATOM      3  O   UNL     1       4.370   3.411   1.461  0.00  0.00    -0.283 OA
ATOM      4  C   UNL     1       5.015   3.476   3.760  0.00  0.00    +0.109 A 
ATOM      5  C   UNL     1       5.557   2.696   4.785  0.00  0.00    +0.147 A 
ATOM      6  C   UNL     1       5.880   3.266   6.021  0.00  0.00    +0.092 A 
ATOM      7  C   UNL     1       5.659   4.624   6.220  0.00  0.00    +0.124 A 
ATOM      8  C   UNL     1       5.125   5.417   5.212  0.00  0.00    +0.091 A 
ATOM      9  O   UNL     1       5.817   1.353   4.652  0.00  0.00    -0.451 OA
ATOM     10  C   UNL     1       4.802   4.843   3.981  0.00  0.00    +0.135 A 
ATOM     11  C   UNL     1       5.413   0.715   3.493  0.00  0.00    +0.182 A 
ENDROOT
BRANCH  11  12
ATOM     12  C   UNL     1       5.685  -0.730   3.513  0.00  0.00    +0.025 A 
ATOM     13  C   UNL     1       6.932  -1.215   3.079  0.00  0.00    +0.015 A 
ATOM     14  C   UNL     1       7.235  -2.576   3.173  0.00  0.00    +0.050 A 
ATOM     15  C   UNL     1       6.294  -3.441   3.708  0.00  0.00    +0.158 A 
ATOM     16  C   UNL     1       5.049  -2.974   4.122  0.00  0.00    +0.159 A 
ATOM     17  C   UNL     1       4.731  -1.623   4.022  0.00  0.00    +0.060 A 
BRANCH  15  18
ATOM     18  O   UNL     1       6.607  -4.764   3.843  0.00  0.00    -0.503 OA
ATOM     19  H   UNL     1       5.824  -5.160   4.273  0.00  0.00    +0.292 HD
ENDBRANCH  15  18
BRANCH  16  20
ATOM     20  O   UNL     1       4.173  -3.886   4.644  0.00  0.00    -0.503 OA
ATOM     21  H   UNL     1       3.360  -3.415   4.899  0.00  0.00    +0.292 HD
ENDBRANCH  16  20
ENDBRANCH  11  12
BRANCH   7  22
ATOM     22  O   UNL     1       5.954   5.230   7.405  0.00  0.00    -0.507 OA
ATOM     23  H   UNL     1       6.307   4.570   8.025  0.00  0.00    +0.292 HD
ENDBRANCH   7  22
BRANCH  10  24
ATOM     24  O   UNL     1       4.269   5.637   3.007  0.00  0.00    -0.506 OA
ATOM     25  H   UNL     1       4.202   6.552   3.316  0.00  0.00    +0.292 HD
ENDBRANCH  10  24
BRANCH   1  26
ATOM     26  O   UNL     1       4.427   0.666   1.285  0.00  0.00    -0.418 OA
BRANCH  26  27
ATOM     27  C   UNL     1       3.070   0.824   1.113  0.00  0.00    +0.315 C 
ATOM     28  O   UNL     1       2.255   1.005   2.011  0.00  0.00    -0.250 OA
BRANCH  27  30
ATOM     29  C   UNL     1       2.475  -0.797  -0.668  0.00  0.00    +0.019 C 
ATOM     30  C   UNL     1       2.727   0.671  -0.359  0.00  0.00    +0.092 C 
ATOM     31  C   UNL     1       1.523   1.532  -0.732  0.00  0.00    +0.019 C 
ENDBRANCH  27  30
ENDBRANCH  26  27
ENDBRANCH   1  26
TORSDOF 8
