REMARK  Name = 
REMARK  22 active torsions:
REMARK  status: ('A' for Active; 'I' for Inactive)
REMARK    1  A    between atoms: C_1  and  C_2
REMARK    2  A    between atoms: C_2  and  C_3
REMARK    3  A    between atoms: C_3  and  C_4
REMARK    4  A    between atoms: C_4  and  C_5
REMARK    5  A    between atoms: C_5  and  C_6
REMARK    6  A    between atoms: C_6  and  C_7
REMARK    7  A    between atoms: C_7  and  C_8
REMARK    8  A    between atoms: C_8  and  C_9
REMARK    9  A    between atoms: C_9  and  C_10
REMARK   10  A    between atoms: C_10  and  C_11
REMARK   11  A    between atoms: C_11  and  C_12
REMARK   12  A    between atoms: C_12  and  C_13
REMARK   13  A    between atoms: C_13  and  C_14
REMARK   14  A    between atoms: C_14  and  C_15
REMARK   15  A    between atoms: C_15  and  C_16
REMARK   16  A    between atoms: C_16  and  O_18
REMARK   17  A    between atoms: O_18  and  C_19
REMARK   18  A    between atoms: C_20  and  C_32
REMARK   19  A    between atoms: C_24  and  O_31
REMARK   20  A    between atoms: C_26  and  O_30
REMARK   21  A    between atoms: C_34  and  O_39
REMARK   22  A    between atoms: C_35  and  O_38
REMARK                            x       y       z     vdW  Elec       q    Type
REMARK                         _______ _______ _______ _____ _____    ______ ____
ROOT
ATOM      1  C   UNL     1      18.542  -7.728   6.964  0.00  0.00    +0.221 A 
ATOM      2  C   UNL     1      19.316  -7.055   5.889  0.00  0.00    +0.239 A 
ATOM      3  O   UNL     1      18.746  -6.320   5.090  0.00  0.00    -0.283 OA
ATOM      4  C   UNL     1      20.774  -7.252   5.916  0.00  0.00    +0.109 A 
ATOM      5  C   UNL     1      21.337  -7.744   7.096  0.00  0.00    +0.147 A 
ATOM      6  C   UNL     1      22.728  -7.840   7.221  0.00  0.00    +0.092 A 
ATOM      7  C   UNL     1      23.538  -7.465   6.149  0.00  0.00    +0.124 A 
ATOM      8  C   UNL     1      22.987  -7.024   4.953  0.00  0.00    +0.091 A 
ATOM      9  O   UNL     1      20.584  -8.141   8.179  0.00  0.00    -0.451 OA
ATOM     10  C   UNL     1      21.602  -6.919   4.835  0.00  0.00    +0.135 A 
ATOM     11  C   UNL     1      19.194  -8.179   8.056  0.00  0.00    +0.182 A 
ENDROOT
BRANCH  11  12
ATOM     12  C   UNL     1      18.501  -8.759   9.247  0.00  0.00    +0.025 A 
ATOM     13  C   UNL     1      17.238  -8.295   9.668  0.00  0.00    +0.015 A 
ATOM     14  C   UNL     1      16.569  -8.859  10.759  0.00  0.00    +0.050 A 
ATOM     15  C   UNL     1      17.176  -9.876  11.469  0.00  0.00    +0.158 A 
ATOM     16  C   UNL     1      18.440 -10.331  11.106  0.00  0.00    +0.159 A 
ATOM     17  C   UNL     1      19.106  -9.785  10.005  0.00  0.00    +0.060 A 
BRANCH  16  18
ATOM     18  O   UNL     1      18.988 -11.326  11.870  0.00  0.00    -0.503 OA
ATOM     19  H   UNL     1      19.864 -11.543  11.511  0.00  0.00    +0.292 HD
ENDBRANCH  16  18
BRANCH  15  20
ATOM     20  O   UNL     1      16.523 -10.424  12.534  0.00  0.00    -0.503 OA
ATOM     21  H   UNL     1      17.131 -11.110  12.873  0.00  0.00    +0.292 HD
ENDBRANCH  15  20
ENDBRANCH  11  12
BRANCH  10  22
ATOM     22  O   UNL     1      21.070  -6.509   3.647  0.00  0.00    -0.506 OA
ATOM     23  H   UNL     1      21.772  -6.311   3.007  0.00  0.00    +0.292 HD
ENDBRANCH  10  22
BRANCH   7  24
ATOM     24  O   UNL     1      24.898  -7.512   6.230  0.00  0.00    -0.507 OA
ATOM     25  H   UNL     1      25.162  -7.746   7.135  0.00  0.00    +0.292 HD
ENDBRANCH   7  24
BRANCH   1  26
ATOM     26  O   UNL     1      17.143  -7.747   6.837  0.00  0.00    -0.418 OA
BRANCH  26  27
ATOM     27  C   UNL     1      16.697  -8.434   5.739  0.00  0.00    +0.313 C 
ATOM     28  O   UNL     1      17.378  -9.059   4.936  0.00  0.00    -0.250 OA
BRANCH  27  29
ATOM     29  C   UNL     1      15.190  -8.377   5.703  0.00  0.00    +0.121 C 
BRANCH  29  30
ATOM     30  C   UNL     1      14.680  -7.185   4.907  0.00  0.00    +0.011 C 
BRANCH  30  31
ATOM     31  C   UNL     1      13.150  -7.163   4.902  0.00  0.00    +0.001 C 
BRANCH  31  32
ATOM     32  C   UNL     1      12.611  -5.983   4.099  0.00  0.00    +0.000 C 
BRANCH  32  33
ATOM     33  C   UNL     1      11.083  -5.970   4.096  0.00  0.00    +0.000 C 
BRANCH  33  34
ATOM     34  C   UNL     1      10.555  -4.790   3.286  0.00  0.00    +0.000 C 
BRANCH  34  35
ATOM     35  C   UNL     1       9.030  -4.770   3.276  0.00  0.00    -0.000 C 
BRANCH  35  36
ATOM     36  C   UNL     1       8.509  -3.589   2.463  0.00  0.00    -0.000 C 
BRANCH  36  37
ATOM     37  C   UNL     1       6.984  -3.569   2.453  0.00  0.00    -0.000 C 
BRANCH  37  38
ATOM     38  C   UNL     1       6.460  -2.388   1.642  0.00  0.00    -0.000 C 
BRANCH  38  39
ATOM     39  C   UNL     1       4.935  -2.370   1.634  0.00  0.00    -0.000 C 
BRANCH  39  40
ATOM     40  C   UNL     1       4.407  -1.191   0.822  0.00  0.00    -0.000 C 
BRANCH  40  41
ATOM     41  C   UNL     1       2.880  -1.175   0.817  0.00  0.00    -0.000 C 
BRANCH  41  43
ATOM     42  C   UNL     1       0.825   0.017  -0.001  0.00  0.00    +0.004 C 
ATOM     43  C   UNL     1       2.344   0.001   0.004  0.00  0.00    -0.003 C 
ENDBRANCH  41  43
ENDBRANCH  40  41
ENDBRANCH  39  40
ENDBRANCH  38  39
ENDBRANCH  37  38
ENDBRANCH  36  37
ENDBRANCH  35  36
ENDBRANCH  34  35
ENDBRANCH  33  34
ENDBRANCH  32  33
ENDBRANCH  31  32
ENDBRANCH  30  31
ENDBRANCH  29  30
ENDBRANCH  27  29
ENDBRANCH  26  27
ENDBRANCH   1  26
TORSDOF 21
