REMARK  Name = 
REMARK  13 active torsions:
REMARK  status: ('A' for Active; 'I' for Inactive)
REMARK    1  A    between atoms: C_3  and  O_38
REMARK    2  A    between atoms: C_4  and  O_37
REMARK    3  A    between atoms: C_6  and  C_7
REMARK    4  A    between atoms: C_8  and  O_20
REMARK    5  A    between atoms: C_12  and  O_19
REMARK    6  A    between atoms: C_14  and  O_18
REMARK    7  A    between atoms: O_20  and  C_21
REMARK    8  A    between atoms: C_23  and  O_36
REMARK    9  A    between atoms: C_25  and  O_35
REMARK   10  A    between atoms: C_27  and  C_30
REMARK   11  A    between atoms: C_30  and  C_32
REMARK   12  A    between atoms: C_30  and  O_34
REMARK   13  A    between atoms: C_32  and  O_33
REMARK                            x       y       z     vdW  Elec       q    Type
REMARK                         _______ _______ _______ _____ _____    ______ ____
ROOT
ATOM      1  C   UNL     1      -1.244  -2.484  -0.235  0.00  0.00    +0.181 A 
ATOM      2  O   UNL     1      -0.575  -3.652   0.170  0.00  0.00    -0.451 OA
ATOM      3  C   UNL     1      -1.147  -4.876  -0.074  0.00  0.00    +0.147 A 
ATOM      4  C   UNL     1      -2.491  -5.005  -0.374  0.00  0.00    +0.109 A 
ATOM      5  C   UNL     1      -3.070  -6.264  -0.586  0.00  0.00    +0.135 A 
ATOM      6  C   UNL     1      -2.296  -7.410  -0.485  0.00  0.00    +0.091 A 
ATOM      7  C   UNL     1      -0.944  -7.277  -0.169  0.00  0.00    +0.124 A 
ATOM      8  C   UNL     1      -3.281  -3.788  -0.418  0.00  0.00    +0.238 A 
ATOM      9  O   UNL     1      -4.500  -3.888  -0.291  0.00  0.00    -0.283 OA
ATOM     10  C   UNL     1      -0.363  -6.020   0.029  0.00  0.00    +0.092 A 
ATOM     11  C   UNL     1      -2.547  -2.493  -0.628  0.00  0.00    +0.214 A 
ENDROOT
BRANCH   1  13
ATOM     12  C   UNL     1      -0.795   0.037  -0.434  0.00  0.00    +0.015 A 
ATOM     13  C   UNL     1      -0.339  -1.277  -0.208  0.00  0.00    +0.025 A 
ATOM     14  C   UNL     1       1.036  -1.422   0.083  0.00  0.00    +0.060 A 
ATOM     15  C   UNL     1       1.899  -0.324   0.037  0.00  0.00    +0.159 A 
ATOM     16  C   UNL     1       1.433   0.931  -0.316  0.00  0.00    +0.158 A 
ATOM     17  C   UNL     1       0.080   1.131  -0.518  0.00  0.00    +0.050 A 
BRANCH  15  18
ATOM     18  O   UNL     1       3.224  -0.493   0.330  0.00  0.00    -0.503 OA
ATOM     19  H   UNL     1       3.604   0.407   0.278  0.00  0.00    +0.292 HD
ENDBRANCH  15  18
BRANCH  16  20
ATOM     20  O   UNL     1       2.339   1.945  -0.455  0.00  0.00    -0.503 OA
ATOM     21  H   UNL     1       1.918   2.643  -0.988  0.00  0.00    +0.292 HD
ENDBRANCH  16  20
ENDBRANCH   1  13
BRANCH   5  22
ATOM     22  O   UNL     1      -4.393  -6.434  -0.899  0.00  0.00    -0.506 OA
ATOM     23  H   UNL     1      -4.833  -5.560  -0.804  0.00  0.00    +0.292 HD
ENDBRANCH   5  22
BRANCH   7  24
ATOM     24  O   UNL     1      -0.149  -8.376  -0.044  0.00  0.00    -0.507 OA
ATOM     25  H   UNL     1      -0.697  -9.177  -0.156  0.00  0.00    +0.292 HD
ENDBRANCH   7  24
BRANCH  11  26
ATOM     26  O   UNL     1      -3.193  -1.399  -1.209  0.00  0.00    -0.453 OA
BRANCH  26  27
ATOM     27  C   UNL     1      -4.399  -1.724  -1.900  0.00  0.00    +0.340 C 
ATOM     28  O   UNL     1      -4.221  -2.789  -2.850  0.00  0.00    -0.331 OA
ATOM     29  C   UNL     1      -5.379  -2.783  -3.716  0.00  0.00    +0.184 C 
ATOM     30  C   UNL     1      -6.049  -1.415  -3.512  0.00  0.00    +0.180 C 
ATOM     31  C   UNL     1      -4.992  -0.602  -2.751  0.00  0.00    +0.214 C 
BRANCH  30  32
ATOM     32  O   UNL     1      -6.510  -0.775  -4.686  0.00  0.00    -0.386 OA
ATOM     33  H   UNL     1      -5.732  -0.634  -5.259  0.00  0.00    +0.210 HD
ENDBRANCH  30  32
BRANCH  31  34
ATOM     34  O   UNL     1      -5.559   0.467  -1.995  0.00  0.00    -0.383 OA
ATOM     35  H   UNL     1      -6.369   0.151  -1.557  0.00  0.00    +0.210 HD
ENDBRANCH  31  34
BRANCH  29  36
ATOM     36  C   UNL     1      -4.923  -3.176  -5.127  0.00  0.00    +0.171 C 
BRANCH  36  37
ATOM     37  O   UNL     1      -4.218  -2.088  -5.748  0.00  0.00    -0.387 OA
ATOM     38  H   UNL     1      -3.534  -2.494  -6.314  0.00  0.00    +0.210 HD
ENDBRANCH  36  37
BRANCH  36  39
ATOM     39  C   UNL     1      -6.089  -3.584  -6.029  0.00  0.00    +0.189 C 
BRANCH  39  40
ATOM     40  O   UNL     1      -5.576  -4.222  -7.201  0.00  0.00    -0.392 OA
ATOM     41  H   UNL     1      -5.033  -3.564  -7.667  0.00  0.00    +0.210 HD
ENDBRANCH  39  40
ENDBRANCH  36  39
ENDBRANCH  29  36
ENDBRANCH  26  27
ENDBRANCH  11  26
TORSDOF 13
