REMARK  Name = 
REMARK  14 active torsions:
REMARK  status: ('A' for Active; 'I' for Inactive)
REMARK    1  A    between atoms: C_3  and  O_31
REMARK    2  A    between atoms: C_4  and  O_30
REMARK    3  A    between atoms: C_6  and  C_7
REMARK    4  A    between atoms: C_8  and  O_20
REMARK    5  A    between atoms: C_12  and  O_19
REMARK    6  A    between atoms: C_14  and  O_18
REMARK    7  A    between atoms: O_20  and  C_21
REMARK    8  A    between atoms: C_21  and  C_22
REMARK    9  A    between atoms: C_22  and  C_23
REMARK   10  A    between atoms: C_22  and  O_29
REMARK   11  A    between atoms: C_23  and  C_24
REMARK   12  A    between atoms: C_23  and  O_28
REMARK   13  A    between atoms: C_24  and  C_25
REMARK   14  A    between atoms: C_24  and  O_27
REMARK                            x       y       z     vdW  Elec       q    Type
REMARK                         _______ _______ _______ _____ _____    ______ ____
ROOT
ATOM      1  C   UNL     1      -1.422  -2.560  -0.162  0.00  0.00    +0.181 A 
ATOM      2  O   UNL     1      -0.695  -3.706   0.224  0.00  0.00    -0.451 OA
ATOM      3  C   UNL     1      -1.179  -4.960  -0.024  0.00  0.00    +0.147 A 
ATOM      4  C   UNL     1      -2.482  -5.171  -0.415  0.00  0.00    +0.109 A 
ATOM      5  C   UNL     1      -2.976  -6.467  -0.629  0.00  0.00    +0.135 A 
ATOM      6  C   UNL     1      -2.155  -7.565  -0.451  0.00  0.00    +0.091 A 
ATOM      7  C   UNL     1      -0.841  -7.349  -0.055  0.00  0.00    +0.124 A 
ATOM      8  C   UNL     1      -3.327  -4.013  -0.569  0.00  0.00    +0.238 A 
ATOM      9  O   UNL     1      -4.529  -4.255  -0.679  0.00  0.00    -0.283 OA
ATOM     10  C   UNL     1      -0.344  -6.060   0.157  0.00  0.00    +0.092 A 
ATOM     11  C   UNL     1      -2.705  -2.635  -0.622  0.00  0.00    +0.211 A 
ENDROOT
BRANCH   1  13
ATOM     12  C   UNL     1      -0.905  -0.041  -0.458  0.00  0.00    +0.015 A 
ATOM     13  C   UNL     1      -0.549  -1.330  -0.018  0.00  0.00    +0.025 A 
ATOM     14  C   UNL     1       0.735  -1.453   0.572  0.00  0.00    +0.060 A 
ATOM     15  C   UNL     1       1.626  -0.381   0.618  0.00  0.00    +0.159 A 
ATOM     16  C   UNL     1       1.283   0.846   0.078  0.00  0.00    +0.158 A 
ATOM     17  C   UNL     1       0.006   1.035  -0.430  0.00  0.00    +0.050 A 
BRANCH  15  18
ATOM     18  O   UNL     1       2.859  -0.553   1.182  0.00  0.00    -0.503 OA
ATOM     19  H   UNL     1       3.284   0.327   1.127  0.00  0.00    +0.292 HD
ENDBRANCH  15  18
BRANCH  16  20
ATOM     20  O   UNL     1       2.234   1.825   0.053  0.00  0.00    -0.503 OA
ATOM     21  H   UNL     1       1.972   2.481  -0.617  0.00  0.00    +0.292 HD
ENDBRANCH  16  20
ENDBRANCH   1  13
BRANCH   5  22
ATOM     22  O   UNL     1      -4.265  -6.728  -1.016  0.00  0.00    -0.506 OA
ATOM     23  H   UNL     1      -4.761  -5.875  -0.997  0.00  0.00    +0.292 HD
ENDBRANCH   5  22
BRANCH   7  24
ATOM     24  O   UNL     1       0.002  -8.407   0.134  0.00  0.00    -0.507 OA
ATOM     25  H   UNL     1      -0.493  -9.227  -0.035  0.00  0.00    +0.292 HD
ENDBRANCH   7  24
BRANCH  11  26
ATOM     26  O   UNL     1      -3.441  -1.536  -1.129  0.00  0.00    -0.482 OA
BRANCH  26  27
ATOM     27  C   UNL     1      -4.684  -1.935  -1.742  0.00  0.00    +0.263 C 
BRANCH  27  28
ATOM     28  C   UNL     1      -5.576  -0.856  -2.356  0.00  0.00    +0.183 C 
BRANCH  28  29
ATOM     29  O   UNL     1      -4.973  -0.197  -3.459  0.00  0.00    -0.386 OA
ATOM     30  H   UNL     1      -4.048  -0.011  -3.213  0.00  0.00    +0.210 HD
ENDBRANCH  28  29
BRANCH  28  31
ATOM     31  C   UNL     1      -6.108   0.162  -1.337  0.00  0.00    +0.182 C 
BRANCH  31  32
ATOM     32  O   UNL     1      -6.635  -0.464  -0.155  0.00  0.00    -0.386 OA
ATOM     33  H   UNL     1      -7.368  -1.057  -0.434  0.00  0.00    +0.210 HD
ENDBRANCH  31  32
BRANCH  31  34
ATOM     34  C   UNL     1      -7.189   1.071  -1.953  0.00  0.00    +0.208 C 
BRANCH  34  35
ATOM     35  O   UNL     1      -7.618   2.026  -0.982  0.00  0.00    -0.382 OA
ATOM     36  H   UNL     1      -7.716   1.524  -0.146  0.00  0.00    +0.210 HD
ENDBRANCH  34  35
BRANCH  34  37
ATOM     37  C   UNL     1      -8.419   0.286  -2.397  0.00  0.00    +0.257 C 
ATOM     38  O   UNL     1      -8.747  -0.793  -1.906  0.00  0.00    -0.298 OA
ENDBRANCH  34  37
ENDBRANCH  31  34
ENDBRANCH  28  31
ENDBRANCH  27  28
ENDBRANCH  26  27
ENDBRANCH  11  26
TORSDOF 14
