REMARK  Name = 
REMARK  16 active torsions:
REMARK  status: ('A' for Active; 'I' for Inactive)
REMARK    1  A    between atoms: C_2  and  O_51
REMARK    2  A    between atoms: C_4  and  O_50
REMARK    3  A    between atoms: C_6  and  O_49
REMARK    4  A    between atoms: C_8  and  O_11
REMARK    5  A    between atoms: O_11  and  C_12
REMARK    6  A    between atoms: C_12  and  C_13
REMARK    7  A    between atoms: C_15  and  O_48
REMARK    8  A    between atoms: C_17  and  O_47
REMARK    9  A    between atoms: C_19  and  O_46
REMARK   10  A    between atoms: C_21  and  O_24
REMARK   11  A    between atoms: O_24  and  C_25
REMARK   12  A    between atoms: C_26  and  C_38
REMARK   13  A    between atoms: C_30  and  O_37
REMARK   14  A    between atoms: C_32  and  O_36
REMARK   15  A    between atoms: C_40  and  O_45
REMARK   16  A    between atoms: C_41  and  O_44
REMARK                            x       y       z     vdW  Elec       q    Type
REMARK                         _______ _______ _______ _____ _____    ______ ____
ROOT
ATOM      1  C   UNL     1       3.264  -3.878   0.263  0.00  0.00    +0.179 C 
ATOM      2  O   UNL     1       4.519  -3.490  -0.324  0.00  0.00    -0.331 OA
ATOM      3  C   UNL     1       4.399  -3.361  -1.747  0.00  0.00    +0.340 C 
ATOM      4  C   UNL     1       4.100  -4.740  -2.381  0.00  0.00    +0.214 C 
ATOM      5  C   UNL     1       2.817  -5.299  -1.758  0.00  0.00    +0.180 C 
ATOM      6  C   UNL     1       2.907  -5.289  -0.226  0.00  0.00    +0.177 C 
ENDROOT
BRANCH   6   7
ATOM      7  O   UNL     1       1.655  -5.753   0.288  0.00  0.00    -0.386 OA
ATOM      8  H   UNL     1       1.821  -6.135   1.169  0.00  0.00    +0.210 HD
ENDBRANCH   6   7
BRANCH   5   9
ATOM      9  O   UNL     1       2.580  -6.647  -2.189  0.00  0.00    -0.386 OA
ATOM     10  H   UNL     1       1.809  -6.949  -1.672  0.00  0.00    +0.210 HD
ENDBRANCH   5   9
BRANCH   4  11
ATOM     11  O   UNL     1       3.984  -4.664  -3.812  0.00  0.00    -0.383 OA
ATOM     12  H   UNL     1       3.246  -4.066  -4.027  0.00  0.00    +0.210 HD
ENDBRANCH   4  11
BRANCH   3  13
ATOM     13  O   UNL     1       5.632  -2.903  -2.298  0.00  0.00    -0.453 OA
BRANCH  13  14
ATOM     14  C   UNL     1       5.762  -1.577  -2.666  0.00  0.00    +0.214 A 
ATOM     15  C   UNL     1       4.606  -0.810  -3.220  0.00  0.00    +0.238 A 
ATOM     16  O   UNL     1       3.581  -1.376  -3.588  0.00  0.00    -0.283 OA
ATOM     17  C   UNL     1       4.781   0.644  -3.380  0.00  0.00    +0.109 A 
ATOM     18  C   UNL     1       6.078   1.148  -3.308  0.00  0.00    +0.147 A 
ATOM     19  C   UNL     1       6.316   2.506  -3.555  0.00  0.00    +0.092 A 
ATOM     20  C   UNL     1       5.251   3.350  -3.867  0.00  0.00    +0.124 A 
ATOM     21  C   UNL     1       3.948   2.861  -3.918  0.00  0.00    +0.091 A 
ATOM     22  O   UNL     1       7.171   0.361  -3.033  0.00  0.00    -0.451 OA
ATOM     23  C   UNL     1       3.714   1.512  -3.667  0.00  0.00    +0.135 A 
ATOM     24  C   UNL     1       6.972  -0.974  -2.690  0.00  0.00    +0.181 A 
BRANCH  24  25
ATOM     25  C   UNL     1       8.236  -1.710  -2.370  0.00  0.00    +0.025 A 
ATOM     26  C   UNL     1       9.299  -1.075  -1.699  0.00  0.00    +0.015 A 
ATOM     27  C   UNL     1      10.470  -1.775  -1.364  0.00  0.00    +0.050 A 
ATOM     28  C   UNL     1      10.584  -3.116  -1.697  0.00  0.00    +0.158 A 
ATOM     29  C   UNL     1       9.567  -3.754  -2.391  0.00  0.00    +0.159 A 
ATOM     30  C   UNL     1       8.417  -3.058  -2.751  0.00  0.00    +0.060 A 
BRANCH  29  31
ATOM     31  O   UNL     1       9.733  -5.079  -2.693  0.00  0.00    -0.503 OA
ATOM     32  H   UNL     1       8.921  -5.390  -3.131  0.00  0.00    +0.292 HD
ENDBRANCH  29  31
BRANCH  28  33
ATOM     33  O   UNL     1      11.703  -3.812  -1.339  0.00  0.00    -0.503 OA
ATOM     34  H   UNL     1      11.533  -4.724  -1.654  0.00  0.00    +0.292 HD
ENDBRANCH  28  33
ENDBRANCH  24  25
BRANCH  23  35
ATOM     35  O   UNL     1       2.424   1.058  -3.690  0.00  0.00    -0.506 OA
ATOM     36  H   UNL     1       1.831   1.749  -4.026  0.00  0.00    +0.292 HD
ENDBRANCH  23  35
BRANCH  20  37
ATOM     37  O   UNL     1       5.429   4.676  -4.133  0.00  0.00    -0.507 OA
ATOM     38  H   UNL     1       6.377   4.877  -4.096  0.00  0.00    +0.292 HD
ENDBRANCH  20  37
ENDBRANCH  13  14
ENDBRANCH   3  13
BRANCH   1  39
ATOM     39  C   UNL     1       3.388  -3.833   1.789  0.00  0.00    +0.197 C 
BRANCH  39  40
ATOM     40  O   UNL     1       3.588  -2.482   2.215  0.00  0.00    -0.346 OA
BRANCH  40  43
ATOM     41  C   UNL     1       2.404  -2.592   5.634  0.00  0.00    +0.197 C 
ATOM     42  O   UNL     1       2.430  -2.713   4.212  0.00  0.00    -0.346 OA
ATOM     43  C   UNL     1       3.701  -2.386   3.639  0.00  0.00    +0.281 C 
ATOM     44  C   UNL     1       4.149  -0.950   4.001  0.00  0.00    +0.201 C 
ATOM     45  C   UNL     1       3.985  -0.688   5.502  0.00  0.00    +0.178 C 
ATOM     46  C   UNL     1       2.612  -1.130   6.011  0.00  0.00    +0.171 C 
BRANCH  46  47
ATOM     47  O   UNL     1       1.584  -0.319   5.430  0.00  0.00    -0.387 OA
ATOM     48  H   UNL     1       1.374  -0.696   4.551  0.00  0.00    +0.210 HD
ENDBRANCH  46  47
BRANCH  45  49
ATOM     49  O   UNL     1       4.251   0.698   5.762  0.00  0.00    -0.386 OA
ATOM     50  H   UNL     1       3.569   1.020   6.381  0.00  0.00    +0.210 HD
ENDBRANCH  45  49
BRANCH  44  51
ATOM     51  O   UNL     1       5.538  -0.756   3.670  0.00  0.00    -0.384 OA
ATOM     52  H   UNL     1       5.810   0.050   4.152  0.00  0.00    +0.210 HD
ENDBRANCH  44  51
ENDBRANCH  40  43
ENDBRANCH  39  40
ENDBRANCH   1  39
TORSDOF 16
