REMARK  Name = 
REMARK  8 active torsions:
REMARK  status: ('A' for Active; 'I' for Inactive)
REMARK    1  A    between atoms: C_2  and  C_13
REMARK    2  A    between atoms: C_4  and  S_9
REMARK    3  A    between atoms: C_5  and  O_8
REMARK    4  A    between atoms: C_6  and  O_7
REMARK    5  A    between atoms: S_9  and  O_12
REMARK    6  A    between atoms: C_14  and  O_26
REMARK    7  A    between atoms: C_18  and  O_25
REMARK    8  A    between atoms: C_20  and  O_24
REMARK                            x       y       z     vdW  Elec       q    Type
REMARK                         _______ _______ _______ _____ _____    ______ ____
ROOT
ATOM      1  C   UNL     1       1.702   2.379  -0.025  0.00  0.00    +0.181 A 
ATOM      2  O   UNL     1       0.975   3.571   0.013  0.00  0.00    -0.451 OA
ATOM      3  C   UNL     1       1.643   4.769   0.007  0.00  0.00    +0.147 A 
ATOM      4  C   UNL     1       3.028   4.860  -0.013  0.00  0.00    +0.109 A 
ATOM      5  C   UNL     1       3.655   6.112  -0.001  0.00  0.00    +0.135 A 
ATOM      6  C   UNL     1       2.894   7.280   0.016  0.00  0.00    +0.091 A 
ATOM      7  C   UNL     1       1.509   7.179   0.025  0.00  0.00    +0.124 A 
ATOM      8  C   UNL     1       3.806   3.623  -0.042  0.00  0.00    +0.238 A 
ATOM      9  O   UNL     1       5.031   3.673  -0.026  0.00  0.00    -0.283 OA
ATOM     10  C   UNL     1       0.875   5.937   0.027  0.00  0.00    +0.092 A 
ATOM     11  C   UNL     1       3.053   2.337  -0.052  0.00  0.00    +0.208 A 
ENDROOT
BRANCH   1  17
ATOM     12  C   UNL     1       1.138  -0.003  -0.725  0.00  0.00    +0.061 A 
ATOM     13  C   UNL     1       0.263  -1.089  -0.722  0.00  0.00    +0.161 A 
ATOM     14  C   UNL     1      -0.973  -1.033  -0.083  0.00  0.00    +0.186 A 
ATOM     15  C   UNL     1      -1.308   0.127   0.598  0.00  0.00    +0.162 A 
ATOM     16  C   UNL     1      -0.427   1.225   0.626  0.00  0.00    +0.045 A 
ATOM     17  C   UNL     1       0.816   1.178  -0.036  0.00  0.00    +0.027 A 
BRANCH  15  18
ATOM     18  S   UNL     1      -2.869   0.291   1.402  0.00  0.00    +0.113 S 
ATOM     19  O   UNL     1      -2.640   0.192   2.824  0.00  0.00    -0.142 OA
ATOM     20  O   UNL     1      -3.787  -0.588   0.706  0.00  0.00    -0.142 OA
BRANCH  18  21
ATOM     21  O   UNL     1      -3.351   1.789   1.059  0.00  0.00    -0.250 OA
ATOM     22  H   UNL     1      -4.181   1.737   0.539  0.00  0.00    +0.245 HD
ENDBRANCH  18  21
ENDBRANCH  15  18
BRANCH  13  23
ATOM     23  O   UNL     1       0.634  -2.229  -1.378  0.00  0.00    -0.503 OA
ATOM     24  H   UNL     1      -0.102  -2.859  -1.236  0.00  0.00    +0.292 HD
ENDBRANCH  13  23
BRANCH  14  25
ATOM     25  O   UNL     1      -1.760  -2.147  -0.204  0.00  0.00    -0.502 OA
ATOM     26  H   UNL     1      -2.688  -1.943   0.047  0.00  0.00    +0.292 HD
ENDBRANCH  14  25
ENDBRANCH   1  17
BRANCH   5  27
ATOM     27  O   UNL     1       5.016   6.268   0.002  0.00  0.00    -0.506 OA
ATOM     28  H   UNL     1       5.425   5.371   0.002  0.00  0.00    +0.292 HD
ENDBRANCH   5  27
BRANCH   7  29
ATOM     29  O   UNL     1       0.725   8.295   0.037  0.00  0.00    -0.507 OA
ATOM     30  H   UNL     1       1.298   9.080   0.019  0.00  0.00    +0.292 HD
ENDBRANCH   7  29
BRANCH  11  31
ATOM     31  O   UNL     1       3.821   1.189  -0.056  0.00  0.00    -0.501 OA
ATOM     32  H   UNL     1       3.394   0.528   0.513  0.00  0.00    +0.292 HD
ENDBRANCH  11  31
TORSDOF 8
