REMARK  Name = 
REMARK  23 active torsions:
REMARK  status: ('A' for Active; 'I' for Inactive)
REMARK    1  A    between atoms: C_1  and  C_2
REMARK    2  A    between atoms: C_4  and  O_69
REMARK    3  A    between atoms: C_6  and  O_68
REMARK    4  A    between atoms: C_8  and  O_67
REMARK    5  A    between atoms: C_10  and  O_13
REMARK    6  A    between atoms: O_13  and  C_14
REMARK    7  A    between atoms: C_16  and  O_66
REMARK    8  A    between atoms: C_18  and  O_65
REMARK    9  A    between atoms: C_20  and  C_63
REMARK   10  A    between atoms: C_23  and  O_25
REMARK   11  A    between atoms: O_25  and  C_26
REMARK   12  A    between atoms: C_27  and  C_55
REMARK   13  A    between atoms: C_31  and  O_38
REMARK   14  A    between atoms: C_33  and  O_37
REMARK   15  A    between atoms: O_38  and  C_39
REMARK   16  A    between atoms: C_41  and  O_54
REMARK   17  A    between atoms: C_43  and  O_53
REMARK   18  A    between atoms: C_45  and  O_52
REMARK   19  A    between atoms: C_47  and  C_50
REMARK   20  A    between atoms: C_50  and  O_51
REMARK   21  A    between atoms: C_57  and  O_62
REMARK   22  A    between atoms: C_58  and  O_61
REMARK   23  A    between atoms: C_63  and  O_64
REMARK                            x       y       z     vdW  Elec       q    Type
REMARK                         _______ _______ _______ _____ _____    ______ ____
ROOT
ATOM      1  C   UNL     1       0.461   0.620  -2.518  0.00  0.00    +0.214 A 
ATOM      2  C   UNL     1       0.154  -0.822  -2.216  0.00  0.00    +0.238 A 
ATOM      3  O   UNL     1       0.398  -1.717  -3.017  0.00  0.00    -0.283 OA
ATOM      4  C   UNL     1      -0.409  -1.094  -0.880  0.00  0.00    +0.109 A 
ATOM      5  C   UNL     1      -0.982  -0.026  -0.203  0.00  0.00    +0.147 A 
ATOM      6  C   UNL     1      -1.462  -0.195   1.108  0.00  0.00    +0.093 A 
ATOM      7  C   UNL     1      -1.380  -1.441   1.752  0.00  0.00    +0.131 A 
ATOM      8  C   UNL     1      -0.841  -2.522   1.060  0.00  0.00    +0.092 A 
ATOM      9  O   UNL     1      -1.129   1.210  -0.789  0.00  0.00    -0.451 OA
ATOM     10  C   UNL     1      -0.356  -2.344  -0.249  0.00  0.00    +0.135 A 
ATOM     11  C   UNL     1      -0.286   1.540  -1.857  0.00  0.00    +0.181 A 
ENDROOT
BRANCH  11  12
ATOM     12  C   UNL     1      -0.305   3.019  -2.082  0.00  0.00    +0.025 A 
ATOM     13  C   UNL     1       0.442   3.832  -1.212  0.00  0.00    +0.015 A 
ATOM     14  C   UNL     1       0.264   5.223  -1.181  0.00  0.00    +0.050 A 
ATOM     15  C   UNL     1      -0.656   5.815  -2.030  0.00  0.00    +0.158 A 
ATOM     16  C   UNL     1      -1.368   5.042  -2.942  0.00  0.00    +0.159 A 
ATOM     17  C   UNL     1      -1.208   3.647  -2.972  0.00  0.00    +0.060 A 
BRANCH  16  18
ATOM     18  O   UNL     1      -2.241   5.711  -3.760  0.00  0.00    -0.503 OA
ATOM     19  H   UNL     1      -2.470   5.135  -4.510  0.00  0.00    +0.292 HD
ENDBRANCH  16  18
BRANCH  15  20
ATOM     20  O   UNL     1      -0.872   7.162  -1.943  0.00  0.00    -0.503 OA
ATOM     21  H   UNL     1      -1.611   7.344  -2.558  0.00  0.00    +0.292 HD
ENDBRANCH  15  20
ENDBRANCH  11  12
BRANCH  10  22
ATOM     22  O   UNL     1       0.190  -3.412  -0.905  0.00  0.00    -0.506 OA
ATOM     23  H   UNL     1       0.159  -4.211  -0.355  0.00  0.00    +0.292 HD
ENDBRANCH  10  22
BRANCH   7  24
ATOM     24  O   UNL     1      -1.927  -1.507   3.006  0.00  0.00    -0.461 OA
BRANCH  24  25
ATOM     25  C   UNL     1      -1.376  -2.410   3.984  0.00  0.00    +0.339 C 
ATOM     26  O   UNL     1      -1.880  -3.745   3.921  0.00  0.00    -0.331 OA
ATOM     27  C   UNL     1      -3.248  -3.960   4.309  0.00  0.00    +0.179 C 
ATOM     28  C   UNL     1      -3.907  -2.999   5.333  0.00  0.00    +0.177 C 
ATOM     29  C   UNL     1      -3.153  -1.693   5.621  0.00  0.00    +0.180 C 
ATOM     30  C   UNL     1      -1.645  -1.851   5.396  0.00  0.00    +0.214 C 
BRANCH  30  31
ATOM     31  O   UNL     1      -1.074  -2.685   6.418  0.00  0.00    -0.383 OA
ATOM     32  H   UNL     1      -1.661  -3.459   6.548  0.00  0.00    +0.210 HD
ENDBRANCH  30  31
BRANCH  29  33
ATOM     33  O   UNL     1      -3.738  -0.639   4.855  0.00  0.00    -0.386 OA
ATOM     34  H   UNL     1      -3.034  -0.035   4.558  0.00  0.00    +0.210 HD
ENDBRANCH  29  33
BRANCH  28  35
ATOM     35  O   UNL     1      -3.984  -3.717   6.586  0.00  0.00    -0.386 OA
ATOM     36  H   UNL     1      -4.599  -3.222   7.162  0.00  0.00    +0.210 HD
ENDBRANCH  28  35
BRANCH  27  37
ATOM     37  C   UNL     1      -4.061  -4.172   3.027  0.00  0.00    +0.190 C 
BRANCH  37  38
ATOM     38  O   UNL     1      -3.411  -5.157   2.211  0.00  0.00    -0.392 OA
ATOM     39  H   UNL     1      -2.522  -5.292   2.593  0.00  0.00    +0.210 HD
ENDBRANCH  37  38
ENDBRANCH  27  37
ENDBRANCH  24  25
ENDBRANCH   7  24
BRANCH   1  40
ATOM     40  O   UNL     1       1.442   0.962  -3.436  0.00  0.00    -0.453 OA
BRANCH  40  42
ATOM     41  C   UNL     1       3.245  -0.636  -2.491  0.00  0.00    +0.221 C 
ATOM     42  C   UNL     1       2.556   0.062  -3.721  0.00  0.00    +0.340 C 
ATOM     43  O   UNL     1       2.260  -0.851  -4.799  0.00  0.00    -0.331 OA
ATOM     44  C   UNL     1       3.414  -1.590  -5.245  0.00  0.00    +0.179 C 
ATOM     45  C   UNL     1       3.923  -2.506  -4.118  0.00  0.00    +0.177 C 
ATOM     46  C   UNL     1       4.347  -1.607  -2.966  0.00  0.00    +0.180 C 
BRANCH  46  47
ATOM     47  O   UNL     1       4.880  -2.335  -1.857  0.00  0.00    -0.386 OA
ATOM     48  H   UNL     1       5.038  -1.668  -1.160  0.00  0.00    +0.210 HD
ENDBRANCH  46  47
BRANCH  45  49
ATOM     49  O   UNL     1       2.945  -3.469  -3.739  0.00  0.00    -0.386 OA
ATOM     50  H   UNL     1       2.093  -2.999  -3.546  0.00  0.00    +0.210 HD
ENDBRANCH  45  49
BRANCH  44  51
ATOM     51  C   UNL     1       3.104  -2.404  -6.505  0.00  0.00    +0.190 C 
BRANCH  51  52
ATOM     52  O   UNL     1       4.309  -2.939  -7.058  0.00  0.00    -0.392 OA
ATOM     53  H   UNL     1       4.544  -3.727  -6.533  0.00  0.00    +0.210 HD
ENDBRANCH  51  52
ENDBRANCH  44  51
BRANCH  41  54
ATOM     54  O   UNL     1       3.731   0.247  -1.441  0.00  0.00    -0.337 OA
BRANCH  54  58
ATOM     55  C   UNL     1       6.324   1.764  -4.349  0.00  0.00    +0.041 C 
ATOM     56  C   UNL     1       6.837   1.301  -2.990  0.00  0.00    +0.149 C 
ATOM     57  O   UNL     1       5.867   0.511  -2.311  0.00  0.00    -0.343 OA
ATOM     58  C   UNL     1       4.714   1.198  -1.844  0.00  0.00    +0.282 C 
ATOM     59  C   UNL     1       5.170   2.106  -0.689  0.00  0.00    +0.201 C 
ATOM     60  C   UNL     1       6.227   3.090  -1.244  0.00  0.00    +0.179 C 
ATOM     61  C   UNL     1       7.351   2.375  -2.023  0.00  0.00    +0.174 C 
BRANCH  61  62
ATOM     62  O   UNL     1       8.197   1.715  -1.063  0.00  0.00    -0.387 OA
ATOM     63  H   UNL     1       7.814   0.838  -0.866  0.00  0.00    +0.210 HD
ENDBRANCH  61  62
BRANCH  60  64
ATOM     64  O   UNL     1       5.571   4.101  -2.030  0.00  0.00    -0.386 OA
ATOM     65  H   UNL     1       5.205   3.727  -2.847  0.00  0.00    +0.210 HD
ENDBRANCH  60  64
BRANCH  59  66
ATOM     66  O   UNL     1       4.073   2.828  -0.117  0.00  0.00    -0.384 OA
ATOM     67  H   UNL     1       4.071   3.712  -0.533  0.00  0.00    +0.210 HD
ENDBRANCH  59  66
ENDBRANCH  54  58
ENDBRANCH  41  54
ENDBRANCH  40  42
ENDBRANCH   1  40
TORSDOF 22
