REMARK  Name = 
REMARK  8 active torsions:
REMARK  status: ('A' for Active; 'I' for Inactive)
REMARK    1  A    between atoms: C_1  and  O_2
REMARK    2  A    between atoms: O_2  and  C_3
REMARK    3  A    between atoms: C_4  and  O_23
REMARK    4  A    between atoms: C_6  and  C_9
REMARK    5  A    between atoms: C_10  and  O_22
REMARK    6  A    between atoms: C_14  and  O_21
REMARK    7  A    between atoms: C_16  and  O_20
REMARK    8  A    between atoms: O_23  and  C_24
REMARK                            x       y       z     vdW  Elec       q    Type
REMARK                         _______ _______ _______ _____ _____    ______ ____
ROOT
ATOM      1  C   UNL     1       4.262  -3.846  -3.912  0.00  0.00    +0.181 A 
ATOM      2  O   UNL     1       4.557  -3.296  -5.159  0.00  0.00    -0.451 OA
ATOM      3  C   UNL     1       4.773  -4.138  -6.221  0.00  0.00    +0.147 A 
ATOM      4  C   UNL     1       4.627  -5.518  -6.132  0.00  0.00    +0.109 A 
ATOM      5  C   UNL     1       4.789  -6.322  -7.267  0.00  0.00    +0.135 A 
ATOM      6  C   UNL     1       5.139  -5.752  -8.486  0.00  0.00    +0.091 A 
ATOM      7  C   UNL     1       5.323  -4.375  -8.558  0.00  0.00    +0.124 A 
ATOM      8  C   UNL     1       4.331  -6.105  -4.826  0.00  0.00    +0.238 A 
ATOM      9  O   UNL     1       4.178  -7.320  -4.721  0.00  0.00    -0.283 OA
ATOM     10  C   UNL     1       5.135  -3.562  -7.440  0.00  0.00    +0.092 A 
ATOM     11  C   UNL     1       4.228  -5.175  -3.672  0.00  0.00    +0.208 A 
ENDROOT
BRANCH   1  15
ATOM     12  C   UNL     1       3.052  -0.890  -1.011  0.00  0.00    +0.162 A 
ATOM     13  C   UNL     1       2.478  -2.158  -1.027  0.00  0.00    +0.050 A 
ATOM     14  C   UNL     1       2.871  -3.094  -1.978  0.00  0.00    +0.015 A 
ATOM     15  C   UNL     1       3.907  -2.829  -2.886  0.00  0.00    +0.025 A 
ATOM     16  C   UNL     1       4.510  -1.557  -2.843  0.00  0.00    +0.061 A 
ATOM     17  C   UNL     1       4.085  -0.583  -1.919  0.00  0.00    +0.162 A 
BRANCH  12  19
ATOM     18  C   UNL     1       1.288   0.025   0.263  0.00  0.00    +0.277 C 
ATOM     19  O   UNL     1       2.661   0.082  -0.121  0.00  0.00    -0.491 OA
ENDBRANCH  12  19
BRANCH  17  20
ATOM     20  O   UNL     1       4.585   0.693  -1.838  0.00  0.00    -0.491 OA
ATOM     21  C   UNL     1       5.591   1.083  -2.761  0.00  0.00    +0.277 C 
ENDBRANCH  17  20
ENDBRANCH   1  15
BRANCH   5  22
ATOM     22  O   UNL     1       4.616  -7.680  -7.250  0.00  0.00    -0.506 OA
ATOM     23  H   UNL     1       4.371  -7.947  -6.333  0.00  0.00    +0.292 HD
ENDBRANCH   5  22
BRANCH   7  24
ATOM     24  O   UNL     1       5.690  -3.776  -9.726  0.00  0.00    -0.507 OA
ATOM     25  H   UNL     1       5.792  -4.461 -10.410  0.00  0.00    +0.292 HD
ENDBRANCH   7  24
BRANCH  11  26
ATOM     26  O   UNL     1       4.058  -5.760  -2.427  0.00  0.00    -0.501 OA
ATOM     27  H   UNL     1       4.353  -5.129  -1.748  0.00  0.00    +0.292 HD
ENDBRANCH  11  26
TORSDOF 6
