REMARK  Name = 
REMARK  16 active torsions:
REMARK  status: ('A' for Active; 'I' for Inactive)
REMARK    1  A    between atoms: C_2  and  O_51
REMARK    2  A    between atoms: C_4  and  O_50
REMARK    3  A    between atoms: C_6  and  O_49
REMARK    4  A    between atoms: C_8  and  O_11
REMARK    5  A    between atoms: O_11  and  C_12
REMARK    6  A    between atoms: C_14  and  O_48
REMARK    7  A    between atoms: C_16  and  O_47
REMARK    8  A    between atoms: C_18  and  C_45
REMARK    9  A    between atoms: C_21  and  O_23
REMARK   10  A    between atoms: O_23  and  C_24
REMARK   11  A    between atoms: C_25  and  C_37
REMARK   12  A    between atoms: C_29  and  O_36
REMARK   13  A    between atoms: C_31  and  O_35
REMARK   14  A    between atoms: C_39  and  O_44
REMARK   15  A    between atoms: C_40  and  O_43
REMARK   16  A    between atoms: C_45  and  O_46
REMARK                            x       y       z     vdW  Elec       q    Type
REMARK                         _______ _______ _______ _____ _____    ______ ____
ROOT
ATOM      1  C   UNL     1       2.401  -2.456  -0.425  0.00  0.00    +0.221 C 
ATOM      2  C   UNL     1       2.959  -1.748  -1.703  0.00  0.00    +0.340 C 
ATOM      3  O   UNL     1       2.092  -2.160  -2.790  0.00  0.00    -0.331 OA
ATOM      4  C   UNL     1       2.248  -3.571  -3.088  0.00  0.00    +0.179 C 
ATOM      5  C   UNL     1       1.836  -4.452  -1.899  0.00  0.00    +0.177 C 
ATOM      6  C   UNL     1       2.560  -3.971  -0.660  0.00  0.00    +0.180 C 
ENDROOT
BRANCH   6   7
ATOM      7  O   UNL     1       2.152  -4.744   0.475  0.00  0.00    -0.386 OA
ATOM      8  H   UNL     1       2.719  -4.426   1.207  0.00  0.00    +0.210 HD
ENDBRANCH   6   7
BRANCH   5   9
ATOM      9  O   UNL     1       2.238  -5.816  -2.115  0.00  0.00    -0.386 OA
ATOM     10  H   UNL     1       2.178  -6.239  -1.234  0.00  0.00    +0.210 HD
ENDBRANCH   5   9
BRANCH   4  11
ATOM     11  C   UNL     1       1.429  -3.964  -4.326  0.00  0.00    +0.190 C 
BRANCH  11  12
ATOM     12  O   UNL     1       0.025  -3.839  -4.102  0.00  0.00    -0.392 OA
ATOM     13  H   UNL     1      -0.160  -2.884  -4.063  0.00  0.00    +0.210 HD
ENDBRANCH  11  12
ENDBRANCH   4  11
BRANCH   2  14
ATOM     14  O   UNL     1       2.980  -0.311  -1.513  0.00  0.00    -0.453 OA
BRANCH  14  15
ATOM     15  C   UNL     1       3.754   0.496  -2.348  0.00  0.00    +0.214 A 
ATOM     16  C   UNL     1       4.158   0.050  -3.743  0.00  0.00    +0.238 A 
ATOM     17  O   UNL     1       4.337  -1.127  -4.010  0.00  0.00    -0.283 OA
ATOM     18  C   UNL     1       4.428   1.122  -4.719  0.00  0.00    +0.109 A 
ATOM     19  C   UNL     1       4.829   2.343  -4.201  0.00  0.00    +0.147 A 
ATOM     20  C   UNL     1       5.156   3.419  -5.032  0.00  0.00    +0.092 A 
ATOM     21  C   UNL     1       5.056   3.265  -6.408  0.00  0.00    +0.124 A 
ATOM     22  C   UNL     1       4.675   2.051  -6.949  0.00  0.00    +0.091 A 
ATOM     23  O   UNL     1       4.944   2.537  -2.854  0.00  0.00    -0.451 OA
ATOM     24  C   UNL     1       4.348   0.973  -6.108  0.00  0.00    +0.135 A 
ATOM     25  C   UNL     1       4.231   1.718  -1.977  0.00  0.00    +0.181 A 
BRANCH  25  26
ATOM     26  C   UNL     1       4.163   2.374  -0.622  0.00  0.00    +0.025 A 
ATOM     27  C   UNL     1       4.860   3.599  -0.417  0.00  0.00    +0.015 A 
ATOM     28  C   UNL     1       4.906   4.239   0.824  0.00  0.00    +0.050 A 
ATOM     29  C   UNL     1       4.256   3.661   1.893  0.00  0.00    +0.158 A 
ATOM     30  C   UNL     1       3.550   2.476   1.725  0.00  0.00    +0.159 A 
ATOM     31  C   UNL     1       3.484   1.842   0.482  0.00  0.00    +0.060 A 
BRANCH  29  32
ATOM     32  O   UNL     1       4.331   4.252   3.120  0.00  0.00    -0.503 OA
ATOM     33  H   UNL     1       3.793   3.675   3.700  0.00  0.00    +0.292 HD
ENDBRANCH  29  32
BRANCH  30  34
ATOM     34  O   UNL     1       2.946   1.942   2.831  0.00  0.00    -0.503 OA
ATOM     35  H   UNL     1       2.767   0.996   2.652  0.00  0.00    +0.292 HD
ENDBRANCH  30  34
ENDBRANCH  25  26
BRANCH  24  36
ATOM     36  O   UNL     1       3.932  -0.203  -6.660  0.00  0.00    -0.506 OA
ATOM     37  H   UNL     1       3.871  -0.105  -7.623  0.00  0.00    +0.292 HD
ENDBRANCH  24  36
BRANCH  21  38
ATOM     38  O   UNL     1       5.318   4.291  -7.269  0.00  0.00    -0.507 OA
ATOM     39  H   UNL     1       5.409   5.118  -6.766  0.00  0.00    +0.292 HD
ENDBRANCH  21  38
ENDBRANCH  14  15
ENDBRANCH   2  14
BRANCH   1  40
ATOM     40  O   UNL     1       2.925  -2.069   0.863  0.00  0.00    -0.337 OA
BRANCH  40  43
ATOM     41  C   UNL     1       6.132  -3.637   0.596  0.00  0.00    +0.197 C 
ATOM     42  O   UNL     1       4.734  -3.531   0.756  0.00  0.00    -0.346 OA
ATOM     43  C   UNL     1       4.329  -2.197   1.027  0.00  0.00    +0.282 C 
ATOM     44  C   UNL     1       4.762  -1.903   2.474  0.00  0.00    +0.201 C 
ATOM     45  C   UNL     1       6.306  -1.996   2.489  0.00  0.00    +0.178 C 
ATOM     46  C   UNL     1       6.818  -3.343   1.924  0.00  0.00    +0.171 C 
BRANCH  46  47
ATOM     47  O   UNL     1       8.229  -3.292   1.718  0.00  0.00    -0.387 OA
ATOM     48  H   UNL     1       8.502  -4.164   1.374  0.00  0.00    +0.210 HD
ENDBRANCH  46  47
BRANCH  45  49
ATOM     49  O   UNL     1       6.786  -1.771   3.817  0.00  0.00    -0.386 OA
ATOM     50  H   UNL     1       7.719  -1.498   3.730  0.00  0.00    +0.210 HD
ENDBRANCH  45  49
BRANCH  44  51
ATOM     51  O   UNL     1       4.291  -0.608   2.879  0.00  0.00    -0.384 OA
ATOM     52  H   UNL     1       5.070  -0.071   3.112  0.00  0.00    +0.210 HD
ENDBRANCH  44  51
ENDBRANCH  40  43
ENDBRANCH   1  40
TORSDOF 16
