REMARK  Name = 
REMARK  11 active torsions:
REMARK  status: ('A' for Active; 'I' for Inactive)
REMARK    1  A    between atoms: C_3  and  O_34
REMARK    2  A    between atoms: C_4  and  O_33
REMARK    3  A    between atoms: C_6  and  C_7
REMARK    4  A    between atoms: C_8  and  O_20
REMARK    5  A    between atoms: C_12  and  O_19
REMARK    6  A    between atoms: C_14  and  O_18
REMARK    7  A    between atoms: O_20  and  C_21
REMARK    8  A    between atoms: C_22  and  O_32
REMARK    9  A    between atoms: C_24  and  O_31
REMARK   10  A    between atoms: C_26  and  C_29
REMARK   11  A    between atoms: C_29  and  O_30
REMARK                            x       y       z     vdW  Elec       q    Type
REMARK                         _______ _______ _______ _____ _____    ______ ____
ROOT
ATOM      1  C   UNL     1      -1.266  -2.495  -0.201  0.00  0.00    +0.181 A 
ATOM      2  O   UNL     1      -0.559  -3.687   0.035  0.00  0.00    -0.451 OA
ATOM      3  C   UNL     1      -1.150  -4.906  -0.145  0.00  0.00    +0.147 A 
ATOM      4  C   UNL     1      -2.478  -5.039  -0.487  0.00  0.00    +0.109 A 
ATOM      5  C   UNL     1      -3.061  -6.308  -0.638  0.00  0.00    +0.135 A 
ATOM      6  C   UNL     1      -2.301  -7.453  -0.449  0.00  0.00    +0.091 A 
ATOM      7  C   UNL     1      -0.959  -7.314  -0.118  0.00  0.00    +0.124 A 
ATOM      8  C   UNL     1      -3.257  -3.829  -0.667  0.00  0.00    +0.238 A 
ATOM      9  O   UNL     1      -4.454  -4.008  -0.896  0.00  0.00    -0.283 OA
ATOM     10  C   UNL     1      -0.377  -6.053   0.036  0.00  0.00    +0.092 A 
ATOM     11  C   UNL     1      -2.589  -2.479  -0.547  0.00  0.00    +0.214 A 
ENDROOT
BRANCH   1  13
ATOM     12  C   UNL     1      -0.720   0.020  -0.317  0.00  0.00    +0.015 A 
ATOM     13  C   UNL     1      -0.333  -1.309  -0.069  0.00  0.00    +0.025 A 
ATOM     14  C   UNL     1       1.035  -1.506   0.258  0.00  0.00    +0.060 A 
ATOM     15  C   UNL     1       1.957  -0.466   0.213  0.00  0.00    +0.159 A 
ATOM     16  C   UNL     1       1.559   0.805  -0.168  0.00  0.00    +0.158 A 
ATOM     17  C   UNL     1       0.219   1.068  -0.391  0.00  0.00    +0.050 A 
BRANCH  15  18
ATOM     18  O   UNL     1       3.268  -0.701   0.515  0.00  0.00    -0.503 OA
ATOM     19  H   UNL     1       3.698   0.176   0.456  0.00  0.00    +0.292 HD
ENDBRANCH  15  18
BRANCH  16  20
ATOM     20  O   UNL     1       2.522   1.761  -0.335  0.00  0.00    -0.503 OA
ATOM     21  H   UNL     1       2.178   2.408  -0.979  0.00  0.00    +0.292 HD
ENDBRANCH  16  20
ENDBRANCH   1  13
BRANCH   5  22
ATOM     22  O   UNL     1      -4.373  -6.498  -0.966  0.00  0.00    -0.506 OA
ATOM     23  H   UNL     1      -4.796  -5.612  -1.059  0.00  0.00    +0.292 HD
ENDBRANCH   5  22
BRANCH   7  24
ATOM     24  O   UNL     1      -0.171  -8.413   0.071  0.00  0.00    -0.507 OA
ATOM     25  H   UNL     1      -0.708  -9.209  -0.076  0.00  0.00    +0.292 HD
ENDBRANCH   7  24
BRANCH  11  26
ATOM     26  O   UNL     1      -3.320  -1.303  -0.807  0.00  0.00    -0.453 OA
BRANCH  26  27
ATOM     27  C   UNL     1      -4.735  -1.433  -0.616  0.00  0.00    +0.340 C 
ATOM     28  O   UNL     1      -5.446  -1.875  -1.790  0.00  0.00    -0.331 OA
ATOM     29  C   UNL     1      -6.833  -1.869  -1.354  0.00  0.00    +0.179 C 
ATOM     30  C   UNL     1      -6.932  -0.701  -0.344  0.00  0.00    +0.180 C 
ATOM     31  C   UNL     1      -5.501  -0.136  -0.316  0.00  0.00    +0.214 C 
BRANCH  30  32
ATOM     32  O   UNL     1      -7.249  -1.244   0.949  0.00  0.00    -0.386 OA
ATOM     33  H   UNL     1      -7.295  -0.502   1.577  0.00  0.00    +0.210 HD
ENDBRANCH  30  32
BRANCH  31  34
ATOM     34  O   UNL     1      -5.356   0.868  -1.326  0.00  0.00    -0.383 OA
ATOM     35  H   UNL     1      -4.547   0.665  -1.828  0.00  0.00    +0.210 HD
ENDBRANCH  31  34
BRANCH  29  36
ATOM     36  C   UNL     1      -7.769  -1.784  -2.555  0.00  0.00    +0.190 C 
BRANCH  36  37
ATOM     37  O   UNL     1      -7.590  -0.576  -3.283  0.00  0.00    -0.392 OA
ATOM     38  H   UNL     1      -6.640  -0.530  -3.497  0.00  0.00    +0.210 HD
ENDBRANCH  36  37
ENDBRANCH  29  36
ENDBRANCH  26  27
ENDBRANCH  11  26
TORSDOF 11
