REMARK  Name = 
REMARK  17 active torsions:
REMARK  status: ('A' for Active; 'I' for Inactive)
REMARK    1  A    between atoms: C_1  and  C_2
REMARK    2  A    between atoms: C_4  and  O_53
REMARK    3  A    between atoms: C_6  and  O_52
REMARK    4  A    between atoms: C_8  and  O_51
REMARK    5  A    between atoms: C_10  and  O_13
REMARK    6  A    between atoms: O_13  and  C_14
REMARK    7  A    between atoms: C_16  and  O_50
REMARK    8  A    between atoms: C_18  and  O_49
REMARK    9  A    between atoms: C_20  and  C_47
REMARK   10  A    between atoms: C_23  and  O_25
REMARK   11  A    between atoms: O_25  and  C_26
REMARK   12  A    between atoms: C_28  and  O_46
REMARK   13  A    between atoms: C_33  and  C_38
REMARK   14  A    between atoms: C_34  and  O_37
REMARK   15  A    between atoms: C_40  and  O_45
REMARK   16  A    between atoms: C_41  and  O_44
REMARK   17  A    between atoms: C_47  and  O_48
REMARK                            x       y       z     vdW  Elec       q    Type
REMARK                         _______ _______ _______ _____ _____    ______ ____
ROOT
ATOM      1  C   UNL     1       2.597   2.973  -2.992  0.00  0.00    +0.221 C 
ATOM      2  C   UNL     1       1.380   2.377  -3.777  0.00  0.00    +0.340 C 
ATOM      3  O   UNL     1       1.690   2.341  -5.184  0.00  0.00    -0.331 OA
ATOM      4  C   UNL     1       1.971   3.630  -5.753  0.00  0.00    +0.179 C 
ATOM      5  C   UNL     1       3.157   4.305  -5.048  0.00  0.00    +0.177 C 
ATOM      6  C   UNL     1       2.865   4.376  -3.560  0.00  0.00    +0.180 C 
ENDROOT
BRANCH   6   7
ATOM      7  O   UNL     1       3.979   5.001  -2.902  0.00  0.00    -0.386 OA
ATOM      8  H   UNL     1       3.806   4.877  -1.945  0.00  0.00    +0.210 HD
ENDBRANCH   6   7
BRANCH   5   9
ATOM      9  O   UNL     1       3.381   5.631  -5.546  0.00  0.00    -0.386 OA
ATOM     10  H   UNL     1       3.963   6.055  -4.878  0.00  0.00    +0.210 HD
ENDBRANCH   5   9
BRANCH   4  11
ATOM     11  C   UNL     1       2.273   3.486  -7.253  0.00  0.00    +0.190 C 
BRANCH  11  12
ATOM     12  O   UNL     1       2.407   4.754  -7.896  0.00  0.00    -0.392 OA
ATOM     13  H   UNL     1       2.922   5.341  -7.301  0.00  0.00    +0.210 HD
ENDBRANCH  11  12
ENDBRANCH   4  11
BRANCH   2  14
ATOM     14  O   UNL     1       1.045   1.037  -3.319  0.00  0.00    -0.461 OA
BRANCH  14  15
ATOM     15  C   UNL     1      -0.285   0.682  -3.388  0.00  0.00    +0.131 A 
ATOM     16  C   UNL     1      -0.766  -0.237  -2.441  0.00  0.00    +0.093 A 
ATOM     17  C   UNL     1      -2.139  -0.508  -2.320  0.00  0.00    +0.147 A 
ATOM     18  O   UNL     1      -2.527  -1.338  -1.284  0.00  0.00    -0.451 OA
ATOM     19  C   UNL     1      -3.883  -1.482  -1.022  0.00  0.00    +0.181 A 
ATOM     20  C   UNL     1      -4.866  -0.938  -1.763  0.00  0.00    +0.208 A 
ATOM     21  C   UNL     1      -4.488  -0.154  -2.978  0.00  0.00    +0.238 A 
ATOM     22  O   UNL     1      -5.354   0.302  -3.714  0.00  0.00    -0.283 OA
ATOM     23  C   UNL     1      -3.043   0.075  -3.201  0.00  0.00    +0.109 A 
ATOM     24  C   UNL     1      -2.543   0.883  -4.235  0.00  0.00    +0.135 A 
ATOM     25  C   UNL     1      -1.176   1.179  -4.333  0.00  0.00    +0.092 A 
BRANCH  19  26
ATOM     26  C   UNL     1      -4.194  -2.323   0.153  0.00  0.00    +0.025 A 
ATOM     27  C   UNL     1      -4.390  -1.740   1.418  0.00  0.00    +0.015 A 
ATOM     28  C   UNL     1      -4.782  -2.523   2.511  0.00  0.00    +0.050 A 
ATOM     29  C   UNL     1      -4.983  -3.883   2.333  0.00  0.00    +0.158 A 
ATOM     30  C   UNL     1      -4.804  -4.471   1.087  0.00  0.00    +0.159 A 
ATOM     31  C   UNL     1      -4.410  -3.704  -0.007  0.00  0.00    +0.060 A 
BRANCH  30  32
ATOM     32  O   UNL     1      -5.052  -5.814   0.984  0.00  0.00    -0.503 OA
ATOM     33  H   UNL     1      -4.953  -6.081   0.054  0.00  0.00    +0.292 HD
ENDBRANCH  30  32
BRANCH  29  34
ATOM     34  O   UNL     1      -5.377  -4.642   3.397  0.00  0.00    -0.503 OA
ATOM     35  H   UNL     1      -5.458  -5.553   3.040  0.00  0.00    +0.292 HD
ENDBRANCH  29  34
ENDBRANCH  19  26
BRANCH  20  36
ATOM     36  O   UNL     1      -6.218  -1.049  -1.479  0.00  0.00    -0.501 OA
ATOM     37  H   UNL     1      -6.339  -1.426  -0.592  0.00  0.00    +0.292 HD
ENDBRANCH  20  36
BRANCH  24  38
ATOM     38  O   UNL     1      -3.386   1.417  -5.167  0.00  0.00    -0.506 OA
ATOM     39  H   UNL     1      -2.932   2.084  -5.705  0.00  0.00    +0.292 HD
ENDBRANCH  24  38
ENDBRANCH  14  15
ENDBRANCH   2  14
BRANCH   1  40
ATOM     40  O   UNL     1       2.437   3.226  -1.591  0.00  0.00    -0.337 OA
BRANCH  40  44
ATOM     41  C   UNL     1       0.063   1.518   1.400  0.00  0.00    +0.041 C 
ATOM     42  C   UNL     1       1.553   1.800   1.580  0.00  0.00    +0.149 C 
ATOM     43  O   UNL     1       2.021   2.701   0.572  0.00  0.00    -0.343 OA
ATOM     44  C   UNL     1       2.179   2.128  -0.734  0.00  0.00    +0.282 C 
ATOM     45  C   UNL     1       3.288   1.054  -0.676  0.00  0.00    +0.201 C 
ATOM     46  C   UNL     1       2.874  -0.033   0.331  0.00  0.00    +0.179 C 
ATOM     47  C   UNL     1       2.471   0.563   1.688  0.00  0.00    +0.174 C 
BRANCH  47  48
ATOM     48  O   UNL     1       3.674   0.951   2.371  0.00  0.00    -0.387 OA
ATOM     49  H   UNL     1       3.941   1.833   2.049  0.00  0.00    +0.210 HD
ENDBRANCH  47  48
BRANCH  46  50
ATOM     50  O   UNL     1       1.824  -0.823  -0.248  0.00  0.00    -0.386 OA
ATOM     51  H   UNL     1       0.976  -0.382  -0.094  0.00  0.00    +0.210 HD
ENDBRANCH  46  50
BRANCH  45  52
ATOM     52  O   UNL     1       3.537   0.431  -1.940  0.00  0.00    -0.384 OA
ATOM     53  H   UNL     1       2.829  -0.225  -2.085  0.00  0.00    +0.210 HD
ENDBRANCH  45  52
ENDBRANCH  40  44
ENDBRANCH   1  40
TORSDOF 16
