REMARK  Name = 
REMARK  11 active torsions:
REMARK  status: ('A' for Active; 'I' for Inactive)
REMARK    1  A    between atoms: C_3  and  O_35
REMARK    2  A    between atoms: C_4  and  O_34
REMARK    3  A    between atoms: C_6  and  C_7
REMARK    4  A    between atoms: C_8  and  O_20
REMARK    5  A    between atoms: C_12  and  O_19
REMARK    6  A    between atoms: C_14  and  O_18
REMARK    7  A    between atoms: O_20  and  C_21
REMARK    8  A    between atoms: C_23  and  O_33
REMARK    9  A    between atoms: C_25  and  O_32
REMARK   10  A    between atoms: C_27  and  C_30
REMARK   11  A    between atoms: C_30  and  O_31
REMARK                            x       y       z     vdW  Elec       q    Type
REMARK                         _______ _______ _______ _____ _____    ______ ____
ROOT
ATOM      1  C   UNL     1      -1.152  -2.501  -0.364  0.00  0.00    +0.181 A 
ATOM      2  O   UNL     1      -0.484  -3.700  -0.177  0.00  0.00    -0.451 OA
ATOM      3  C   UNL     1      -1.164  -4.877  -0.267  0.00  0.00    +0.147 A 
ATOM      4  C   UNL     1      -2.521  -4.940  -0.537  0.00  0.00    +0.109 A 
ATOM      5  C   UNL     1      -3.145  -6.191  -0.625  0.00  0.00    +0.135 A 
ATOM      6  C   UNL     1      -2.411  -7.365  -0.446  0.00  0.00    +0.091 A 
ATOM      7  C   UNL     1      -1.051  -7.280  -0.168  0.00  0.00    +0.124 A 
ATOM      8  C   UNL     1      -3.253  -3.681  -0.715  0.00  0.00    +0.238 A 
ATOM      9  O   UNL     1      -4.461  -3.714  -0.918  0.00  0.00    -0.283 OA
ATOM     10  C   UNL     1      -0.423  -6.045  -0.075  0.00  0.00    +0.092 A 
ATOM     11  C   UNL     1      -2.488  -2.383  -0.614  0.00  0.00    +0.214 A 
ENDROOT
BRANCH   1  13
ATOM     12  C   UNL     1       0.058  -0.906   1.078  0.00  0.00    +0.015 A 
ATOM     13  C   UNL     1      -0.181  -1.405  -0.213  0.00  0.00    +0.025 A 
ATOM     14  C   UNL     1       0.555  -0.893  -1.290  0.00  0.00    +0.060 A 
ATOM     15  C   UNL     1       1.450   0.150  -1.064  0.00  0.00    +0.159 A 
ATOM     16  C   UNL     1       1.589   0.718   0.200  0.00  0.00    +0.158 A 
ATOM     17  C   UNL     1       0.913   0.181   1.283  0.00  0.00    +0.050 A 
BRANCH  15  18
ATOM     18  O   UNL     1       2.211   0.618  -2.096  0.00  0.00    -0.503 OA
ATOM     19  H   UNL     1       2.826   1.258  -1.682  0.00  0.00    +0.292 HD
ENDBRANCH  15  18
BRANCH  16  20
ATOM     20  O   UNL     1       2.405   1.805   0.335  0.00  0.00    -0.503 OA
ATOM     21  H   UNL     1       2.221   2.210   1.202  0.00  0.00    +0.292 HD
ENDBRANCH  16  20
ENDBRANCH   1  13
BRANCH   5  22
ATOM     22  O   UNL     1      -4.481  -6.339  -0.885  0.00  0.00    -0.506 OA
ATOM     23  H   UNL     1      -4.874  -5.441  -0.976  0.00  0.00    +0.292 HD
ENDBRANCH   5  22
BRANCH   7  24
ATOM     24  O   UNL     1      -0.286  -8.391   0.020  0.00  0.00    -0.507 OA
ATOM     25  H   UNL     1      -0.842  -9.181  -0.100  0.00  0.00    +0.292 HD
ENDBRANCH   7  24
BRANCH  11  26
ATOM     26  O   UNL     1      -3.263  -1.260  -0.819  0.00  0.00    -0.453 OA
BRANCH  26  27
ATOM     27  C   UNL     1      -2.986  -0.039  -0.157  0.00  0.00    +0.340 C 
ATOM     28  O   UNL     1      -3.409  -0.023   1.224  0.00  0.00    -0.331 OA
ATOM     29  C   UNL     1      -3.760   1.353   1.542  0.00  0.00    +0.179 C 
ATOM     30  C   UNL     1      -3.442   2.187   0.298  0.00  0.00    +0.180 C 
ATOM     31  C   UNL     1      -3.701   1.159  -0.801  0.00  0.00    +0.214 C 
BRANCH  30  32
ATOM     32  O   UNL     1      -4.218   3.373   0.212  0.00  0.00    -0.386 OA
ATOM     33  H   UNL     1      -5.134   3.141  -0.020  0.00  0.00    +0.210 HD
ENDBRANCH  30  32
BRANCH  31  34
ATOM     34  O   UNL     1      -3.178   1.550  -2.065  0.00  0.00    -0.383 OA
ATOM     35  H   UNL     1      -2.211   1.636  -2.000  0.00  0.00    +0.210 HD
ENDBRANCH  31  34
BRANCH  29  36
ATOM     36  C   UNL     1      -2.988   1.785   2.786  0.00  0.00    +0.190 C 
BRANCH  36  37
ATOM     37  O   UNL     1      -1.606   1.460   2.647  0.00  0.00    -0.392 OA
ATOM     38  H   UNL     1      -1.600   0.482   2.550  0.00  0.00    +0.210 HD
ENDBRANCH  36  37
ENDBRANCH  29  36
ENDBRANCH  26  27
ENDBRANCH  11  26
TORSDOF 11
