REMARK  Name = 
REMARK  26 active torsions:
REMARK  status: ('A' for Active; 'I' for Inactive)
REMARK    1  A    between atoms: C_3  and  O_44
REMARK    2  A    between atoms: C_4  and  O_43
REMARK    3  A    between atoms: C_6  and  C_7
REMARK    4  A    between atoms: C_8  and  O_20
REMARK    5  A    between atoms: C_12  and  O_19
REMARK    6  A    between atoms: C_14  and  O_18
REMARK    7  A    between atoms: O_20  and  C_21
REMARK    8  A    between atoms: C_21  and  C_22
REMARK    9  A    between atoms: C_22  and  C_23
REMARK   10  A    between atoms: C_22  and  O_42
REMARK   11  A    between atoms: C_23  and  O_41
REMARK   12  A    between atoms: C_24  and  C_25
REMARK   13  A    between atoms: C_24  and  O_40
REMARK   14  A    between atoms: C_25  and  C_26
REMARK   15  A    between atoms: C_25  and  O_39
REMARK   16  A    between atoms: C_26  and  O_27
REMARK   17  A    between atoms: O_27  and  C_28
REMARK   18  A    between atoms: C_28  and  C_29
REMARK   19  A    between atoms: C_29  and  C_30
REMARK   20  A    between atoms: C_29  and  O_38
REMARK   21  A    between atoms: C_30  and  O_37
REMARK   22  A    between atoms: C_31  and  C_32
REMARK   23  A    between atoms: C_31  and  O_36
REMARK   24  A    between atoms: C_32  and  C_33
REMARK   25  A    between atoms: C_32  and  O_35
REMARK   26  A    between atoms: C_33  and  O_34
REMARK                            x       y       z     vdW  Elec       q    Type
REMARK                         _______ _______ _______ _____ _____    ______ ____
ROOT
ATOM      1  C   UNL     1      -4.350   0.811  -1.137  0.00  0.00    +0.220 C 
ENDROOT
BRANCH   1   2
ATOM      2  C   UNL     1      -5.389   0.798  -0.016  0.00  0.00    +0.166 C 
ATOM      3  C   UNL     1      -5.674   1.824   0.816  0.00  0.00    +0.165 C 
BRANCH   3   4
ATOM      4  O   UNL     1      -5.093   3.081   0.697  0.00  0.00    -0.505 OA
ATOM      5  H   UNL     1      -4.631   3.108  -0.171  0.00  0.00    +0.292 HD
ENDBRANCH   3   4
BRANCH   2   6
ATOM      6  O   UNL     1      -6.013  -0.425   0.206  0.00  0.00    -0.505 OA
ATOM      7  H   UNL     1      -5.648  -1.096  -0.403  0.00  0.00    +0.292 HD
ENDBRANCH   2   6
BRANCH   3   8
ATOM      8  C   UNL     1      -6.641   1.717   1.981  0.00  0.00    +0.208 C 
BRANCH   8   9
ATOM      9  O   UNL     1      -7.180   3.020   2.263  0.00  0.00    -0.382 OA
ATOM     10  H   UNL     1      -6.512   3.651   1.929  0.00  0.00    +0.210 HD
ENDBRANCH   8   9
BRANCH   8  11
ATOM     11  C   UNL     1      -5.918   1.208   3.240  0.00  0.00    +0.199 C 
BRANCH  11  12
ATOM     12  O   UNL     1      -6.847   1.089   4.333  0.00  0.00    -0.374 OA
BRANCH  12  13
ATOM     13  C   UNL     1      -6.174   0.697   5.542  0.00  0.00    +0.199 C 
BRANCH  13  14
ATOM     14  C   UNL     1      -7.204   0.642   6.684  0.00  0.00    +0.208 C 
BRANCH  14  15
ATOM     15  C   UNL     1      -7.859   1.972   7.026  0.00  0.00    +0.164 C 
ATOM     16  C   UNL     1      -8.192   2.389   8.266  0.00  0.00    +0.164 C 
BRANCH  16  17
ATOM     17  O   UNL     1      -7.974   1.651   9.422  0.00  0.00    -0.505 OA
ATOM     18  H   UNL     1      -7.639   0.768   9.193  0.00  0.00    +0.292 HD
ENDBRANCH  16  17
BRANCH  15  19
ATOM     19  O   UNL     1      -8.159   2.808   5.951  0.00  0.00    -0.505 OA
ATOM     20  H   UNL     1      -7.875   2.386   5.109  0.00  0.00    +0.292 HD
ENDBRANCH  15  19
BRANCH  16  21
ATOM     21  C   UNL     1      -8.849   3.734   8.533  0.00  0.00    +0.208 C 
BRANCH  21  22
ATOM     22  O   UNL     1      -8.543   4.148   9.883  0.00  0.00    -0.382 OA
ATOM     23  H   UNL     1      -8.367   3.312  10.358  0.00  0.00    +0.210 HD
ENDBRANCH  21  22
BRANCH  21  24
ATOM     24  C   UNL     1     -10.380   3.681   8.421  0.00  0.00    +0.195 C 
BRANCH  24  25
ATOM     25  O   UNL     1     -10.941   4.955   8.768  0.00  0.00    -0.392 OA
ATOM     26  H   UNL     1     -10.392   5.275   9.512  0.00  0.00    +0.210 HD
ENDBRANCH  24  25
ENDBRANCH  21  24
ENDBRANCH  16  21
ENDBRANCH  14  15
BRANCH  14  27
ATOM     27  O   UNL     1      -8.240  -0.277   6.330  0.00  0.00    -0.382 OA
ATOM     28  H   UNL     1      -8.506  -0.035   5.421  0.00  0.00    +0.210 HD
ENDBRANCH  14  27
ENDBRANCH  13  14
ENDBRANCH  12  13
ENDBRANCH  11  12
ENDBRANCH   8  11
ENDBRANCH   3   8
ENDBRANCH   1   2
BRANCH   1  29
ATOM     29  O   UNL     1      -3.688   2.097  -1.147  0.00  0.00    -0.381 OA
ATOM     30  H   UNL     1      -2.928   2.033  -0.524  0.00  0.00    +0.211 HD
ENDBRANCH   1  29
BRANCH   1  31
ATOM     31  C   UNL     1      -3.265  -0.246  -0.883  0.00  0.00    +0.268 C 
BRANCH  31  32
ATOM     32  O   UNL     1      -3.565  -1.634  -1.105  0.00  0.00    -0.482 OA
BRANCH  32  43
ATOM     33  C   UNL     1      -2.447  -3.820  -0.966  0.00  0.00    +0.181 A 
ATOM     34  O   UNL     1      -1.445  -4.656  -0.439  0.00  0.00    -0.451 OA
ATOM     35  C   UNL     1      -0.544  -4.194   0.478  0.00  0.00    +0.147 A 
ATOM     36  C   UNL     1      -0.491  -2.874   0.853  0.00  0.00    +0.109 A 
ATOM     37  C   UNL     1       0.451  -2.418   1.787  0.00  0.00    +0.135 A 
ATOM     38  C   UNL     1       1.364  -3.299   2.342  0.00  0.00    +0.091 A 
ATOM     39  C   UNL     1       1.321  -4.632   1.945  0.00  0.00    +0.124 A 
ATOM     40  C   UNL     1      -1.400  -1.956   0.201  0.00  0.00    +0.238 A 
ATOM     41  O   UNL     1      -1.141  -0.764   0.367  0.00  0.00    -0.283 OA
ATOM     42  C   UNL     1       0.378  -5.090   1.020  0.00  0.00    +0.092 A 
ATOM     43  C   UNL     1      -2.536  -2.497  -0.649  0.00  0.00    +0.211 A 
BRANCH  33  45
ATOM     44  C   UNL     1      -2.857  -5.893  -2.354  0.00  0.00    +0.015 A 
ATOM     45  C   UNL     1      -3.291  -4.594  -1.958  0.00  0.00    +0.025 A 
ATOM     46  C   UNL     1      -4.451  -4.115  -2.580  0.00  0.00    +0.060 A 
ATOM     47  C   UNL     1      -5.071  -4.856  -3.593  0.00  0.00    +0.159 A 
ATOM     48  C   UNL     1      -4.564  -6.078  -4.022  0.00  0.00    +0.158 A 
ATOM     49  C   UNL     1      -3.472  -6.625  -3.383  0.00  0.00    +0.050 A 
BRANCH  48  50
ATOM     50  O   UNL     1      -5.164  -6.693  -5.084  0.00  0.00    -0.503 OA
ATOM     51  H   UNL     1      -4.546  -7.360  -5.433  0.00  0.00    +0.292 HD
ENDBRANCH  48  50
BRANCH  47  52
ATOM     52  O   UNL     1      -6.195  -4.355  -4.191  0.00  0.00    -0.503 OA
ATOM     53  H   UNL     1      -6.462  -5.047  -4.831  0.00  0.00    +0.292 HD
ENDBRANCH  47  52
ENDBRANCH  33  45
BRANCH  39  54
ATOM     54  O   UNL     1       2.211  -5.531   2.452  0.00  0.00    -0.507 OA
ATOM     55  H   UNL     1       2.794  -5.070   3.081  0.00  0.00    +0.292 HD
ENDBRANCH  39  54
BRANCH  37  56
ATOM     56  O   UNL     1       0.553  -1.103   2.171  0.00  0.00    -0.506 OA
ATOM     57  H   UNL     1      -0.039  -0.574   1.591  0.00  0.00    +0.292 HD
ENDBRANCH  37  56
ENDBRANCH  32  43
ENDBRANCH  31  32
ENDBRANCH   1  31
TORSDOF 26
