REMARK  Name = 
REMARK  17 active torsions:
REMARK  status: ('A' for Active; 'I' for Inactive)
REMARK    1  A    between atoms: C_3  and  O_49
REMARK    2  A    between atoms: C_4  and  O_48
REMARK    3  A    between atoms: C_6  and  C_7
REMARK    4  A    between atoms: C_8  and  O_20
REMARK    5  A    between atoms: C_12  and  O_19
REMARK    6  A    between atoms: C_14  and  O_18
REMARK    7  A    between atoms: O_20  and  C_21
REMARK    8  A    between atoms: C_23  and  O_47
REMARK    9  A    between atoms: C_25  and  O_46
REMARK   10  A    between atoms: C_27  and  O_45
REMARK   11  A    between atoms: C_29  and  C_32
REMARK   12  A    between atoms: C_32  and  O_33
REMARK   13  A    between atoms: O_33  and  C_34
REMARK   14  A    between atoms: C_34  and  C_36
REMARK   15  A    between atoms: C_38  and  O_44
REMARK   16  A    between atoms: C_39  and  O_43
REMARK   17  A    between atoms: C_40  and  O_42
REMARK                            x       y       z     vdW  Elec       q    Type
REMARK                         _______ _______ _______ _____ _____    ______ ____
ROOT
ATOM      1  C   UNL     1      -2.598  -0.697  -1.031  0.00  0.00    +0.340 C 
ATOM      2  O   UNL     1      -3.602  -0.318  -1.966  0.00  0.00    -0.330 OA
ATOM      3  C   UNL     1      -3.401  -0.383  -3.382  0.00  0.00    +0.191 C 
ATOM      4  C   UNL     1      -2.342  -1.386  -3.913  0.00  0.00    +0.178 C 
ATOM      5  C   UNL     1      -1.765  -2.242  -2.792  0.00  0.00    +0.180 C 
ATOM      6  C   UNL     1      -1.339  -1.313  -1.655  0.00  0.00    +0.214 C 
ENDROOT
BRANCH   4   7
ATOM      7  O   UNL     1      -2.812  -2.247  -4.958  0.00  0.00    -0.386 OA
ATOM      8  H   UNL     1      -3.195  -3.026  -4.508  0.00  0.00    +0.210 HD
ENDBRANCH   4   7
BRANCH   5   9
ATOM      9  O   UNL     1      -2.730  -3.232  -2.418  0.00  0.00    -0.386 OA
ATOM     10  H   UNL     1      -3.481  -2.806  -1.963  0.00  0.00    +0.210 HD
ENDBRANCH   5   9
BRANCH   6  11
ATOM     11  O   UNL     1      -0.458  -0.302  -2.166  0.00  0.00    -0.383 OA
ATOM     12  H   UNL     1      -0.415   0.419  -1.511  0.00  0.00    +0.210 HD
ENDBRANCH   6  11
BRANCH   1  13
ATOM     13  O   UNL     1      -3.217  -1.684  -0.194  0.00  0.00    -0.453 OA
BRANCH  13  24
ATOM     14  C   UNL     1      -2.996  -3.144   1.683  0.00  0.00    +0.181 A 
ATOM     15  O   UNL     1      -2.588  -3.456   2.981  0.00  0.00    -0.451 OA
ATOM     16  C   UNL     1      -2.007  -2.461   3.736  0.00  0.00    +0.147 A 
ATOM     17  C   UNL     1      -1.547  -1.275   3.175  0.00  0.00    +0.109 A 
ATOM     18  C   UNL     1      -0.913  -0.303   3.957  0.00  0.00    +0.135 A 
ATOM     19  C   UNL     1      -0.745  -0.503   5.317  0.00  0.00    +0.091 A 
ATOM     20  C   UNL     1      -1.215  -1.685   5.881  0.00  0.00    +0.124 A 
ATOM     21  C   UNL     1      -1.763  -1.061   1.754  0.00  0.00    +0.238 A 
ATOM     22  O   UNL     1      -1.150  -0.154   1.199  0.00  0.00    -0.283 OA
ATOM     23  C   UNL     1      -1.841  -2.666   5.105  0.00  0.00    +0.092 A 
ATOM     24  C   UNL     1      -2.701  -1.980   1.055  0.00  0.00    +0.214 A 
BRANCH  14  26
ATOM     25  C   UNL     1      -3.125  -5.549   0.920  0.00  0.00    +0.015 A 
ATOM     26  C   UNL     1      -3.693  -4.256   0.965  0.00  0.00    +0.025 A 
ATOM     27  C   UNL     1      -4.852  -4.022   0.211  0.00  0.00    +0.060 A 
ATOM     28  C   UNL     1      -5.339  -4.999  -0.654  0.00  0.00    +0.159 A 
ATOM     29  C   UNL     1      -4.722  -6.240  -0.751  0.00  0.00    +0.158 A 
ATOM     30  C   UNL     1      -3.634  -6.542   0.062  0.00  0.00    +0.050 A 
BRANCH  28  31
ATOM     31  O   UNL     1      -6.408  -4.704  -1.451  0.00  0.00    -0.503 OA
ATOM     32  H   UNL     1      -6.553  -5.516  -1.977  0.00  0.00    +0.292 HD
ENDBRANCH  28  31
BRANCH  29  33
ATOM     33  O   UNL     1      -5.208  -7.118  -1.683  0.00  0.00    -0.503 OA
ATOM     34  H   UNL     1      -4.561  -7.836  -1.795  0.00  0.00    +0.292 HD
ENDBRANCH  29  33
ENDBRANCH  14  26
BRANCH  20  35
ATOM     35  O   UNL     1      -1.065  -1.924   7.215  0.00  0.00    -0.507 OA
ATOM     36  H   UNL     1      -0.577  -1.184   7.615  0.00  0.00    +0.292 HD
ENDBRANCH  20  35
BRANCH  18  37
ATOM     37  O   UNL     1      -0.420   0.871   3.448  0.00  0.00    -0.506 OA
ATOM     38  H   UNL     1      -0.519   0.847   2.469  0.00  0.00    +0.292 HD
ENDBRANCH  18  37
ENDBRANCH  13  24
ENDBRANCH   1  13
BRANCH   3  39
ATOM     39  C   UNL     1      -4.820  -0.629  -3.917  0.00  0.00    +0.266 C 
BRANCH  39  40
ATOM     40  O   UNL     1      -4.920  -0.626  -5.338  0.00  0.00    -0.458 OA
BRANCH  40  41
ATOM     41  C   UNL     1      -4.899   0.601  -5.900  0.00  0.00    +0.340 C 
ATOM     42  O   UNL     1      -4.818   1.670  -5.320  0.00  0.00    -0.245 OA
BRANCH  41  43
ATOM     43  C   UNL     1      -5.070   0.463  -7.357  0.00  0.00    +0.066 A 
ATOM     44  C   UNL     1      -5.807   1.458  -8.009  0.00  0.00    +0.064 A 
ATOM     45  C   UNL     1      -5.996   1.367  -9.376  0.00  0.00    +0.163 A 
ATOM     46  C   UNL     1      -5.452   0.308 -10.093  0.00  0.00    +0.201 A 
ATOM     47  C   UNL     1      -4.718  -0.682  -9.444  0.00  0.00    +0.163 A 
ATOM     48  C   UNL     1      -4.517  -0.616  -8.070  0.00  0.00    +0.064 A 
BRANCH  45  49
ATOM     49  O   UNL     1      -6.733   2.323 -10.009  0.00  0.00    -0.503 OA
ATOM     50  H   UNL     1      -6.742   2.048 -10.947  0.00  0.00    +0.292 HD
ENDBRANCH  45  49
BRANCH  46  51
ATOM     51  O   UNL     1      -5.657   0.251 -11.444  0.00  0.00    -0.501 OA
ATOM     52  H   UNL     1      -5.187  -0.562 -11.724  0.00  0.00    +0.292 HD
ENDBRANCH  46  51
BRANCH  47  53
ATOM     53  O   UNL     1      -4.224  -1.705 -10.205  0.00  0.00    -0.503 OA
ATOM     54  H   UNL     1      -3.826  -2.365  -9.609  0.00  0.00    +0.292 HD
ENDBRANCH  47  53
ENDBRANCH  41  43
ENDBRANCH  40  41
ENDBRANCH  39  40
ENDBRANCH   3  39
TORSDOF 17
