REMARK  Name = 
REMARK  17 active torsions:
REMARK  status: ('A' for Active; 'I' for Inactive)
REMARK    1  A    between atoms: C_1  and  C_2
REMARK    2  A    between atoms: C_4  and  O_53
REMARK    3  A    between atoms: C_6  and  O_52
REMARK    4  A    between atoms: C_8  and  O_51
REMARK    5  A    between atoms: C_10  and  O_13
REMARK    6  A    between atoms: O_13  and  C_14
REMARK    7  A    between atoms: C_16  and  O_50
REMARK    8  A    between atoms: C_18  and  O_49
REMARK    9  A    between atoms: C_20  and  C_47
REMARK   10  A    between atoms: C_23  and  O_25
REMARK   11  A    between atoms: O_25  and  C_26
REMARK   12  A    between atoms: C_27  and  C_39
REMARK   13  A    between atoms: C_31  and  O_38
REMARK   14  A    between atoms: C_33  and  O_37
REMARK   15  A    between atoms: C_41  and  O_46
REMARK   16  A    between atoms: C_42  and  O_45
REMARK   17  A    between atoms: C_47  and  O_48
REMARK                            x       y       z     vdW  Elec       q    Type
REMARK                         _______ _______ _______ _____ _____    ______ ____
ROOT
ATOM      1  C   UNL     1       3.063   2.921  -3.009  0.00  0.00    +0.221 C 
ATOM      2  C   UNL     1       1.865   2.305  -3.783  0.00  0.00    +0.340 C 
ATOM      3  O   UNL     1       2.272   2.121  -5.156  0.00  0.00    -0.331 OA
ATOM      4  C   UNL     1       2.436   3.405  -5.803  0.00  0.00    +0.179 C 
ATOM      5  C   UNL     1       3.668   4.109  -5.229  0.00  0.00    +0.177 C 
ATOM      6  C   UNL     1       3.468   4.233  -3.724  0.00  0.00    +0.180 C 
ENDROOT
BRANCH   6   7
ATOM      7  O   UNL     1       4.613   4.830  -3.108  0.00  0.00    -0.386 OA
ATOM      8  H   UNL     1       4.403   4.847  -2.152  0.00  0.00    +0.210 HD
ENDBRANCH   6   7
BRANCH   5   9
ATOM      9  O   UNL     1       3.784   5.435  -5.767  0.00  0.00    -0.386 OA
ATOM     10  H   UNL     1       4.321   5.939  -5.122  0.00  0.00    +0.210 HD
ENDBRANCH   5   9
BRANCH   4  11
ATOM     11  C   UNL     1       2.532   3.253  -7.324  0.00  0.00    +0.190 C 
BRANCH  11  12
ATOM     12  O   UNL     1       1.405   2.553  -7.850  0.00  0.00    -0.392 OA
ATOM     13  H   UNL     1       0.914   2.174  -7.091  0.00  0.00    +0.210 HD
ENDBRANCH  11  12
ENDBRANCH   4  11
BRANCH   2  14
ATOM     14  O   UNL     1       1.410   1.081  -3.166  0.00  0.00    -0.453 OA
BRANCH  14  15
ATOM     15  C   UNL     1       0.112   0.645  -3.461  0.00  0.00    +0.214 A 
ATOM     16  C   UNL     1      -0.654   1.189  -4.653  0.00  0.00    +0.238 A 
ATOM     17  O   UNL     1      -0.342   2.236  -5.216  0.00  0.00    -0.283 OA
ATOM     18  C   UNL     1      -1.868   0.481  -5.077  0.00  0.00    +0.109 A 
ATOM     19  C   UNL     1      -2.392  -0.463  -4.214  0.00  0.00    +0.147 A 
ATOM     20  C   UNL     1      -3.560  -1.161  -4.536  0.00  0.00    +0.092 A 
ATOM     21  C   UNL     1      -4.202  -0.889  -5.739  0.00  0.00    +0.124 A 
ATOM     22  C   UNL     1      -3.702   0.069  -6.613  0.00  0.00    +0.091 A 
ATOM     23  O   UNL     1      -1.831  -0.730  -2.997  0.00  0.00    -0.451 OA
ATOM     24  C   UNL     1      -2.535   0.752  -6.282  0.00  0.00    +0.135 A 
ATOM     25  C   UNL     1      -0.560  -0.244  -2.678  0.00  0.00    +0.181 A 
BRANCH  25  26
ATOM     26  C   UNL     1      -0.136  -0.802  -1.344  0.00  0.00    +0.025 A 
ATOM     27  C   UNL     1      -0.797  -1.957  -0.847  0.00  0.00    +0.015 A 
ATOM     28  C   UNL     1      -0.603  -2.432   0.455  0.00  0.00    +0.050 A 
ATOM     29  C   UNL     1       0.280  -1.771   1.281  0.00  0.00    +0.158 A 
ATOM     30  C   UNL     1       0.978  -0.661   0.815  0.00  0.00    +0.159 A 
ATOM     31  C   UNL     1       0.773  -0.170  -0.481  0.00  0.00    +0.060 A 
BRANCH  29  32
ATOM     32  O   UNL     1       0.442  -2.201   2.566  0.00  0.00    -0.503 OA
ATOM     33  H   UNL     1       1.082  -1.574   2.958  0.00  0.00    +0.292 HD
ENDBRANCH  29  32
BRANCH  30  34
ATOM     34  O   UNL     1       1.848  -0.062   1.687  0.00  0.00    -0.503 OA
ATOM     35  H   UNL     1       2.245   0.718   1.240  0.00  0.00    +0.292 HD
ENDBRANCH  30  34
ENDBRANCH  25  26
BRANCH  24  36
ATOM     36  O   UNL     1      -2.054   1.691  -7.148  0.00  0.00    -0.506 OA
ATOM     37  H   UNL     1      -2.613   1.749  -7.939  0.00  0.00    +0.292 HD
ENDBRANCH  24  36
BRANCH  21  38
ATOM     38  O   UNL     1      -5.339  -1.540  -6.111  0.00  0.00    -0.507 OA
ATOM     39  H   UNL     1      -5.544  -2.232  -5.451  0.00  0.00    +0.292 HD
ENDBRANCH  21  38
ENDBRANCH  14  15
ENDBRANCH   2  14
BRANCH   1  40
ATOM     40  O   UNL     1       2.853   3.149  -1.588  0.00  0.00    -0.337 OA
BRANCH  40  44
ATOM     41  C   UNL     1      -0.399   5.604  -2.675  0.00  0.00    +0.041 C 
ATOM     42  C   UNL     1       0.718   6.084  -1.753  0.00  0.00    +0.149 C 
ATOM     43  O   UNL     1       1.860   5.234  -1.808  0.00  0.00    -0.343 OA
ATOM     44  C   UNL     1       1.706   3.936  -1.255  0.00  0.00    +0.282 C 
ATOM     45  C   UNL     1       1.544   4.086   0.267  0.00  0.00    +0.201 C 
ATOM     46  C   UNL     1       0.330   5.000   0.544  0.00  0.00    +0.179 C 
ATOM     47  C   UNL     1       0.374   6.307  -0.276  0.00  0.00    +0.174 C 
BRANCH  47  48
ATOM     48  O   UNL     1       1.419   7.131   0.281  0.00  0.00    -0.387 OA
ATOM     49  H   UNL     1       2.256   6.914  -0.174  0.00  0.00    +0.210 HD
ENDBRANCH  47  48
BRANCH  46  50
ATOM     50  O   UNL     1      -0.885   4.255   0.351  0.00  0.00    -0.386 OA
ATOM     51  H   UNL     1      -0.977   3.971  -0.573  0.00  0.00    +0.210 HD
ENDBRANCH  46  50
BRANCH  45  52
ATOM     52  O   UNL     1       1.367   2.808   0.900  0.00  0.00    -0.384 OA
ATOM     53  H   UNL     1       0.428   2.761   1.175  0.00  0.00    +0.210 HD
ENDBRANCH  45  52
ENDBRANCH  40  44
ENDBRANCH   1  40
TORSDOF 16
