REMARK  Name = 
REMARK  23 active torsions:
REMARK  status: ('A' for Active; 'I' for Inactive)
REMARK    1  A    between atoms: C_1  and  C_2
REMARK    2  A    between atoms: C_4  and  O_69
REMARK    3  A    between atoms: C_6  and  O_52
REMARK    4  A    between atoms: C_8  and  O_51
REMARK    5  A    between atoms: C_10  and  O_13
REMARK    6  A    between atoms: O_13  and  C_14
REMARK    7  A    between atoms: C_14  and  C_15
REMARK    8  A    between atoms: C_17  and  O_50
REMARK    9  A    between atoms: C_19  and  O_49
REMARK   10  A    between atoms: C_21  and  O_48
REMARK   11  A    between atoms: C_23  and  O_26
REMARK   12  A    between atoms: O_26  and  C_27
REMARK   13  A    between atoms: C_28  and  C_40
REMARK   14  A    between atoms: C_32  and  O_39
REMARK   15  A    between atoms: C_34  and  O_38
REMARK   16  A    between atoms: C_42  and  O_47
REMARK   17  A    between atoms: C_43  and  O_46
REMARK   18  A    between atoms: O_52  and  C_53
REMARK   19  A    between atoms: C_55  and  O_68
REMARK   20  A    between atoms: C_57  and  O_67
REMARK   21  A    between atoms: C_59  and  O_66
REMARK   22  A    between atoms: C_61  and  C_64
REMARK   23  A    between atoms: C_64  and  O_65
REMARK                            x       y       z     vdW  Elec       q    Type
REMARK                         _______ _______ _______ _____ _____    ______ ____
ROOT
ATOM      1  C   UNL     1       3.173   4.520  -4.419  0.00  0.00    +0.179 C 
ATOM      2  O   UNL     1       3.652   5.768  -3.865  0.00  0.00    -0.331 OA
ATOM      3  C   UNL     1       2.666   6.343  -2.994  0.00  0.00    +0.340 C 
ATOM      4  C   UNL     1       1.547   6.899  -3.898  0.00  0.00    +0.214 C 
ATOM      5  C   UNL     1       0.991   5.673  -4.700  0.00  0.00    +0.180 C 
ATOM      6  C   UNL     1       2.096   4.873  -5.439  0.00  0.00    +0.177 C 
ENDROOT
BRANCH   4   7
ATOM      7  O   UNL     1       0.507   7.483  -3.095  0.00  0.00    -0.383 OA
ATOM      8  H   UNL     1      -0.324   7.021  -3.311  0.00  0.00    +0.210 HD
ENDBRANCH   4   7
BRANCH   6   9
ATOM      9  O   UNL     1       2.641   5.647  -6.510  0.00  0.00    -0.386 OA
ATOM     10  H   UNL     1       3.338   6.216  -6.128  0.00  0.00    +0.210 HD
ENDBRANCH   6   9
BRANCH   5  11
ATOM     11  O   UNL     1      -0.062   6.083  -5.577  0.00  0.00    -0.386 OA
ATOM     12  H   UNL     1      -0.038   5.500  -6.359  0.00  0.00    +0.210 HD
ENDBRANCH   5  11
BRANCH   3  13
ATOM     13  O   UNL     1       3.289   7.266  -2.064  0.00  0.00    -0.453 OA
BRANCH  13  14
ATOM     14  C   UNL     1       3.759   6.654  -0.877  0.00  0.00    +0.214 A 
ATOM     15  C   UNL     1       3.797   5.155  -0.745  0.00  0.00    +0.238 A 
ATOM     16  O   UNL     1       3.795   4.397  -1.703  0.00  0.00    -0.283 OA
ATOM     17  C   UNL     1       3.923   4.534   0.550  0.00  0.00    +0.109 A 
ATOM     18  C   UNL     1       4.396   5.334   1.567  0.00  0.00    +0.147 A 
ATOM     19  C   UNL     1       4.669   4.766   2.811  0.00  0.00    +0.092 A 
ATOM     20  C   UNL     1       4.464   3.391   2.996  0.00  0.00    +0.124 A 
ATOM     21  C   UNL     1       3.976   2.584   1.977  0.00  0.00    +0.091 A 
ATOM     22  O   UNL     1       4.650   6.664   1.383  0.00  0.00    -0.451 OA
ATOM     23  C   UNL     1       3.695   3.163   0.749  0.00  0.00    +0.135 A 
ATOM     24  C   UNL     1       4.286   7.328   0.191  0.00  0.00    +0.181 A 
BRANCH  24  25
ATOM     25  C   UNL     1       4.665   8.788   0.278  0.00  0.00    +0.025 A 
ATOM     26  C   UNL     1       5.383   9.234   1.423  0.00  0.00    +0.015 A 
ATOM     27  C   UNL     1       5.963  10.508   1.513  0.00  0.00    +0.050 A 
ATOM     28  C   UNL     1       5.804  11.382   0.459  0.00  0.00    +0.158 A 
ATOM     29  C   UNL     1       5.018  11.023  -0.636  0.00  0.00    +0.159 A 
ATOM     30  C   UNL     1       4.459   9.740  -0.736  0.00  0.00    +0.060 A 
BRANCH  29  31
ATOM     31  O   UNL     1       4.838  11.973  -1.601  0.00  0.00    -0.503 OA
ATOM     32  H   UNL     1       4.007  11.760  -2.062  0.00  0.00    +0.292 HD
ENDBRANCH  29  31
BRANCH  28  33
ATOM     33  O   UNL     1       6.432  12.592   0.499  0.00  0.00    -0.503 OA
ATOM     34  H   UNL     1       6.291  12.974  -0.391  0.00  0.00    +0.292 HD
ENDBRANCH  28  33
ENDBRANCH  24  25
BRANCH  23  35
ATOM     35  O   UNL     1       3.185   2.367  -0.241  0.00  0.00    -0.506 OA
ATOM     36  H   UNL     1       3.303   1.432  -0.008  0.00  0.00    +0.292 HD
ENDBRANCH  23  35
BRANCH  20  37
ATOM     37  O   UNL     1       4.727   2.769   4.184  0.00  0.00    -0.507 OA
ATOM     38  H   UNL     1       5.090   3.418   4.809  0.00  0.00    +0.292 HD
ENDBRANCH  20  37
ENDBRANCH  13  14
ENDBRANCH   3  13
BRANCH   1  39
ATOM     39  C   UNL     1       4.367   3.728  -4.959  0.00  0.00    +0.197 C 
BRANCH  39  40
ATOM     40  O   UNL     1       5.190   3.446  -3.828  0.00  0.00    -0.346 OA
BRANCH  40  44
ATOM     41  C   UNL     1       7.786   0.724  -5.936  0.00  0.00    +0.041 C 
ATOM     42  C   UNL     1       6.993   0.410  -4.670  0.00  0.00    +0.149 C 
ATOM     43  O   UNL     1       5.917   1.342  -4.497  0.00  0.00    -0.343 OA
ATOM     44  C   UNL     1       6.328   2.645  -4.085  0.00  0.00    +0.282 C 
ATOM     45  C   UNL     1       7.086   2.585  -2.742  0.00  0.00    +0.202 C 
ATOM     46  C   UNL     1       8.313   1.668  -2.877  0.00  0.00    +0.186 C 
ATOM     47  C   UNL     1       7.816   0.290  -3.365  0.00  0.00    +0.174 C 
BRANCH  47  48
ATOM     48  O   UNL     1       6.990  -0.313  -2.355  0.00  0.00    -0.387 OA
ATOM     49  H   UNL     1       6.073  -0.013  -2.507  0.00  0.00    +0.210 HD
ENDBRANCH  47  48
BRANCH  45  50
ATOM     50  O   UNL     1       7.427   3.892  -2.266  0.00  0.00    -0.384 OA
ATOM     51  H   UNL     1       6.621   4.433  -2.413  0.00  0.00    +0.210 HD
ENDBRANCH  45  50
BRANCH  46  52
ATOM     52  O   UNL     1       9.301   2.091  -3.833  0.00  0.00    -0.340 OA
BRANCH  52  53
ATOM     53  C   UNL     1       9.880   3.378  -3.656  0.00  0.00    +0.282 C 
ATOM     54  O   UNL     1      10.653   3.694  -4.825  0.00  0.00    -0.341 OA
ATOM     55  C   UNL     1      11.935   3.066  -4.971  0.00  0.00    +0.178 C 
ATOM     56  C   UNL     1      12.783   3.125  -3.687  0.00  0.00    +0.177 C 
ATOM     57  C   UNL     1      11.993   2.753  -2.421  0.00  0.00    +0.179 C 
ATOM     58  C   UNL     1      10.690   3.557  -2.355  0.00  0.00    +0.201 C 
BRANCH  58  59
ATOM     59  O   UNL     1      10.997   4.948  -2.141  0.00  0.00    -0.384 OA
ATOM     60  H   UNL     1      11.415   5.271  -2.966  0.00  0.00    +0.210 HD
ENDBRANCH  58  59
BRANCH  57  61
ATOM     61  O   UNL     1      11.767   1.353  -2.297  0.00  0.00    -0.386 OA
ATOM     62  H   UNL     1      11.461   1.003  -3.161  0.00  0.00    +0.210 HD
ENDBRANCH  57  61
BRANCH  56  63
ATOM     63  O   UNL     1      13.245   4.491  -3.567  0.00  0.00    -0.386 OA
ATOM     64  H   UNL     1      13.619   4.604  -2.673  0.00  0.00    +0.210 HD
ENDBRANCH  56  63
BRANCH  55  65
ATOM     65  C   UNL     1      11.855   1.684  -5.637  0.00  0.00    +0.190 C 
BRANCH  65  66
ATOM     66  O   UNL     1      11.347   0.666  -4.784  0.00  0.00    -0.392 OA
ATOM     67  H   UNL     1      10.395   0.602  -4.997  0.00  0.00    +0.210 HD
ENDBRANCH  65  66
ENDBRANCH  55  65
ENDBRANCH  52  53
ENDBRANCH  46  52
ENDBRANCH  40  44
ENDBRANCH  39  40
ENDBRANCH   1  39
TORSDOF 22
