REMARK  Name = 
REMARK  7 active torsions:
REMARK  status: ('A' for Active; 'I' for Inactive)
REMARK    1  A    between atoms: C_3  and  O_22
REMARK    2  A    between atoms: C_4  and  O_21
REMARK    3  A    between atoms: C_6  and  C_7
REMARK    4  A    between atoms: C_8  and  O_20
REMARK    5  A    between atoms: C_12  and  O_19
REMARK    6  A    between atoms: C_14  and  O_18
REMARK    7  A    between atoms: O_23  and  P_24
REMARK                            x       y       z     vdW  Elec       q    Type
REMARK                         _______ _______ _______ _____ _____    ______ ____
ROOT
ATOM      1  C   UNL     1      -1.878  -2.426  -0.940  0.00  0.00    +0.181 A 
ATOM      2  O   UNL     1      -0.954  -3.434  -0.643  0.00  0.00    -0.451 OA
ATOM      3  C   UNL     1      -1.406  -4.741  -0.497  0.00  0.00    +0.147 A 
ATOM      4  C   UNL     1      -2.759  -5.052  -0.624  0.00  0.00    +0.109 A 
ATOM      5  C   UNL     1      -3.208  -6.377  -0.514  0.00  0.00    +0.135 A 
ATOM      6  C   UNL     1      -2.311  -7.407  -0.274  0.00  0.00    +0.091 A 
ATOM      7  C   UNL     1      -0.963  -7.097  -0.121  0.00  0.00    +0.124 A 
ATOM      8  C   UNL     1      -3.719  -3.979  -0.869  0.00  0.00    +0.238 A 
ATOM      9  O   UNL     1      -4.919  -4.235  -0.930  0.00  0.00    -0.283 OA
ATOM     10  C   UNL     1      -0.501  -5.775  -0.227  0.00  0.00    +0.092 A 
ATOM     11  C   UNL     1      -3.208  -2.620  -1.049  0.00  0.00    +0.208 A 
ENDROOT
BRANCH   1  13
ATOM     12  C   UNL     1      -1.593  -0.068  -0.174  0.00  0.00    +0.015 A 
ATOM     13  C   UNL     1      -1.366  -1.067  -1.151  0.00  0.00    +0.025 A 
ATOM     14  C   UNL     1      -0.801  -0.703  -2.383  0.00  0.00    +0.060 A 
ATOM     15  C   UNL     1      -0.362   0.604  -2.581  0.00  0.00    +0.159 A 
ATOM     16  C   UNL     1      -0.519   1.561  -1.579  0.00  0.00    +0.158 A 
ATOM     17  C   UNL     1      -1.192   1.260  -0.395  0.00  0.00    +0.050 A 
BRANCH  15  18
ATOM     18  O   UNL     1       0.347   0.905  -3.711  0.00  0.00    -0.503 OA
ATOM     19  H   UNL     1       0.854   1.702  -3.462  0.00  0.00    +0.292 HD
ENDBRANCH  15  18
BRANCH  16  20
ATOM     20  O   UNL     1       0.253   2.695  -1.640  0.00  0.00    -0.503 OA
ATOM     21  H   UNL     1       0.915   2.532  -0.928  0.00  0.00    +0.292 HD
ENDBRANCH  16  20
ENDBRANCH   1  13
BRANCH   5  22
ATOM     22  O   UNL     1      -4.524  -6.734  -0.656  0.00  0.00    -0.506 OA
ATOM     23  H   UNL     1      -5.042  -5.907  -0.808  0.00  0.00    +0.292 HD
ENDBRANCH   5  22
BRANCH   7  24
ATOM     24  O   UNL     1      -0.063  -8.093   0.133  0.00  0.00    -0.507 OA
ATOM     25  H   UNL     1      -0.531  -8.949   0.131  0.00  0.00    +0.292 HD
ENDBRANCH   7  24
BRANCH  11  26
ATOM     26  O   UNL     1      -4.115  -1.620  -1.345  0.00  0.00    -0.501 OA
ATOM     27  H   UNL     1      -3.624  -0.785  -1.495  0.00  0.00    +0.292 HD
ENDBRANCH  11  26
TORSDOF 6
REMARK  Name = 
REMARK  7 active torsions:
REMARK  status: ('A' for Active; 'I' for Inactive)
REMARK    1  A    between atoms: C_3  and  O_22
REMARK    2  A    between atoms: C_4  and  O_21
REMARK    3  A    between atoms: C_6  and  C_7
REMARK    4  A    between atoms: C_8  and  O_20
REMARK    5  A    between atoms: C_12  and  O_19
REMARK    6  A    between atoms: C_14  and  O_18
REMARK    7  A    between atoms: O_23  and  P_24
REMARK                            x       y       z     vdW  Elec       q    Type
REMARK                         _______ _______ _______ _____ _____    ______ ____
ROOT
ATOM      1  P   UNL     1       2.764   0.089   0.030  0.00  0.00    -0.019 P 
ATOM      2  O   UNL     1       4.494   0.089   0.030  0.00  0.00    -0.577 OA
ATOM      3  O   UNL     1       2.656  -1.446  -0.069  0.00  0.00    -0.577 OA
ATOM      4  O   UNL     1       2.586   0.510   1.504  0.00  0.00    -0.638 OA
ENDROOT
BRANCH   1   5
ATOM      5  O   UNL     1       1.034   0.089   0.030  0.00  0.00    -0.382 OA
ATOM      6  H   UNL     1       0.973  -0.033   0.997  0.00  0.00    +0.213 HD
ENDBRANCH   1   5
TORSDOF 1
REMARK  Name = 
REMARK  7 active torsions:
REMARK  status: ('A' for Active; 'I' for Inactive)
REMARK    1  A    between atoms: C_3  and  O_22
REMARK    2  A    between atoms: C_4  and  O_21
REMARK    3  A    between atoms: C_6  and  C_7
REMARK    4  A    between atoms: C_8  and  O_20
REMARK    5  A    between atoms: C_12  and  O_19
REMARK    6  A    between atoms: C_14  and  O_18
REMARK    7  A    between atoms: O_23  and  P_24
REMARK                            x       y       z     vdW  Elec       q    Type
REMARK                         _______ _______ _______ _____ _____    ______ ____
ROOT
ATOM      1  K   UNL     1       3.843  -1.595   1.912  0.00  0.00    +0.000 K 
ENDROOT
TORSDOF 0
