REMARK  Name = 
REMARK  16 active torsions:
REMARK  status: ('A' for Active; 'I' for Inactive)
REMARK    1  A    between atoms: C_1  and  C_2
REMARK    2  A    between atoms: C_3  and  O_42
REMARK    3  A    between atoms: C_4  and  O_41
REMARK    4  A    between atoms: C_5  and  O_40
REMARK    5  A    between atoms: C_6  and  O_8
REMARK    6  A    between atoms: O_8  and  C_9
REMARK    7  A    between atoms: C_10  and  O_39
REMARK    8  A    between atoms: C_11  and  O_38
REMARK    9  A    between atoms: C_12  and  C_37
REMARK   10  A    between atoms: C_14  and  O_15
REMARK   11  A    between atoms: O_15  and  C_16
REMARK   12  A    between atoms: C_17  and  C_29
REMARK   13  A    between atoms: C_21  and  O_28
REMARK   14  A    between atoms: C_23  and  O_27
REMARK   15  A    between atoms: C_31  and  O_36
REMARK   16  A    between atoms: C_32  and  O_35
REMARK                            x       y       z     vdW  Elec       q    Type
REMARK                         _______ _______ _______ _____ _____    ______ ____
ROOT
ATOM      1  O   UNL     1      -0.021   3.022  -3.776  0.00  0.00    -0.453 OA
ENDROOT
BRANCH   1   2
ATOM      2  C   UNL     1      -0.845   2.697  -2.693  0.00  0.00    +0.214 A 
ATOM      3  C   UNL     1      -0.523   1.555  -1.762  0.00  0.00    +0.238 A 
ATOM      4  O   UNL     1       0.531   0.936  -1.837  0.00  0.00    -0.283 OA
ATOM      5  C   UNL     1      -1.474   1.239  -0.690  0.00  0.00    +0.109 A 
ATOM      6  C   UNL     1      -2.528   2.119  -0.483  0.00  0.00    +0.147 A 
ATOM      7  C   UNL     1      -3.394   1.949   0.599  0.00  0.00    +0.092 A 
ATOM      8  C   UNL     1      -3.203   0.863   1.457  0.00  0.00    +0.124 A 
ATOM      9  C   UNL     1      -2.179  -0.054   1.238  0.00  0.00    +0.091 A 
ATOM     10  O   UNL     1      -2.766   3.191  -1.299  0.00  0.00    -0.451 OA
ATOM     11  C   UNL     1      -1.320   0.136   0.158  0.00  0.00    +0.135 A 
ATOM     12  C   UNL     1      -1.952   3.426  -2.405  0.00  0.00    +0.181 A 
BRANCH  12  13
ATOM     13  C   UNL     1      -2.451   4.598  -3.199  0.00  0.00    +0.025 A 
ATOM     14  C   UNL     1      -3.193   5.619  -2.556  0.00  0.00    +0.015 A 
ATOM     15  C   UNL     1      -3.751   6.689  -3.269  0.00  0.00    +0.050 A 
ATOM     16  C   UNL     1      -3.550   6.763  -4.637  0.00  0.00    +0.158 A 
ATOM     17  C   UNL     1      -2.806   5.790  -5.291  0.00  0.00    +0.159 A 
ATOM     18  C   UNL     1      -2.288   4.699  -4.591  0.00  0.00    +0.060 A 
BRANCH  16  19
ATOM     19  O   UNL     1      -4.088   7.801  -5.339  0.00  0.00    -0.503 OA
ATOM     20  H   UNL     1      -3.845   7.623  -6.270  0.00  0.00    +0.292 HD
ENDBRANCH  16  19
BRANCH  17  21
ATOM     21  O   UNL     1      -2.605   5.947  -6.636  0.00  0.00    -0.503 OA
ATOM     22  H   UNL     1      -1.928   5.307  -6.918  0.00  0.00    +0.292 HD
ENDBRANCH  17  21
ENDBRANCH  12  13
BRANCH   8  23
ATOM     23  O   UNL     1      -4.002   0.652   2.538  0.00  0.00    -0.507 OA
ATOM     24  H   UNL     1      -4.657   1.368   2.597  0.00  0.00    +0.292 HD
ENDBRANCH   8  23
BRANCH  11  25
ATOM     25  O   UNL     1      -0.336  -0.788  -0.056  0.00  0.00    -0.506 OA
ATOM     26  H   UNL     1      -0.279  -1.401   0.692  0.00  0.00    +0.292 HD
ENDBRANCH  11  25
ENDBRANCH   1   2
BRANCH   1  28
ATOM     27  C   UNL     1       2.326   2.812  -3.035  0.00  0.00    +0.221 C 
ATOM     28  C   UNL     1       1.207   2.295  -3.991  0.00  0.00    +0.340 C 
ATOM     29  O   UNL     1       1.596   2.356  -5.381  0.00  0.00    -0.334 OA
ATOM     30  C   UNL     1       2.122   3.581  -5.878  0.00  0.00    +0.150 C 
ATOM     31  C   UNL     1       0.996   4.557  -6.203  0.00  0.00    +0.041 C 
ATOM     32  C   UNL     1       3.227   4.150  -4.982  0.00  0.00    +0.174 C 
ATOM     33  C   UNL     1       2.767   4.203  -3.525  0.00  0.00    +0.180 C 
BRANCH  32  34
ATOM     34  O   UNL     1       3.657   5.451  -5.399  0.00  0.00    -0.387 OA
ATOM     35  H   UNL     1       3.070   6.117  -4.996  0.00  0.00    +0.210 HD
ENDBRANCH  32  34
BRANCH  33  36
ATOM     36  O   UNL     1       3.782   4.794  -2.698  0.00  0.00    -0.386 OA
ATOM     37  H   UNL     1       4.538   5.010  -3.283  0.00  0.00    +0.210 HD
ENDBRANCH  33  36
BRANCH  27  38
ATOM     38  O   UNL     1       3.388   1.832  -2.945  0.00  0.00    -0.337 OA
BRANCH  38  42
ATOM     39  C   UNL     1       7.399   2.558  -1.995  0.00  0.00    +0.041 C 
ATOM     40  C   UNL     1       6.610   1.443  -1.292  0.00  0.00    +0.149 C 
ATOM     41  O   UNL     1       5.414   1.097  -2.034  0.00  0.00    -0.343 OA
ATOM     42  C   UNL     1       4.422   2.131  -2.009  0.00  0.00    +0.282 C 
ATOM     43  C   UNL     1       3.955   2.345  -0.553  0.00  0.00    +0.201 C 
ATOM     44  C   UNL     1       5.152   2.794   0.284  0.00  0.00    +0.179 C 
ATOM     45  C   UNL     1       6.300   1.777   0.181  0.00  0.00    +0.174 C 
BRANCH  43  46
ATOM     46  O   UNL     1       3.437   1.134   0.035  0.00  0.00    -0.384 OA
ATOM     47  H   UNL     1       3.282   0.509  -0.704  0.00  0.00    +0.210 HD
ENDBRANCH  43  46
BRANCH  44  48
ATOM     48  O   UNL     1       4.769   2.948   1.659  0.00  0.00    -0.386 OA
ATOM     49  H   UNL     1       4.167   2.196   1.842  0.00  0.00    +0.210 HD
ENDBRANCH  44  48
BRANCH  45  50
ATOM     50  O   UNL     1       7.478   2.269   0.830  0.00  0.00    -0.387 OA
ATOM     51  H   UNL     1       7.230   3.080   1.311  0.00  0.00    +0.210 HD
ENDBRANCH  45  50
ENDBRANCH  38  42
ENDBRANCH  27  38
ENDBRANCH   1  28
TORSDOF 14
