REMARK  Name = 
REMARK  12 active torsions:
REMARK  status: ('A' for Active; 'I' for Inactive)
REMARK    1  A    between atoms: C_3  and  O_22
REMARK    2  A    between atoms: C_4  and  O_21
REMARK    3  A    between atoms: C_6  and  C_7
REMARK    4  A    between atoms: C_8  and  O_20
REMARK    5  A    between atoms: C_12  and  O_19
REMARK    6  A    between atoms: C_14  and  O_18
REMARK    7  A    between atoms: O_22  and  C_23
REMARK    8  A    between atoms: C_25  and  O_39
REMARK    9  A    between atoms: C_27  and  O_38
REMARK   10  A    between atoms: C_29  and  O_37
REMARK   11  A    between atoms: C_31  and  C_34
REMARK   12  A    between atoms: C_34  and  O_36
REMARK                            x       y       z     vdW  Elec       q    Type
REMARK                         _______ _______ _______ _____ _____    ______ ____
ROOT
ATOM      1  C   UNL     1      -1.413  -0.177   0.247  0.00  0.00    +0.015 A 
ATOM      2  C   UNL     1      -0.643  -1.322   0.010  0.00  0.00    +0.025 A 
ATOM      3  C   UNL     1       0.742  -1.144  -0.148  0.00  0.00    +0.060 A 
ATOM      4  C   UNL     1       1.308   0.142  -0.127  0.00  0.00    +0.159 A 
ATOM      5  C   UNL     1       0.519   1.286   0.009  0.00  0.00    +0.165 A 
ATOM      6  C   UNL     1      -0.843   1.098   0.258  0.00  0.00    +0.050 A 
ENDROOT
BRANCH   2   7
ATOM      7  C   UNL     1      -1.359  -2.619  -0.164  0.00  0.00    +0.181 A 
ATOM      8  O   UNL     1      -2.605  -2.434  -0.765  0.00  0.00    -0.451 OA
ATOM      9  C   UNL     1      -3.442  -3.509  -0.935  0.00  0.00    +0.147 A 
ATOM     10  C   UNL     1      -3.050  -4.810  -0.663  0.00  0.00    +0.109 A 
ATOM     11  C   UNL     1      -3.940  -5.868  -0.884  0.00  0.00    +0.135 A 
ATOM     12  C   UNL     1      -5.225  -5.622  -1.364  0.00  0.00    +0.091 A 
ATOM     13  C   UNL     1      -5.611  -4.312  -1.622  0.00  0.00    +0.124 A 
ATOM     14  C   UNL     1      -1.704  -5.031  -0.116  0.00  0.00    +0.238 A 
ATOM     15  O   UNL     1      -1.322  -6.180   0.092  0.00  0.00    -0.283 OA
ATOM     16  C   UNL     1      -4.728  -3.251  -1.414  0.00  0.00    +0.092 A 
ATOM     17  C   UNL     1      -0.882  -3.828   0.198  0.00  0.00    +0.208 A 
BRANCH  11  18
ATOM     18  O   UNL     1      -3.616  -7.177  -0.644  0.00  0.00    -0.506 OA
ATOM     19  H   UNL     1      -2.684  -7.205  -0.322  0.00  0.00    +0.292 HD
ENDBRANCH  11  18
BRANCH  13  20
ATOM     20  O   UNL     1      -6.862  -4.021  -2.083  0.00  0.00    -0.507 OA
ATOM     21  H   UNL     1      -7.363  -4.851  -2.177  0.00  0.00    +0.292 HD
ENDBRANCH  13  20
BRANCH  17  22
ATOM     22  O   UNL     1       0.307  -4.049   0.867  0.00  0.00    -0.501 OA
ATOM     23  H   UNL     1       0.580  -3.228   1.309  0.00  0.00    +0.292 HD
ENDBRANCH  17  22
ENDBRANCH   2   7
BRANCH   4  24
ATOM     24  O   UNL     1       2.663   0.236  -0.291  0.00  0.00    -0.503 OA
ATOM     25  H   UNL     1       2.859   1.189  -0.382  0.00  0.00    +0.292 HD
ENDBRANCH   4  24
BRANCH   5  26
ATOM     26  O   UNL     1       1.125   2.523  -0.170  0.00  0.00    -0.457 OA
BRANCH  26  27
ATOM     27  C   UNL     1       0.190   3.579  -0.457  0.00  0.00    +0.340 C 
ATOM     28  O   UNL     1      -0.670   3.271  -1.563  0.00  0.00    -0.322 OA
ATOM     29  C   UNL     1      -0.190   3.597  -2.857  0.00  0.00    +0.261 C 
ATOM     30  C   UNL     1      -0.019   5.116  -2.938  0.00  0.00    +0.185 C 
ATOM     31  C   UNL     1       1.037   5.582  -1.921  0.00  0.00    +0.180 C 
ATOM     32  C   UNL     1       0.760   5.027  -0.511  0.00  0.00    +0.214 C 
BRANCH  29  33
ATOM     33  C   UNL     1       1.082   2.924  -3.408  0.00  0.00    +0.337 C 
ATOM     34  O   UNL     1       2.076   2.678  -2.736  0.00  0.00    -0.248 OA
BRANCH  33  35
ATOM     35  O   UNL     1       1.069   2.731  -4.748  0.00  0.00    -0.479 OA
ATOM     36  H   UNL     1       0.240   2.970  -5.206  0.00  0.00    +0.295 HD
ENDBRANCH  33  35
ENDBRANCH  29  33
BRANCH  30  37
ATOM     37  O   UNL     1      -1.294   5.718  -2.635  0.00  0.00    -0.386 OA
ATOM     38  H   UNL     1      -1.187   6.687  -2.667  0.00  0.00    +0.210 HD
ENDBRANCH  30  37
BRANCH  31  39
ATOM     39  O   UNL     1       2.360   5.325  -2.382  0.00  0.00    -0.386 OA
ATOM     40  H   UNL     1       2.618   4.397  -2.194  0.00  0.00    +0.210 HD
ENDBRANCH  31  39
BRANCH  32  41
ATOM     41  O   UNL     1      -0.258   5.901   0.052  0.00  0.00    -0.383 OA
ATOM     42  H   UNL     1      -1.084   5.725  -0.447  0.00  0.00    +0.210 HD
ENDBRANCH  32  41
ENDBRANCH  26  27
ENDBRANCH   5  26
TORSDOF 12
