REMARK  Name = 
REMARK  23 active torsions:
REMARK  status: ('A' for Active; 'I' for Inactive)
REMARK    1  A    between atoms: C_1  and  C_2
REMARK    2  A    between atoms: C_4  and  O_69
REMARK    3  A    between atoms: C_6  and  O_52
REMARK    4  A    between atoms: C_8  and  O_51
REMARK    5  A    between atoms: C_10  and  O_13
REMARK    6  A    between atoms: O_13  and  C_14
REMARK    7  A    between atoms: C_14  and  C_15
REMARK    8  A    between atoms: C_17  and  O_50
REMARK    9  A    between atoms: C_19  and  O_49
REMARK   10  A    between atoms: C_21  and  O_48
REMARK   11  A    between atoms: C_23  and  O_26
REMARK   12  A    between atoms: O_26  and  C_27
REMARK   13  A    between atoms: C_28  and  C_40
REMARK   14  A    between atoms: C_32  and  O_39
REMARK   15  A    between atoms: C_34  and  O_38
REMARK   16  A    between atoms: C_42  and  O_47
REMARK   17  A    between atoms: C_43  and  O_46
REMARK   18  A    between atoms: O_52  and  C_53
REMARK   19  A    between atoms: C_55  and  O_68
REMARK   20  A    between atoms: C_57  and  O_67
REMARK   21  A    between atoms: C_59  and  O_66
REMARK   22  A    between atoms: C_61  and  C_64
REMARK   23  A    between atoms: C_64  and  O_65
REMARK                            x       y       z     vdW  Elec       q    Type
REMARK                         _______ _______ _______ _____ _____    ______ ____
ROOT
ATOM      1  C   UNL     1       3.276   4.345  -4.438  0.00  0.00    +0.179 C 
ATOM      2  O   UNL     1       3.753   5.588  -3.886  0.00  0.00    -0.331 OA
ATOM      3  C   UNL     1       2.757   6.189  -3.045  0.00  0.00    +0.340 C 
ATOM      4  C   UNL     1       1.673   6.747  -3.997  0.00  0.00    +0.214 C 
ATOM      5  C   UNL     1       1.097   5.505  -4.752  0.00  0.00    +0.180 C 
ATOM      6  C   UNL     1       2.185   4.661  -5.458  0.00  0.00    +0.177 C 
ENDROOT
BRANCH   4   7
ATOM      7  O   UNL     1       0.646   7.426  -3.259  0.00  0.00    -0.383 OA
ATOM      8  H   UNL     1      -0.066   6.789  -3.075  0.00  0.00    +0.210 HD
ENDBRANCH   4   7
BRANCH   6   9
ATOM      9  O   UNL     1       1.553   3.479  -5.969  0.00  0.00    -0.386 OA
ATOM     10  H   UNL     1       2.220   2.954  -6.447  0.00  0.00    +0.210 HD
ENDBRANCH   6   9
BRANCH   5  11
ATOM     11  O   UNL     1       0.091   5.865  -5.704  0.00  0.00    -0.386 OA
ATOM     12  H   UNL     1      -0.136   5.025  -6.155  0.00  0.00    +0.210 HD
ENDBRANCH   5  11
BRANCH   3  13
ATOM     13  O   UNL     1       3.373   7.116  -2.114  0.00  0.00    -0.453 OA
BRANCH  13  14
ATOM     14  C   UNL     1       3.827   6.517  -0.914  0.00  0.00    +0.214 A 
ATOM     15  C   UNL     1       3.844   5.015  -0.766  0.00  0.00    +0.238 A 
ATOM     16  O   UNL     1       3.841   4.244  -1.712  0.00  0.00    -0.283 OA
ATOM     17  C   UNL     1       3.947   4.406   0.539  0.00  0.00    +0.109 A 
ATOM     18  C   UNL     1       4.422   5.211   1.549  0.00  0.00    +0.147 A 
ATOM     19  C   UNL     1       4.680   4.653   2.800  0.00  0.00    +0.092 A 
ATOM     20  C   UNL     1       4.445   3.284   3.003  0.00  0.00    +0.124 A 
ATOM     21  C   UNL     1       3.964   2.474   1.989  0.00  0.00    +0.091 A 
ATOM     22  O   UNL     1       4.698   6.535   1.352  0.00  0.00    -0.451 OA
ATOM     23  C   UNL     1       3.698   3.039   0.753  0.00  0.00    +0.135 A 
ATOM     24  C   UNL     1       4.352   7.189   0.150  0.00  0.00    +0.181 A 
BRANCH  24  25
ATOM     25  C   UNL     1       4.756   8.648   0.233  0.00  0.00    +0.025 A 
ATOM     26  C   UNL     1       5.456   9.090   1.392  0.00  0.00    +0.015 A 
ATOM     27  C   UNL     1       6.067  10.347   1.481  0.00  0.00    +0.050 A 
ATOM     28  C   UNL     1       5.965  11.210   0.413  0.00  0.00    +0.158 A 
ATOM     29  C   UNL     1       5.193  10.862  -0.689  0.00  0.00    +0.159 A 
ATOM     30  C   UNL     1       4.596   9.595  -0.793  0.00  0.00    +0.060 A 
BRANCH  29  31
ATOM     31  O   UNL     1       5.051  11.810  -1.667  0.00  0.00    -0.503 OA
ATOM     32  H   UNL     1       4.187  11.659  -2.090  0.00  0.00    +0.292 HD
ENDBRANCH  29  31
BRANCH  28  33
ATOM     33  O   UNL     1       6.636  12.398   0.451  0.00  0.00    -0.503 OA
ATOM     34  H   UNL     1       6.540  12.765  -0.450  0.00  0.00    +0.292 HD
ENDBRANCH  28  33
ENDBRANCH  24  25
BRANCH  23  35
ATOM     35  O   UNL     1       3.176   2.245  -0.230  0.00  0.00    -0.506 OA
ATOM     36  H   UNL     1       3.301   1.309  -0.004  0.00  0.00    +0.292 HD
ENDBRANCH  23  35
BRANCH  20  37
ATOM     37  O   UNL     1       4.690   2.687   4.201  0.00  0.00    -0.507 OA
ATOM     38  H   UNL     1       5.057   3.340   4.814  0.00  0.00    +0.292 HD
ENDBRANCH  20  37
ENDBRANCH  13  14
ENDBRANCH   3  13
BRANCH   1  39
ATOM     39  C   UNL     1       4.474   3.555  -4.974  0.00  0.00    +0.197 C 
BRANCH  39  40
ATOM     40  O   UNL     1       5.350   3.338  -3.869  0.00  0.00    -0.346 OA
BRANCH  40  44
ATOM     41  C   UNL     1       7.953   0.641  -6.014  0.00  0.00    +0.041 C 
ATOM     42  C   UNL     1       7.191   0.324  -4.732  0.00  0.00    +0.149 C 
ATOM     43  O   UNL     1       6.100   1.235  -4.536  0.00  0.00    -0.343 OA
ATOM     44  C   UNL     1       6.496   2.551  -4.149  0.00  0.00    +0.282 C 
ATOM     45  C   UNL     1       7.286   2.523  -2.825  0.00  0.00    +0.202 C 
ATOM     46  C   UNL     1       8.516   1.620  -2.967  0.00  0.00    +0.186 C 
ATOM     47  C   UNL     1       8.051   0.232  -3.452  0.00  0.00    +0.174 C 
BRANCH  47  48
ATOM     48  O   UNL     1       7.277  -0.393  -2.415  0.00  0.00    -0.387 OA
ATOM     49  H   UNL     1       6.347  -0.121  -2.540  0.00  0.00    +0.210 HD
ENDBRANCH  47  48
BRANCH  45  50
ATOM     50  O   UNL     1       7.652   3.832  -2.371  0.00  0.00    -0.384 OA
ATOM     51  H   UNL     1       6.928   4.426  -2.662  0.00  0.00    +0.210 HD
ENDBRANCH  45  50
BRANCH  46  52
ATOM     52  O   UNL     1       9.508   2.060  -3.908  0.00  0.00    -0.340 OA
BRANCH  52  53
ATOM     53  C   UNL     1      10.056   3.366  -3.766  0.00  0.00    +0.282 C 
ATOM     54  O   UNL     1      10.828   3.679  -4.937  0.00  0.00    -0.341 OA
ATOM     55  C   UNL     1      12.061   2.955  -5.112  0.00  0.00    +0.178 C 
ATOM     56  C   UNL     1      12.941   3.034  -3.851  0.00  0.00    +0.177 C 
ATOM     57  C   UNL     1      12.168   2.686  -2.576  0.00  0.00    +0.179 C 
ATOM     58  C   UNL     1      10.888   3.536  -2.478  0.00  0.00    +0.201 C 
BRANCH  58  59
ATOM     59  O   UNL     1      11.239   4.914  -2.273  0.00  0.00    -0.384 OA
ATOM     60  H   UNL     1      11.621   5.235  -3.115  0.00  0.00    +0.210 HD
ENDBRANCH  58  59
BRANCH  57  61
ATOM     61  O   UNL     1      11.910   1.281  -2.502  0.00  0.00    -0.386 OA
ATOM     62  H   UNL     1      11.047   1.098  -2.917  0.00  0.00    +0.210 HD
ENDBRANCH  57  61
BRANCH  56  63
ATOM     63  O   UNL     1      13.435   4.386  -3.760  0.00  0.00    -0.386 OA
ATOM     64  H   UNL     1      13.809   4.512  -2.868  0.00  0.00    +0.210 HD
ENDBRANCH  56  63
BRANCH  55  65
ATOM     65  C   UNL     1      11.853   1.525  -5.645  0.00  0.00    +0.190 C 
BRANCH  65  66
ATOM     66  O   UNL     1      11.125   1.503  -6.874  0.00  0.00    -0.392 OA
ATOM     67  H   UNL     1      11.578   2.093  -7.501  0.00  0.00    +0.210 HD
ENDBRANCH  65  66
ENDBRANCH  55  65
ENDBRANCH  52  53
ENDBRANCH  46  52
ENDBRANCH  40  44
ENDBRANCH  39  40
ENDBRANCH   1  39
TORSDOF 22
