REMARK  Name = 
REMARK  22 active torsions:
REMARK  status: ('A' for Active; 'I' for Inactive)
REMARK    1  A    between atoms: C_1  and  C_2
REMARK    2  A    between atoms: C_4  and  O_68
REMARK    3  A    between atoms: C_6  and  O_67
REMARK    4  A    between atoms: C_8  and  O_66
REMARK    5  A    between atoms: C_10  and  O_13
REMARK    6  A    between atoms: O_13  and  C_14
REMARK    7  A    between atoms: C_16  and  O_65
REMARK    8  A    between atoms: C_18  and  O_64
REMARK    9  A    between atoms: C_20  and  C_62
REMARK   10  A    between atoms: C_23  and  O_25
REMARK   11  A    between atoms: O_25  and  C_26
REMARK   12  A    between atoms: C_27  and  C_54
REMARK   13  A    between atoms: C_31  and  O_38
REMARK   14  A    between atoms: C_33  and  O_37
REMARK   15  A    between atoms: O_38  and  C_39
REMARK   16  A    between atoms: C_41  and  O_53
REMARK   17  A    between atoms: C_43  and  O_52
REMARK   18  A    between atoms: C_45  and  O_51
REMARK   19  A    between atoms: C_47  and  C_50
REMARK   20  A    between atoms: C_56  and  O_61
REMARK   21  A    between atoms: C_57  and  O_60
REMARK   22  A    between atoms: C_62  and  O_63
REMARK                            x       y       z     vdW  Elec       q    Type
REMARK                         _______ _______ _______ _____ _____    ______ ____
ROOT
ATOM      1  C   UNL     1       0.548   0.689  -2.677  0.00  0.00    +0.214 A 
ATOM      2  C   UNL     1       0.194  -0.750  -2.387  0.00  0.00    +0.238 A 
ATOM      3  O   UNL     1       0.498  -1.652  -3.162  0.00  0.00    -0.283 OA
ATOM      4  C   UNL     1      -0.471  -1.007  -1.093  0.00  0.00    +0.109 A 
ATOM      5  C   UNL     1      -1.051   0.081  -0.458  0.00  0.00    +0.147 A 
ATOM      6  C   UNL     1      -1.615  -0.041   0.815  0.00  0.00    +0.093 A 
ATOM      7  C   UNL     1      -1.653  -1.280   1.454  0.00  0.00    +0.131 A 
ATOM      8  C   UNL     1      -1.105  -2.392   0.808  0.00  0.00    +0.092 A 
ATOM      9  O   UNL     1      -1.114   1.319  -1.041  0.00  0.00    -0.451 OA
ATOM     10  C   UNL     1      -0.519  -2.256  -0.464  0.00  0.00    +0.135 A 
ATOM     11  C   UNL     1      -0.206   1.624  -2.047  0.00  0.00    +0.181 A 
ENDROOT
BRANCH  11  12
ATOM     12  C   UNL     1      -0.187   3.099  -2.245  0.00  0.00    +0.025 A 
ATOM     13  C   UNL     1       0.576   3.894  -1.369  0.00  0.00    +0.015 A 
ATOM     14  C   UNL     1       0.401   5.284  -1.315  0.00  0.00    +0.050 A 
ATOM     15  C   UNL     1      -0.533   5.889  -2.141  0.00  0.00    +0.158 A 
ATOM     16  C   UNL     1      -1.273   5.127  -3.041  0.00  0.00    +0.159 A 
ATOM     17  C   UNL     1      -1.119   3.735  -3.094  0.00  0.00    +0.060 A 
BRANCH  16  18
ATOM     18  O   UNL     1      -2.163   5.803  -3.833  0.00  0.00    -0.503 OA
ATOM     19  H   UNL     1      -2.422   5.221  -4.567  0.00  0.00    +0.292 HD
ENDBRANCH  16  18
BRANCH  15  20
ATOM     20  O   UNL     1      -0.740   7.236  -2.043  0.00  0.00    -0.503 OA
ATOM     21  H   UNL     1      -1.491   7.422  -2.642  0.00  0.00    +0.292 HD
ENDBRANCH  15  20
ENDBRANCH  11  12
BRANCH  10  22
ATOM     22  O   UNL     1       0.019  -3.354  -1.076  0.00  0.00    -0.506 OA
ATOM     23  H   UNL     1      -0.154  -4.158  -0.561  0.00  0.00    +0.292 HD
ENDBRANCH  10  22
BRANCH   7  24
ATOM     24  O   UNL     1      -2.170  -1.480   2.716  0.00  0.00    -0.461 OA
BRANCH  24  25
ATOM     25  C   UNL     1      -3.242  -0.591   3.093  0.00  0.00    +0.339 C 
ATOM     26  O   UNL     1      -2.790   0.689   3.562  0.00  0.00    -0.334 OA
ATOM     27  C   UNL     1      -2.057   0.646   4.785  0.00  0.00    +0.150 C 
ATOM     28  C   UNL     1      -1.620   2.074   5.109  0.00  0.00    +0.041 C 
ATOM     29  C   UNL     1      -2.904   0.080   5.933  0.00  0.00    +0.174 C 
ATOM     30  C   UNL     1      -3.513  -1.278   5.544  0.00  0.00    +0.180 C 
ATOM     31  C   UNL     1      -4.161  -1.252   4.147  0.00  0.00    +0.214 C 
BRANCH  31  32
ATOM     32  O   UNL     1      -5.425  -0.564   4.184  0.00  0.00    -0.383 OA
ATOM     33  H   UNL     1      -5.333   0.223   4.752  0.00  0.00    +0.210 HD
ENDBRANCH  31  32
BRANCH  30  34
ATOM     34  O   UNL     1      -4.487  -1.638   6.537  0.00  0.00    -0.386 OA
ATOM     35  H   UNL     1      -4.919  -2.464   6.261  0.00  0.00    +0.210 HD
ENDBRANCH  30  34
BRANCH  29  36
ATOM     36  O   UNL     1      -2.119  -0.030   7.128  0.00  0.00    -0.387 OA
ATOM     37  H   UNL     1      -1.312  -0.533   6.931  0.00  0.00    +0.210 HD
ENDBRANCH  29  36
ENDBRANCH  24  25
ENDBRANCH   7  24
BRANCH   1  38
ATOM     38  O   UNL     1       1.554   1.028  -3.567  0.00  0.00    -0.453 OA
BRANCH  38  40
ATOM     39  C   UNL     1       3.339  -0.591  -2.631  0.00  0.00    +0.221 C 
ATOM     40  C   UNL     1       2.653   0.122  -3.854  0.00  0.00    +0.340 C 
ATOM     41  O   UNL     1       2.357  -0.774  -4.949  0.00  0.00    -0.331 OA
ATOM     42  C   UNL     1       3.523  -1.493  -5.398  0.00  0.00    +0.179 C 
ATOM     43  C   UNL     1       4.009  -2.434  -4.282  0.00  0.00    +0.177 C 
ATOM     44  C   UNL     1       4.447  -1.548  -3.126  0.00  0.00    +0.180 C 
BRANCH  44  45
ATOM     45  O   UNL     1       4.995  -2.291  -2.037  0.00  0.00    -0.386 OA
ATOM     46  H   UNL     1       5.168  -1.634  -1.336  0.00  0.00    +0.210 HD
ENDBRANCH  44  45
BRANCH  43  47
ATOM     47  O   UNL     1       3.001  -3.372  -3.912  0.00  0.00    -0.386 OA
ATOM     48  H   UNL     1       2.170  -2.876  -3.748  0.00  0.00    +0.210 HD
ENDBRANCH  43  47
BRANCH  42  49
ATOM     49  C   UNL     1       3.262  -2.275  -6.687  0.00  0.00    +0.190 C 
BRANCH  49  50
ATOM     50  O   UNL     1       4.503  -2.708  -7.253  0.00  0.00    -0.392 OA
ATOM     51  H   UNL     1       4.813  -3.472  -6.734  0.00  0.00    +0.210 HD
ENDBRANCH  49  50
ENDBRANCH  42  49
BRANCH  39  52
ATOM     52  O   UNL     1       3.828   0.276  -1.570  0.00  0.00    -0.337 OA
BRANCH  52  56
ATOM     53  C   UNL     1       6.287   1.996  -4.490  0.00  0.00    +0.041 C 
ATOM     54  C   UNL     1       6.854   1.476  -3.173  0.00  0.00    +0.149 C 
ATOM     55  O   UNL     1       5.921   0.632  -2.506  0.00  0.00    -0.343 OA
ATOM     56  C   UNL     1       4.770   1.268  -1.971  0.00  0.00    +0.282 C 
ATOM     57  C   UNL     1       5.236   2.146  -0.796  0.00  0.00    +0.201 C 
ATOM     58  C   UNL     1       6.264   3.170  -1.331  0.00  0.00    +0.179 C 
ATOM     59  C   UNL     1       7.377   2.512  -2.172  0.00  0.00    +0.174 C 
BRANCH  59  60
ATOM     60  O   UNL     1       8.258   1.821  -1.260  0.00  0.00    -0.387 OA
ATOM     61  H   UNL     1       7.899   0.929  -1.091  0.00  0.00    +0.210 HD
ENDBRANCH  59  60
BRANCH  58  62
ATOM     62  O   UNL     1       5.586   4.213  -2.052  0.00  0.00    -0.386 OA
ATOM     63  H   UNL     1       5.044   3.849  -2.770  0.00  0.00    +0.210 HD
ENDBRANCH  58  62
BRANCH  57  64
ATOM     64  O   UNL     1       4.137   2.824  -0.176  0.00  0.00    -0.384 OA
ATOM     65  H   UNL     1       4.136   3.739  -0.517  0.00  0.00    +0.210 HD
ENDBRANCH  57  64
ENDBRANCH  52  56
ENDBRANCH  39  52
ENDBRANCH  38  40
ENDBRANCH   1  38
TORSDOF 20
