REMARK  Name = 
REMARK  9 active torsions:
REMARK  status: ('A' for Active; 'I' for Inactive)
REMARK    1  A    between atoms: C_1  and  O_2
REMARK    2  A    between atoms: O_2  and  C_3
REMARK    3  A    between atoms: C_4  and  O_24
REMARK    4  A    between atoms: C_6  and  C_9
REMARK    5  A    between atoms: C_10  and  O_23
REMARK    6  A    between atoms: C_14  and  O_22
REMARK    7  A    between atoms: C_16  and  O_20
REMARK    8  A    between atoms: O_20  and  C_21
REMARK    9  A    between atoms: O_24  and  C_25
REMARK                            x       y       z     vdW  Elec       q    Type
REMARK                         _______ _______ _______ _____ _____    ______ ____
ROOT
ATOM      1  C   UNL     1       5.146  -4.945   1.215  0.00  0.00    +0.181 A 
ATOM      2  O   UNL     1       6.519  -4.884   1.473  0.00  0.00    -0.451 OA
ATOM      3  C   UNL     1       7.210  -6.058   1.684  0.00  0.00    +0.147 A 
ATOM      4  C   UNL     1       6.617  -7.309   1.573  0.00  0.00    +0.109 A 
ATOM      5  C   UNL     1       7.372  -8.470   1.759  0.00  0.00    +0.135 A 
ATOM      6  C   UNL     1       8.722  -8.385   2.081  0.00  0.00    +0.092 A 
ATOM      7  C   UNL     1       9.329  -7.138   2.217  0.00  0.00    +0.127 A 
ATOM      8  C   UNL     1       5.187  -7.384   1.288  0.00  0.00    +0.238 A 
ATOM      9  O   UNL     1       4.642  -8.478   1.165  0.00  0.00    -0.283 OA
ATOM     10  C   UNL     1       8.568  -5.975   2.015  0.00  0.00    +0.092 A 
ATOM     11  C   UNL     1       4.447  -6.103   1.181  0.00  0.00    +0.208 A 
ENDROOT
BRANCH   1  15
ATOM     12  C   UNL     1       3.245  -1.128   0.433  0.00  0.00    +0.162 A 
ATOM     13  C   UNL     1       2.837  -2.279  -0.232  0.00  0.00    +0.050 A 
ATOM     14  C   UNL     1       3.489  -3.493  -0.003  0.00  0.00    +0.015 A 
ATOM     15  C   UNL     1       4.516  -3.617   0.950  0.00  0.00    +0.025 A 
ATOM     16  C   UNL     1       4.936  -2.444   1.607  0.00  0.00    +0.061 A 
ATOM     17  C   UNL     1       4.322  -1.204   1.345  0.00  0.00    +0.162 A 
BRANCH  12  19
ATOM     18  C   UNL     1       1.536   0.197  -0.588  0.00  0.00    +0.277 C 
ATOM     19  O   UNL     1       2.677   0.110   0.256  0.00  0.00    -0.491 OA
ENDBRANCH  12  19
BRANCH  17  20
ATOM     20  O   UNL     1       4.691  -0.009   1.914  0.00  0.00    -0.491 OA
ATOM     21  C   UNL     1       5.841   0.016   2.742  0.00  0.00    +0.277 C 
ENDBRANCH  17  20
ENDBRANCH   1  15
BRANCH   5  22
ATOM     22  O   UNL     1       6.850  -9.732   1.645  0.00  0.00    -0.506 OA
ATOM     23  H   UNL     1       5.893  -9.648   1.420  0.00  0.00    +0.292 HD
ENDBRANCH   5  22
BRANCH   7  24
ATOM     24  O   UNL     1      10.644  -6.938   2.545  0.00  0.00    -0.495 OA
ATOM     25  C   UNL     1      11.433  -8.109   2.754  0.00  0.00    +0.277 C 
ENDBRANCH   7  24
BRANCH  11  26
ATOM     26  O   UNL     1       3.074  -6.207   1.044  0.00  0.00    -0.501 OA
ATOM     27  H   UNL     1       2.666  -5.409   1.419  0.00  0.00    +0.292 HD
ENDBRANCH  11  26
TORSDOF 6
