REMARK  Name = 
REMARK  17 active torsions:
REMARK  status: ('A' for Active; 'I' for Inactive)
REMARK    1  A    between atoms: C_1  and  C_2
REMARK    2  A    between atoms: C_4  and  O_53
REMARK    3  A    between atoms: C_6  and  O_16
REMARK    4  A    between atoms: C_8  and  O_15
REMARK    5  A    between atoms: C_10  and  C_13
REMARK    6  A    between atoms: C_13  and  O_14
REMARK    7  A    between atoms: O_16  and  C_17
REMARK    8  A    between atoms: C_19  and  O_52
REMARK    9  A    between atoms: C_21  and  O_51
REMARK   10  A    between atoms: C_23  and  O_50
REMARK   11  A    between atoms: C_25  and  O_28
REMARK   12  A    between atoms: O_28  and  C_29
REMARK   13  A    between atoms: C_30  and  C_42
REMARK   14  A    between atoms: C_34  and  O_41
REMARK   15  A    between atoms: C_36  and  O_40
REMARK   16  A    between atoms: C_44  and  O_49
REMARK   17  A    between atoms: C_45  and  O_48
REMARK                            x       y       z     vdW  Elec       q    Type
REMARK                         _______ _______ _______ _____ _____    ______ ____
ROOT
ATOM      1  C   UNL     1       1.012  -1.654  -3.214  0.00  0.00    +0.286 C 
ATOM      2  O   UNL     1      -0.365  -1.313  -2.922  0.00  0.00    -0.307 OA
ATOM      3  C   UNL     1      -1.310  -2.364  -2.692  0.00  0.00    +0.341 C 
ATOM      4  C   UNL     1      -1.179  -3.528  -3.722  0.00  0.00    +0.214 C 
ATOM      5  C   UNL     1       0.274  -3.933  -3.972  0.00  0.00    +0.182 C 
ATOM      6  C   UNL     1       1.095  -2.704  -4.346  0.00  0.00    +0.201 C 
ENDROOT
BRANCH   6   7
ATOM      7  O   UNL     1       0.616  -2.156  -5.585  0.00  0.00    -0.384 OA
ATOM      8  H   UNL     1      -0.096  -1.520  -5.387  0.00  0.00    +0.210 HD
ENDBRANCH   6   7
BRANCH   5   9
ATOM      9  O   UNL     1       0.781  -4.634  -2.825  0.00  0.00    -0.386 OA
ATOM     10  H   UNL     1       1.108  -3.988  -2.168  0.00  0.00    +0.210 HD
ENDBRANCH   5   9
BRANCH   4  11
ATOM     11  O   UNL     1      -1.922  -4.696  -3.321  0.00  0.00    -0.383 OA
ATOM     12  H   UNL     1      -1.288  -5.263  -2.838  0.00  0.00    +0.210 HD
ENDBRANCH   4  11
BRANCH   3  13
ATOM     13  O   UNL     1      -2.663  -1.858  -2.915  0.00  0.00    -0.453 OA
BRANCH  13  14
ATOM     14  C   UNL     1      -3.354  -1.034  -2.048  0.00  0.00    +0.214 A 
ATOM     15  C   UNL     1      -3.002  -0.813  -0.609  0.00  0.00    +0.238 A 
ATOM     16  O   UNL     1      -2.197  -1.527  -0.030  0.00  0.00    -0.283 OA
ATOM     17  C   UNL     1      -3.720   0.305   0.085  0.00  0.00    +0.109 A 
ATOM     18  C   UNL     1      -4.857   0.824  -0.529  0.00  0.00    +0.147 A 
ATOM     19  C   UNL     1      -5.587   1.886   0.014  0.00  0.00    +0.092 A 
ATOM     20  C   UNL     1      -5.163   2.445   1.204  0.00  0.00    +0.124 A 
ATOM     21  C   UNL     1      -4.038   1.944   1.853  0.00  0.00    +0.091 A 
ATOM     22  O   UNL     1      -5.336   0.342  -1.706  0.00  0.00    -0.451 OA
ATOM     23  C   UNL     1      -3.319   0.874   1.297  0.00  0.00    +0.135 A 
ATOM     24  C   UNL     1      -4.490  -0.423  -2.462  0.00  0.00    +0.181 A 
BRANCH  24  25
ATOM     25  C   UNL     1      -4.923  -0.449  -3.849  0.00  0.00    +0.025 A 
ATOM     26  C   UNL     1      -4.344   0.480  -4.727  0.00  0.00    +0.015 A 
ATOM     27  C   UNL     1      -4.598   0.393  -6.086  0.00  0.00    +0.050 A 
ATOM     28  C   UNL     1      -5.430  -0.620  -6.541  0.00  0.00    +0.158 A 
ATOM     29  C   UNL     1      -6.091  -1.470  -5.653  0.00  0.00    +0.159 A 
ATOM     30  C   UNL     1      -5.869  -1.375  -4.291  0.00  0.00    +0.060 A 
BRANCH  29  31
ATOM     31  O   UNL     1      -6.903  -2.434  -6.182  0.00  0.00    -0.503 OA
ATOM     32  H   UNL     1      -7.084  -3.085  -5.481  0.00  0.00    +0.292 HD
ENDBRANCH  29  31
BRANCH  28  33
ATOM     33  O   UNL     1      -5.546  -0.826  -7.882  0.00  0.00    -0.503 OA
ATOM     34  H   UNL     1      -6.037  -1.669  -7.946  0.00  0.00    +0.292 HD
ENDBRANCH  28  33
ENDBRANCH  24  25
BRANCH  20  35
ATOM     35  O   UNL     1      -5.825   3.500   1.759  0.00  0.00    -0.507 OA
ATOM     36  H   UNL     1      -6.559   3.758   1.177  0.00  0.00    +0.292 HD
ENDBRANCH  20  35
BRANCH  23  37
ATOM     37  O   UNL     1      -2.206   0.424   1.947  0.00  0.00    -0.506 OA
ATOM     38  H   UNL     1      -2.149   0.831   2.826  0.00  0.00    +0.292 HD
ENDBRANCH  23  37
ENDBRANCH  13  14
ENDBRANCH   3  13
BRANCH   1  39
ATOM     39  O   UNL     1       1.802  -1.960  -2.048  0.00  0.00    -0.340 OA
BRANCH  39  45
ATOM     40  C   UNL     1       4.289  -1.354   1.296  0.00  0.00    +0.040 C 
ATOM     41  C   UNL     1       4.628  -1.333  -0.197  0.00  0.00    +0.147 C 
ATOM     42  O   UNL     1       4.211  -0.046  -0.642  0.00  0.00    -0.366 OA
ATOM     43  C   UNL     1       4.277   0.226  -2.042  0.00  0.00    +0.175 C 
ATOM     44  C   UNL     1       4.046  -1.016  -2.926  0.00  0.00    +0.177 C 
ATOM     45  C   UNL     1       3.230  -2.151  -2.263  0.00  0.00    +0.183 C 
ATOM     46  C   UNL     1       3.945  -2.520  -0.933  0.00  0.00    +0.174 C 
BRANCH  46  47
ATOM     47  O   UNL     1       4.972  -3.500  -1.211  0.00  0.00    -0.387 OA
ATOM     48  H   UNL     1       5.695  -3.081  -1.716  0.00  0.00    +0.210 HD
ENDBRANCH  46  47
BRANCH  44  49
ATOM     49  O   UNL     1       3.677  -0.750  -4.275  0.00  0.00    -0.386 OA
ATOM     50  H   UNL     1       3.032  -0.024  -4.306  0.00  0.00    +0.210 HD
ENDBRANCH  44  49
BRANCH  43  51
ATOM     51  C   UNL     1       3.327   1.410  -2.269  0.00  0.00    +0.190 C 
BRANCH  51  52
ATOM     52  O   UNL     1       1.985   1.089  -1.927  0.00  0.00    -0.392 OA
ATOM     53  H   UNL     1       1.942   1.071  -0.950  0.00  0.00    +0.210 HD
ENDBRANCH  51  52
ENDBRANCH  43  51
ENDBRANCH  39  45
ENDBRANCH   1  39
TORSDOF 16
