REMARK  Name = 
REMARK  17 active torsions:
REMARK  status: ('A' for Active; 'I' for Inactive)
REMARK    1  A    between atoms: C_1  and  C_2
REMARK    2  A    between atoms: C_4  and  O_53
REMARK    3  A    between atoms: C_6  and  O_52
REMARK    4  A    between atoms: C_8  and  O_51
REMARK    5  A    between atoms: C_10  and  O_13
REMARK    6  A    between atoms: O_13  and  C_14
REMARK    7  A    between atoms: C_16  and  O_50
REMARK    8  A    between atoms: C_18  and  O_49
REMARK    9  A    between atoms: C_20  and  C_47
REMARK   10  A    between atoms: C_23  and  O_25
REMARK   11  A    between atoms: O_25  and  C_26
REMARK   12  A    between atoms: C_27  and  C_39
REMARK   13  A    between atoms: C_31  and  O_38
REMARK   14  A    between atoms: C_33  and  O_37
REMARK   15  A    between atoms: C_41  and  O_46
REMARK   16  A    between atoms: C_42  and  O_45
REMARK   17  A    between atoms: C_47  and  O_48
REMARK                            x       y       z     vdW  Elec       q    Type
REMARK                         _______ _______ _______ _____ _____    ______ ____
ROOT
ATOM      1  C   UNL     1       2.909   2.895  -3.017  0.00  0.00    +0.221 C 
ATOM      2  C   UNL     1       1.742   2.263  -3.834  0.00  0.00    +0.340 C 
ATOM      3  O   UNL     1       2.190   2.100  -5.200  0.00  0.00    -0.331 OA
ATOM      4  C   UNL     1       2.338   3.402  -5.819  0.00  0.00    +0.179 C 
ATOM      5  C   UNL     1       3.605   4.048  -5.235  0.00  0.00    +0.177 C 
ATOM      6  C   UNL     1       3.360   4.200  -3.732  0.00  0.00    +0.180 C 
ENDROOT
BRANCH   6   7
ATOM      7  O   UNL     1       4.460   4.793  -3.044  0.00  0.00    -0.386 OA
ATOM      8  H   UNL     1       4.181   4.837  -2.109  0.00  0.00    +0.210 HD
ENDBRANCH   6   7
BRANCH   5   9
ATOM      9  O   UNL     1       4.763   3.272  -5.525  0.00  0.00    -0.386 OA
ATOM     10  H   UNL     1       4.553   2.342  -5.319  0.00  0.00    +0.210 HD
ENDBRANCH   5   9
BRANCH   4  11
ATOM     11  C   UNL     1       2.374   3.331  -7.345  0.00  0.00    +0.190 C 
BRANCH  11  12
ATOM     12  O   UNL     1       2.319   4.648  -7.903  0.00  0.00    -0.392 OA
ATOM     13  H   UNL     1       3.204   5.045  -7.816  0.00  0.00    +0.210 HD
ENDBRANCH  11  12
ENDBRANCH   4  11
BRANCH   2  14
ATOM     14  O   UNL     1       1.279   1.028  -3.238  0.00  0.00    -0.453 OA
BRANCH  14  15
ATOM     15  C   UNL     1      -0.019   0.597  -3.557  0.00  0.00    +0.214 A 
ATOM     16  C   UNL     1      -0.756   1.132  -4.768  0.00  0.00    +0.238 A 
ATOM     17  O   UNL     1      -0.447   2.187  -5.309  0.00  0.00    -0.283 OA
ATOM     18  C   UNL     1      -1.956   0.416  -5.229  0.00  0.00    +0.109 A 
ATOM     19  C   UNL     1      -2.516  -0.504  -4.363  0.00  0.00    +0.147 A 
ATOM     20  C   UNL     1      -3.685  -1.190  -4.702  0.00  0.00    +0.092 A 
ATOM     21  C   UNL     1      -4.287  -0.931  -5.928  0.00  0.00    +0.124 A 
ATOM     22  C   UNL     1      -3.749  -0.001  -6.806  0.00  0.00    +0.091 A 
ATOM     23  O   UNL     1      -1.991  -0.743  -3.123  0.00  0.00    -0.451 OA
ATOM     24  C   UNL     1      -2.581   0.675  -6.459  0.00  0.00    +0.135 A 
ATOM     25  C   UNL     1      -0.719  -0.274  -2.780  0.00  0.00    +0.181 A 
BRANCH  25  26
ATOM     26  C   UNL     1      -0.341  -0.822  -1.426  0.00  0.00    +0.025 A 
ATOM     27  C   UNL     1      -1.021  -1.975  -0.946  0.00  0.00    +0.015 A 
ATOM     28  C   UNL     1      -0.883  -2.437   0.370  0.00  0.00    +0.050 A 
ATOM     29  C   UNL     1      -0.038  -1.765   1.228  0.00  0.00    +0.158 A 
ATOM     30  C   UNL     1       0.685  -0.664   0.777  0.00  0.00    +0.159 A 
ATOM     31  C   UNL     1       0.534  -0.185  -0.533  0.00  0.00    +0.060 A 
BRANCH  29  32
ATOM     32  O   UNL     1       0.063  -2.180   2.525  0.00  0.00    -0.503 OA
ATOM     33  H   UNL     1       0.680  -1.546   2.941  0.00  0.00    +0.292 HD
ENDBRANCH  29  32
BRANCH  30  34
ATOM     34  O   UNL     1       1.525  -0.064   1.678  0.00  0.00    -0.503 OA
ATOM     35  H   UNL     1       1.995   0.663   1.224  0.00  0.00    +0.292 HD
ENDBRANCH  30  34
ENDBRANCH  25  26
BRANCH  24  36
ATOM     36  O   UNL     1      -2.063   1.582  -7.336  0.00  0.00    -0.506 OA
ATOM     37  H   UNL     1      -2.636   1.668  -8.113  0.00  0.00    +0.292 HD
ENDBRANCH  24  36
BRANCH  21  38
ATOM     38  O   UNL     1      -5.424  -1.565  -6.324  0.00  0.00    -0.507 OA
ATOM     39  H   UNL     1      -5.667  -2.223  -5.650  0.00  0.00    +0.292 HD
ENDBRANCH  21  38
ENDBRANCH  14  15
ENDBRANCH   2  14
BRANCH   1  40
ATOM     40  O   UNL     1       2.638   3.141  -1.608  0.00  0.00    -0.337 OA
BRANCH  40  44
ATOM     41  C   UNL     1      -0.599   5.503  -2.862  0.00  0.00    +0.041 C 
ATOM     42  C   UNL     1       0.466   6.037  -1.909  0.00  0.00    +0.149 C 
ATOM     43  O   UNL     1       1.630   5.214  -1.903  0.00  0.00    -0.343 OA
ATOM     44  C   UNL     1       1.474   3.923  -1.336  0.00  0.00    +0.282 C 
ATOM     45  C   UNL     1       1.230   4.089   0.173  0.00  0.00    +0.201 C 
ATOM     46  C   UNL     1      -0.018   4.982   0.377  0.00  0.00    +0.179 C 
ATOM     47  C   UNL     1       0.045   6.278  -0.455  0.00  0.00    +0.174 C 
BRANCH  47  48
ATOM     48  O   UNL     1       1.032   7.137   0.148  0.00  0.00    -0.387 OA
ATOM     49  H   UNL     1       1.902   6.928  -0.245  0.00  0.00    +0.210 HD
ENDBRANCH  47  48
BRANCH  46  50
ATOM     50  O   UNL     1      -1.222   4.245   0.111  0.00  0.00    -0.386 OA
ATOM     51  H   UNL     1      -1.104   3.631  -0.631  0.00  0.00    +0.210 HD
ENDBRANCH  46  50
BRANCH  45  52
ATOM     52  O   UNL     1       1.059   2.814   0.809  0.00  0.00    -0.384 OA
ATOM     53  H   UNL     1       0.132   2.758   1.116  0.00  0.00    +0.210 HD
ENDBRANCH  45  52
ENDBRANCH  40  44
ENDBRANCH   1  40
TORSDOF 16
