REMARK  Name = 
REMARK  12 active torsions:
REMARK  status: ('A' for Active; 'I' for Inactive)
REMARK    1  A    between atoms: C_3  and  O_37
REMARK    2  A    between atoms: C_4  and  O_21
REMARK    3  A    between atoms: C_6  and  C_7
REMARK    4  A    between atoms: C_8  and  O_20
REMARK    5  A    between atoms: C_12  and  O_19
REMARK    6  A    between atoms: C_14  and  O_18
REMARK    7  A    between atoms: O_21  and  C_22
REMARK    8  A    between atoms: C_23  and  O_36
REMARK    9  A    between atoms: C_25  and  O_35
REMARK   10  A    between atoms: C_27  and  O_34
REMARK   11  A    between atoms: C_29  and  C_32
REMARK   12  A    between atoms: C_32  and  O_33
REMARK                            x       y       z     vdW  Elec       q    Type
REMARK                         _______ _______ _______ _____ _____    ______ ____
ROOT
ATOM      1  C   UNL     1      -1.562   0.115   0.125  0.00  0.00    +0.015 A 
ATOM      2  C   UNL     1      -0.923  -1.140   0.098  0.00  0.00    +0.025 A 
ATOM      3  C   UNL     1       0.477  -1.161   0.154  0.00  0.00    +0.061 A 
ATOM      4  C   UNL     1       1.211   0.016   0.063  0.00  0.00    +0.166 A 
ATOM      5  C   UNL     1       0.552   1.246   0.023  0.00  0.00    +0.159 A 
ATOM      6  C   UNL     1      -0.832   1.306   0.077  0.00  0.00    +0.050 A 
ENDROOT
BRANCH   2   7
ATOM      7  C   UNL     1      -1.659  -2.428  -0.035  0.00  0.00    +0.181 A 
ATOM      8  O   UNL     1      -1.016  -3.502   0.584  0.00  0.00    -0.451 OA
ATOM      9  C   UNL     1      -1.490  -4.774   0.376  0.00  0.00    +0.147 A 
ATOM     10  C   UNL     1      -2.688  -5.028  -0.282  0.00  0.00    +0.109 A 
ATOM     11  C   UNL     1      -3.144  -6.341  -0.439  0.00  0.00    +0.135 A 
ATOM     12  C   UNL     1      -2.402  -7.407   0.057  0.00  0.00    +0.091 A 
ATOM     13  C   UNL     1      -1.195  -7.147   0.699  0.00  0.00    +0.124 A 
ATOM     14  C   UNL     1      -3.429  -3.895  -0.837  0.00  0.00    +0.238 A 
ATOM     15  O   UNL     1      -4.517  -4.084  -1.378  0.00  0.00    -0.283 OA
ATOM     16  C   UNL     1      -0.733  -5.841   0.863  0.00  0.00    +0.092 A 
ATOM     17  C   UNL     1      -2.791  -2.557  -0.764  0.00  0.00    +0.208 A 
BRANCH  11  18
ATOM     18  O   UNL     1      -4.315  -6.653  -1.079  0.00  0.00    -0.506 OA
ATOM     19  H   UNL     1      -4.731  -5.811  -1.377  0.00  0.00    +0.292 HD
ENDBRANCH  11  18
BRANCH  13  20
ATOM     20  O   UNL     1      -0.430  -8.165   1.190  0.00  0.00    -0.507 OA
ATOM     21  H   UNL     1      -0.884  -9.007   1.017  0.00  0.00    +0.292 HD
ENDBRANCH  13  20
BRANCH  17  22
ATOM     22  O   UNL     1      -3.377  -1.552  -1.507  0.00  0.00    -0.501 OA
ATOM     23  H   UNL     1      -2.669  -0.975  -1.839  0.00  0.00    +0.292 HD
ENDBRANCH  17  22
ENDBRANCH   2   7
BRANCH   5  24
ATOM     24  O   UNL     1       1.294   2.394  -0.082  0.00  0.00    -0.503 OA
ATOM     25  H   UNL     1       0.700   3.153  -0.167  0.00  0.00    +0.292 HD
ENDBRANCH   5  24
BRANCH   4  26
ATOM     26  O   UNL     1       2.562   0.069   0.043  0.00  0.00    -0.457 OA
BRANCH  26  27
ATOM     27  C   UNL     1       3.342  -0.969  -0.535  0.00  0.00    +0.339 C 
ATOM     28  O   UNL     1       3.515  -2.103   0.319  0.00  0.00    -0.331 OA
ATOM     29  C   UNL     1       4.673  -2.897  -0.009  0.00  0.00    +0.179 C 
ATOM     30  C   UNL     1       4.752  -3.266  -1.515  0.00  0.00    +0.177 C 
ATOM     31  C   UNL     1       4.336  -2.132  -2.480  0.00  0.00    +0.180 C 
ATOM     32  C   UNL     1       3.060  -1.415  -1.986  0.00  0.00    +0.214 C 
BRANCH  30  33
ATOM     33  O   UNL     1       3.848  -4.371  -1.720  0.00  0.00    -0.386 OA
ATOM     34  H   UNL     1       3.973  -4.683  -2.637  0.00  0.00    +0.210 HD
ENDBRANCH  30  33
BRANCH  31  35
ATOM     35  O   UNL     1       5.406  -1.213  -2.708  0.00  0.00    -0.386 OA
ATOM     36  H   UNL     1       5.893  -1.057  -1.870  0.00  0.00    +0.210 HD
ENDBRANCH  31  35
BRANCH  32  37
ATOM     37  O   UNL     1       1.952  -2.327  -2.096  0.00  0.00    -0.383 OA
ATOM     38  H   UNL     1       2.187  -3.128  -1.580  0.00  0.00    +0.210 HD
ENDBRANCH  32  37
BRANCH  29  39
ATOM     39  C   UNL     1       5.947  -2.254   0.568  0.00  0.00    +0.190 C 
BRANCH  39  40
ATOM     40  O   UNL     1       6.306  -1.044  -0.095  0.00  0.00    -0.392 OA
ATOM     41  H   UNL     1       6.060  -0.318   0.516  0.00  0.00    +0.210 HD
ENDBRANCH  39  40
ENDBRANCH  29  39
ENDBRANCH  26  27
ENDBRANCH   4  26
TORSDOF 12
