REMARK  Name = 
REMARK  10 active torsions:
REMARK  status: ('A' for Active; 'I' for Inactive)
REMARK    1  A    between atoms: C_2  and  O_31
REMARK    2  A    between atoms: C_3  and  O_30
REMARK    3  A    between atoms: C_4  and  O_29
REMARK    4  A    between atoms: C_5  and  O_7
REMARK    5  A    between atoms: O_7  and  C_8
REMARK    6  A    between atoms: C_9  and  C_21
REMARK    7  A    between atoms: C_13  and  O_20
REMARK    8  A    between atoms: C_15  and  O_19
REMARK    9  A    between atoms: C_23  and  O_28
REMARK   10  A    between atoms: C_24  and  O_27
REMARK                            x       y       z     vdW  Elec       q    Type
REMARK                         _______ _______ _______ _____ _____    ______ ____
ROOT
ATOM      1  C   UNL     1       2.615  -2.697   0.009  0.00  0.00    +0.214 A 
ATOM      2  C   UNL     1       3.507  -1.553  -0.383  0.00  0.00    +0.238 A 
ATOM      3  O   UNL     1       3.041  -0.418  -0.451  0.00  0.00    -0.283 OA
ATOM      4  C   UNL     1       4.910  -1.861  -0.680  0.00  0.00    +0.109 A 
ATOM      5  C   UNL     1       5.253  -3.203  -0.828  0.00  0.00    +0.147 A 
ATOM      6  C   UNL     1       6.574  -3.576  -1.094  0.00  0.00    +0.092 A 
ATOM      7  C   UNL     1       7.547  -2.590  -1.227  0.00  0.00    +0.124 A 
ATOM      8  C   UNL     1       7.224  -1.245  -1.095  0.00  0.00    +0.091 A 
ATOM      9  O   UNL     1       4.335  -4.221  -0.752  0.00  0.00    -0.451 OA
ATOM     10  C   UNL     1       5.904  -0.880  -0.819  0.00  0.00    +0.135 A 
ATOM     11  C   UNL     1       3.049  -3.941  -0.306  0.00  0.00    +0.181 A 
ENDROOT
BRANCH  11  12
ATOM     12  C   UNL     1       2.212  -5.169  -0.260  0.00  0.00    +0.025 A 
ATOM     13  C   UNL     1       0.886  -5.154  -0.738  0.00  0.00    +0.015 A 
ATOM     14  C   UNL     1       0.046  -6.260  -0.575  0.00  0.00    +0.050 A 
ATOM     15  C   UNL     1       0.555  -7.412  -0.001  0.00  0.00    +0.158 A 
ATOM     16  C   UNL     1       1.883  -7.472   0.417  0.00  0.00    +0.159 A 
ATOM     17  C   UNL     1       2.715  -6.360   0.298  0.00  0.00    +0.060 A 
BRANCH  15  18
ATOM     18  O   UNL     1      -0.264  -8.492   0.151  0.00  0.00    -0.503 OA
ATOM     19  H   UNL     1       0.310  -9.195   0.516  0.00  0.00    +0.292 HD
ENDBRANCH  15  18
BRANCH  16  20
ATOM     20  O   UNL     1       2.317  -8.652   0.955  0.00  0.00    -0.503 OA
ATOM     21  H   UNL     1       3.274  -8.586   1.117  0.00  0.00    +0.292 HD
ENDBRANCH  16  20
ENDBRANCH  11  12
BRANCH   7  22
ATOM     22  O   UNL     1       8.847  -2.900  -1.491  0.00  0.00    -0.507 OA
ATOM     23  H   UNL     1       8.934  -3.861  -1.607  0.00  0.00    +0.292 HD
ENDBRANCH   7  22
BRANCH  10  24
ATOM     24  O   UNL     1       5.613   0.444  -0.668  0.00  0.00    -0.506 OA
ATOM     25  H   UNL     1       6.385   0.990  -0.892  0.00  0.00    +0.292 HD
ENDBRANCH  10  24
BRANCH   1  26
ATOM     26  O   UNL     1       1.405  -2.315   0.555  0.00  0.00    -0.453 OA
BRANCH  26  29
ATOM     27  C   UNL     1      -1.265  -3.958   2.301  0.00  0.00    +0.198 C 
ATOM     28  O   UNL     1      -0.606  -3.034   1.438  0.00  0.00    -0.337 OA
ATOM     29  C   UNL     1       0.818  -3.094   1.590  0.00  0.00    +0.339 C 
ATOM     30  C   UNL     1       1.194  -2.595   2.994  0.00  0.00    +0.214 C 
ATOM     31  C   UNL     1       0.558  -3.569   3.997  0.00  0.00    +0.180 C 
ATOM     32  C   UNL     1      -0.966  -3.675   3.773  0.00  0.00    +0.171 C 
BRANCH  30  33
ATOM     33  O   UNL     1       0.694  -1.275   3.274  0.00  0.00    -0.383 OA
ATOM     34  H   UNL     1       0.229  -0.971   2.470  0.00  0.00    +0.210 HD
ENDBRANCH  30  33
BRANCH  31  35
ATOM     35  O   UNL     1       0.835  -3.150   5.337  0.00  0.00    -0.386 OA
ATOM     36  H   UNL     1       0.699  -2.178   5.338  0.00  0.00    +0.210 HD
ENDBRANCH  31  35
BRANCH  32  37
ATOM     37  O   UNL     1      -1.560  -4.707   4.565  0.00  0.00    -0.387 OA
ATOM     38  H   UNL     1      -0.852  -5.251   4.945  0.00  0.00    +0.210 HD
ENDBRANCH  32  37
ENDBRANCH  26  29
ENDBRANCH   1  26
TORSDOF 10
