REMARK  Name = 
REMARK  17 active torsions:
REMARK  status: ('A' for Active; 'I' for Inactive)
REMARK    1  A    between atoms: C_3  and  O_50
REMARK    2  A    between atoms: C_4  and  O_49
REMARK    3  A    between atoms: C_6  and  C_7
REMARK    4  A    between atoms: C_8  and  C_9
REMARK    5  A    between atoms: C_9  and  O_11
REMARK    6  A    between atoms: O_11  and  C_12
REMARK    7  A    between atoms: C_12  and  C_13
REMARK    8  A    between atoms: C_15  and  O_48
REMARK    9  A    between atoms: C_17  and  O_47
REMARK   10  A    between atoms: C_19  and  O_46
REMARK   11  A    between atoms: C_21  and  O_24
REMARK   12  A    between atoms: O_24  and  C_25
REMARK   13  A    between atoms: C_26  and  O_45
REMARK   14  A    between atoms: C_28  and  C_31
REMARK   15  A    between atoms: C_32  and  O_44
REMARK   16  A    between atoms: C_36  and  O_43
REMARK   17  A    between atoms: C_38  and  O_42
REMARK                            x       y       z     vdW  Elec       q    Type
REMARK                         _______ _______ _______ _____ _____    ______ ____
ROOT
ATOM      1  C   UNL     1      -6.880  -5.204  -0.948  0.00  0.00    +0.191 C 
ATOM      2  O   UNL     1      -7.332  -4.874  -2.266  0.00  0.00    -0.330 OA
ATOM      3  C   UNL     1      -6.698  -3.696  -2.784  0.00  0.00    +0.339 C 
ATOM      4  C   UNL     1      -7.079  -2.477  -1.913  0.00  0.00    +0.214 C 
ATOM      5  C   UNL     1      -6.719  -2.761  -0.448  0.00  0.00    +0.180 C 
ATOM      6  C   UNL     1      -7.309  -4.096   0.026  0.00  0.00    +0.178 C 
ENDROOT
BRANCH   6   7
ATOM      7  O   UNL     1      -6.851  -4.316   1.364  0.00  0.00    -0.386 OA
ATOM      8  H   UNL     1      -7.311  -5.110   1.698  0.00  0.00    +0.210 HD
ENDBRANCH   6   7
BRANCH   5   9
ATOM      9  O   UNL     1      -7.183  -1.706   0.401  0.00  0.00    -0.386 OA
ATOM     10  H   UNL     1      -7.056  -2.031   1.315  0.00  0.00    +0.210 HD
ENDBRANCH   5   9
BRANCH   4  11
ATOM     11  O   UNL     1      -6.422  -1.295  -2.402  0.00  0.00    -0.383 OA
ATOM     12  H   UNL     1      -5.703  -1.061  -1.790  0.00  0.00    +0.210 HD
ENDBRANCH   4  11
BRANCH   3  13
ATOM     13  O   UNL     1      -7.117  -3.399  -4.123  0.00  0.00    -0.457 OA
BRANCH  13  14
ATOM     14  C   UNL     1      -6.892  -4.320  -5.105  0.00  0.00    +0.165 A 
ATOM     15  C   UNL     1      -6.376  -5.601  -4.944  0.00  0.00    +0.050 A 
ATOM     16  C   UNL     1      -6.394  -6.505  -6.018  0.00  0.00    +0.015 A 
ATOM     17  C   UNL     1      -6.883  -6.131  -7.281  0.00  0.00    +0.025 A 
ATOM     18  C   UNL     1      -7.222  -4.783  -7.469  0.00  0.00    +0.060 A 
ATOM     19  C   UNL     1      -7.274  -3.916  -6.384  0.00  0.00    +0.159 A 
BRANCH  17  20
ATOM     20  C   UNL     1      -7.062  -7.144  -8.356  0.00  0.00    +0.181 A 
ATOM     21  O   UNL     1      -6.137  -8.187  -8.290  0.00  0.00    -0.451 OA
ATOM     22  C   UNL     1      -6.246  -9.233  -9.173  0.00  0.00    +0.147 A 
ATOM     23  C   UNL     1      -7.161  -9.242 -10.220  0.00  0.00    +0.109 A 
ATOM     24  C   UNL     1      -7.195 -10.312 -11.122  0.00  0.00    +0.135 A 
ATOM     25  C   UNL     1      -6.325 -11.386 -10.970  0.00  0.00    +0.091 A 
ATOM     26  C   UNL     1      -5.431 -11.383  -9.902  0.00  0.00    +0.124 A 
ATOM     27  C   UNL     1      -8.103  -8.129 -10.330  0.00  0.00    +0.238 A 
ATOM     28  O   UNL     1      -8.906  -8.102 -11.258  0.00  0.00    -0.283 OA
ATOM     29  C   UNL     1      -5.384 -10.317  -9.004  0.00  0.00    +0.092 A 
ATOM     30  C   UNL     1      -8.060  -7.092  -9.269  0.00  0.00    +0.208 A 
BRANCH  24  31
ATOM     31  O   UNL     1      -8.064 -10.370 -12.179  0.00  0.00    -0.506 OA
ATOM     32  H   UNL     1      -8.618  -9.555 -12.162  0.00  0.00    +0.292 HD
ENDBRANCH  24  31
BRANCH  30  33
ATOM     33  O   UNL     1      -9.085  -6.164  -9.292  0.00  0.00    -0.501 OA
ATOM     34  H   UNL     1      -9.203  -5.793  -8.402  0.00  0.00    +0.292 HD
ENDBRANCH  30  33
BRANCH  26  35
ATOM     35  O   UNL     1      -4.571 -12.422  -9.705  0.00  0.00    -0.507 OA
ATOM     36  H   UNL     1      -4.708 -13.079 -10.409  0.00  0.00    +0.292 HD
ENDBRANCH  26  35
ENDBRANCH  17  20
BRANCH  19  37
ATOM     37  O   UNL     1      -7.763  -2.656  -6.599  0.00  0.00    -0.503 OA
ATOM     38  H   UNL     1      -7.770  -2.222  -5.722  0.00  0.00    +0.292 HD
ENDBRANCH  19  37
ENDBRANCH  13  14
ENDBRANCH   3  13
BRANCH   1  39
ATOM     39  C   UNL     1      -7.460  -6.576  -0.570  0.00  0.00    +0.266 C 
BRANCH  39  40
ATOM     40  O   UNL     1      -7.044  -7.006   0.737  0.00  0.00    -0.459 OA
BRANCH  40  41
ATOM     41  C   UNL     1      -5.794  -7.535   0.796  0.00  0.00    +0.332 C 
ATOM     42  O   UNL     1      -5.015  -7.647  -0.138  0.00  0.00    -0.246 OA
BRANCH  41  44
ATOM     43  C   UNL     1      -4.345  -8.481   2.520  0.00  0.00    +0.015 C 
ATOM     44  C   UNL     1      -5.521  -7.925   2.194  0.00  0.00    +0.092 C 
BRANCH  43  46
ATOM     45  C   UNL     1      -2.605  -8.969   4.217  0.00  0.00    +0.012 A 
ATOM     46  C   UNL     1      -3.972  -8.918   3.877  0.00  0.00    -0.021 A 
ATOM     47  C   UNL     1      -4.918  -9.352   4.817  0.00  0.00    +0.057 A 
ATOM     48  C   UNL     1      -4.497  -9.809   6.063  0.00  0.00    +0.159 A 
ATOM     49  C   UNL     1      -3.141  -9.849   6.388  0.00  0.00    +0.158 A 
ATOM     50  C   UNL     1      -2.191  -9.429   5.475  0.00  0.00    +0.050 A 
BRANCH  49  51
ATOM     51  O   UNL     1      -2.805 -10.323   7.626  0.00  0.00    -0.503 OA
ATOM     52  H   UNL     1      -1.833 -10.336   7.693  0.00  0.00    +0.292 HD
ENDBRANCH  49  51
BRANCH  48  53
ATOM     53  O   UNL     1      -5.426 -10.229   6.963  0.00  0.00    -0.503 OA
ATOM     54  H   UNL     1      -4.906 -10.511   7.742  0.00  0.00    +0.292 HD
ENDBRANCH  48  53
ENDBRANCH  43  46
ENDBRANCH  41  44
ENDBRANCH  40  41
ENDBRANCH  39  40
ENDBRANCH   1  39
TORSDOF 17
