REMARK  Name = 
REMARK  10 active torsions:
REMARK  status: ('A' for Active; 'I' for Inactive)
REMARK    1  A    between atoms: C_1  and  O_2
REMARK    2  A    between atoms: O_2  and  C_3
REMARK    3  A    between atoms: C_4  and  O_26
REMARK    4  A    between atoms: C_6  and  C_9
REMARK    5  A    between atoms: C_10  and  O_24
REMARK    6  A    between atoms: C_17  and  O_22
REMARK    7  A    between atoms: C_19  and  O_20
REMARK    8  A    between atoms: O_20  and  C_21
REMARK    9  A    between atoms: O_22  and  C_23
REMARK   10  A    between atoms: O_24  and  C_25
REMARK                            x       y       z     vdW  Elec       q    Type
REMARK                         _______ _______ _______ _____ _____    ______ ____
ROOT
ATOM      1  C   UNL     1       4.249   3.686  -3.822  0.00  0.00    +0.181 A 
ATOM      2  O   UNL     1       4.137   5.045  -3.567  0.00  0.00    -0.451 OA
ATOM      3  C   UNL     1       4.295   5.935  -4.604  0.00  0.00    +0.147 A 
ATOM      4  C   UNL     1       3.960   7.264  -4.312  0.00  0.00    +0.092 A 
ATOM      5  C   UNL     1       4.063   8.247  -5.291  0.00  0.00    +0.127 A 
ATOM      6  C   UNL     1       4.496   7.876  -6.560  0.00  0.00    +0.092 A 
ATOM      7  C   UNL     1       4.864   6.550  -6.876  0.00  0.00    +0.138 A 
ATOM      8  C   UNL     1       4.780   5.573  -5.866  0.00  0.00    +0.109 A 
ATOM      9  C   UNL     1       5.241   4.175  -5.961  0.00  0.00    +0.238 A 
ATOM     10  O   UNL     1       6.085   3.819  -6.774  0.00  0.00    -0.283 OA
ATOM     11  C   UNL     1       4.723   3.174  -4.977  0.00  0.00    +0.211 A 
ENDROOT
BRANCH   1  15
ATOM     12  C   UNL     1       3.439   1.184  -0.430  0.00  0.00    +0.161 A 
ATOM     13  C   UNL     1       4.740   1.588  -0.714  0.00  0.00    +0.050 A 
ATOM     14  C   UNL     1       4.982   2.444  -1.798  0.00  0.00    +0.015 A 
ATOM     15  C   UNL     1       3.936   2.882  -2.627  0.00  0.00    +0.025 A 
ATOM     16  C   UNL     1       2.626   2.521  -2.310  0.00  0.00    +0.060 A 
ATOM     17  C   UNL     1       2.393   1.679  -1.221  0.00  0.00    +0.159 A 
BRANCH  12  19
ATOM     18  C   UNL     1       4.075  -0.071   1.486  0.00  0.00    +0.277 C 
ATOM     19  O   UNL     1       3.064   0.311   0.559  0.00  0.00    -0.491 OA
ENDBRANCH  12  19
BRANCH  17  20
ATOM     20  O   UNL     1       1.099   1.334  -0.936  0.00  0.00    -0.503 OA
ATOM     21  H   UNL     1       1.153   0.788  -0.126  0.00  0.00    +0.292 HD
ENDBRANCH  17  20
ENDBRANCH   1  15
BRANCH   5  22
ATOM     22  O   UNL     1       3.713   9.511  -4.906  0.00  0.00    -0.495 OA
ATOM     23  C   UNL     1       3.818  10.532  -5.895  0.00  0.00    +0.277 C 
ENDBRANCH   5  22
BRANCH   7  24
ATOM     24  O   UNL     1       5.242   6.508  -8.187  0.00  0.00    -0.494 OA
ATOM     25  C   UNL     1       5.537   5.309  -8.875  0.00  0.00    +0.277 C 
ENDBRANCH   7  24
BRANCH  11  26
ATOM     26  O   UNL     1       4.921   1.873  -5.375  0.00  0.00    -0.488 OA
ATOM     27  C   UNL     1       4.281   0.765  -4.772  0.00  0.00    +0.277 C 
ENDBRANCH  11  26
TORSDOF 6
