REMARK  Name = 
REMARK  17 active torsions:
REMARK  status: ('A' for Active; 'I' for Inactive)
REMARK    1  A    between atoms: C_1  and  C_2
REMARK    2  A    between atoms: C_4  and  O_53
REMARK    3  A    between atoms: C_6  and  O_52
REMARK    4  A    between atoms: C_8  and  O_51
REMARK    5  A    between atoms: C_10  and  O_13
REMARK    6  A    between atoms: O_13  and  C_14
REMARK    7  A    between atoms: C_15  and  C_43
REMARK    8  A    between atoms: C_19  and  O_26
REMARK    9  A    between atoms: C_21  and  O_25
REMARK   10  A    between atoms: O_26  and  C_27
REMARK   11  A    between atoms: C_29  and  O_42
REMARK   12  A    between atoms: C_31  and  O_41
REMARK   13  A    between atoms: C_33  and  O_40
REMARK   14  A    between atoms: C_35  and  C_38
REMARK   15  A    between atoms: C_38  and  O_39
REMARK   16  A    between atoms: C_45  and  O_50
REMARK   17  A    between atoms: C_46  and  O_49
REMARK                            x       y       z     vdW  Elec       q    Type
REMARK                         _______ _______ _______ _____ _____    ______ ____
ROOT
ATOM      1  C   UNL     1       2.860   2.806  -3.172  0.00  0.00    +0.214 A 
ATOM      2  C   UNL     1       1.460   3.267  -2.878  0.00  0.00    +0.238 A 
ATOM      3  O   UNL     1       0.516   2.487  -2.821  0.00  0.00    -0.283 OA
ATOM      4  C   UNL     1       1.237   4.720  -2.742  0.00  0.00    +0.109 A 
ATOM      5  C   UNL     1       2.298   5.570  -3.026  0.00  0.00    +0.147 A 
ATOM      6  C   UNL     1       2.122   6.958  -3.003  0.00  0.00    +0.093 A 
ATOM      7  C   UNL     1       0.873   7.507  -2.700  0.00  0.00    +0.131 A 
ATOM      8  C   UNL     1      -0.185   6.662  -2.368  0.00  0.00    +0.092 A 
ATOM      9  O   UNL     1       3.549   5.123  -3.360  0.00  0.00    -0.451 OA
ATOM     10  C   UNL     1      -0.005   5.275  -2.392  0.00  0.00    +0.135 A 
ATOM     11  C   UNL     1       3.782   3.761  -3.411  0.00  0.00    +0.181 A 
ENDROOT
BRANCH  11  12
ATOM     12  C   UNL     1       5.166   3.451  -3.827  0.00  0.00    +0.025 A 
ATOM     13  C   UNL     1       5.483   3.421  -5.198  0.00  0.00    +0.015 A 
ATOM     14  C   UNL     1       6.800   3.208  -5.625  0.00  0.00    +0.050 A 
ATOM     15  C   UNL     1       7.798   3.022  -4.683  0.00  0.00    +0.158 A 
ATOM     16  C   UNL     1       7.495   3.038  -3.319  0.00  0.00    +0.159 A 
ATOM     17  C   UNL     1       6.185   3.247  -2.882  0.00  0.00    +0.060 A 
BRANCH  16  18
ATOM     18  O   UNL     1       8.532   2.852  -2.446  0.00  0.00    -0.503 OA
ATOM     19  H   UNL     1       8.177   2.859  -1.541  0.00  0.00    +0.292 HD
ENDBRANCH  16  18
BRANCH  15  20
ATOM     20  O   UNL     1       9.083   2.845  -5.096  0.00  0.00    -0.503 OA
ATOM     21  H   UNL     1       9.602   2.773  -4.268  0.00  0.00    +0.292 HD
ENDBRANCH  15  20
ENDBRANCH  11  12
BRANCH  10  22
ATOM     22  O   UNL     1      -1.063   4.476  -2.061  0.00  0.00    -0.506 OA
ATOM     23  H   UNL     1      -1.872   5.001  -1.956  0.00  0.00    +0.292 HD
ENDBRANCH  10  22
BRANCH   7  24
ATOM     24  O   UNL     1       0.601   8.854  -2.673  0.00  0.00    -0.461 OA
BRANCH  24  25
ATOM     25  C   UNL     1       1.267   9.603  -3.702  0.00  0.00    +0.339 C 
ATOM     26  O   UNL     1       2.585  10.003  -3.317  0.00  0.00    -0.331 OA
ATOM     27  C   UNL     1       2.699  11.114  -2.415  0.00  0.00    +0.179 C 
ATOM     28  C   UNL     1       1.933  12.338  -2.947  0.00  0.00    +0.177 C 
ATOM     29  C   UNL     1       0.463  11.988  -3.210  0.00  0.00    +0.180 C 
ATOM     30  C   UNL     1       0.372  10.780  -4.159  0.00  0.00    +0.214 C 
BRANCH  29  31
ATOM     31  O   UNL     1      -0.230  11.804  -1.976  0.00  0.00    -0.386 OA
ATOM     32  H   UNL     1      -0.552  10.886  -1.919  0.00  0.00    +0.210 HD
ENDBRANCH  29  31
BRANCH  30  33
ATOM     33  O   UNL     1       0.755  11.191  -5.483  0.00  0.00    -0.383 OA
ATOM     34  H   UNL     1       1.692  11.482  -5.422  0.00  0.00    +0.210 HD
ENDBRANCH  30  33
BRANCH  28  35
ATOM     35  O   UNL     1       2.544  12.741  -4.189  0.00  0.00    -0.386 OA
ATOM     36  H   UNL     1       2.162  13.604  -4.437  0.00  0.00    +0.210 HD
ENDBRANCH  28  35
BRANCH  27  37
ATOM     37  C   UNL     1       2.383  10.736  -0.957  0.00  0.00    +0.190 C 
BRANCH  37  38
ATOM     38  O   UNL     1       2.641  11.819  -0.067  0.00  0.00    -0.392 OA
ATOM     39  H   UNL     1       1.831  12.357  -0.012  0.00  0.00    +0.210 HD
ENDBRANCH  37  38
ENDBRANCH  27  37
ENDBRANCH  24  25
ENDBRANCH   7  24
BRANCH   1  40
ATOM     40  O   UNL     1       3.194   1.464  -3.304  0.00  0.00    -0.453 OA
BRANCH  40  44
ATOM     41  C   UNL     1       0.462   0.128  -0.174  0.00  0.00    +0.041 C 
ATOM     42  C   UNL     1       1.952  -0.186  -0.271  0.00  0.00    +0.150 C 
ATOM     43  O   UNL     1       2.655   0.720  -1.137  0.00  0.00    -0.334 OA
ATOM     44  C   UNL     1       2.433   0.519  -2.540  0.00  0.00    +0.339 C 
ATOM     45  C   UNL     1       2.850  -0.901  -2.982  0.00  0.00    +0.214 C 
ATOM     46  C   UNL     1       2.134  -1.953  -2.122  0.00  0.00    +0.180 C 
ATOM     47  C   UNL     1       2.293  -1.644  -0.627  0.00  0.00    +0.174 C 
BRANCH  47  48
ATOM     48  O   UNL     1       3.668  -1.875  -0.265  0.00  0.00    -0.387 OA
ATOM     49  H   UNL     1       4.169  -1.059  -0.455  0.00  0.00    +0.210 HD
ENDBRANCH  47  48
BRANCH  46  50
ATOM     50  O   UNL     1       0.758  -2.091  -2.513  0.00  0.00    -0.386 OA
ATOM     51  H   UNL     1       0.306  -1.231  -2.512  0.00  0.00    +0.210 HD
ENDBRANCH  46  50
BRANCH  45  52
ATOM     52  O   UNL     1       2.545  -1.125  -4.368  0.00  0.00    -0.383 OA
ATOM     53  H   UNL     1       1.609  -1.395  -4.420  0.00  0.00    +0.210 HD
ENDBRANCH  45  52
ENDBRANCH  40  44
ENDBRANCH   1  40
TORSDOF 16
