REMARK  Name = 
REMARK  11 active torsions:
REMARK  status: ('A' for Active; 'I' for Inactive)
REMARK    1  A    between atoms: C_1  and  C_2
REMARK    2  A    between atoms: C_4  and  O_37
REMARK    3  A    between atoms: C_6  and  O_36
REMARK    4  A    between atoms: C_8  and  O_35
REMARK    5  A    between atoms: C_10  and  O_13
REMARK    6  A    between atoms: O_13  and  C_14
REMARK    7  A    between atoms: C_15  and  C_27
REMARK    8  A    between atoms: C_19  and  O_26
REMARK    9  A    between atoms: C_21  and  O_25
REMARK   10  A    between atoms: C_29  and  O_34
REMARK   11  A    between atoms: C_30  and  O_33
REMARK                            x       y       z     vdW  Elec       q    Type
REMARK                         _______ _______ _______ _____ _____    ______ ____
ROOT
ATOM      1  C   UNL     1       2.880   2.870  -3.303  0.00  0.00    +0.214 A 
ATOM      2  C   UNL     1       1.472   3.301  -3.055  0.00  0.00    +0.238 A 
ATOM      3  O   UNL     1       0.540   2.503  -3.091  0.00  0.00    -0.283 OA
ATOM      4  C   UNL     1       1.231   4.736  -2.862  0.00  0.00    +0.109 A 
ATOM      5  C   UNL     1       2.279   5.613  -3.135  0.00  0.00    +0.147 A 
ATOM      6  C   UNL     1       2.071   6.994  -3.054  0.00  0.00    +0.092 A 
ATOM      7  C   UNL     1       0.813   7.479  -2.701  0.00  0.00    +0.124 A 
ATOM      8  C   UNL     1      -0.233   6.615  -2.405  0.00  0.00    +0.091 A 
ATOM      9  O   UNL     1       3.533   5.192  -3.510  0.00  0.00    -0.451 OA
ATOM     10  C   UNL     1      -0.022   5.241  -2.478  0.00  0.00    +0.135 A 
ATOM     11  C   UNL     1       3.798   3.827  -3.564  0.00  0.00    +0.181 A 
ENDROOT
BRANCH  11  12
ATOM     12  C   UNL     1       5.212   3.505  -3.940  0.00  0.00    +0.025 A 
ATOM     13  C   UNL     1       6.278   4.325  -3.519  0.00  0.00    +0.015 A 
ATOM     14  C   UNL     1       7.609   4.004  -3.833  0.00  0.00    +0.050 A 
ATOM     15  C   UNL     1       7.884   2.857  -4.558  0.00  0.00    +0.158 A 
ATOM     16  C   UNL     1       6.852   2.047  -5.006  0.00  0.00    +0.159 A 
ATOM     17  C   UNL     1       5.529   2.379  -4.730  0.00  0.00    +0.060 A 
BRANCH  15  18
ATOM     18  O   UNL     1       9.180   2.521  -4.823  0.00  0.00    -0.503 OA
ATOM     19  H   UNL     1       9.118   1.673  -5.311  0.00  0.00    +0.292 HD
ENDBRANCH  15  18
BRANCH  16  20
ATOM     20  O   UNL     1       7.182   0.919  -5.707  0.00  0.00    -0.503 OA
ATOM     21  H   UNL     1       6.361   0.422  -5.880  0.00  0.00    +0.292 HD
ENDBRANCH  16  20
ENDBRANCH  11  12
BRANCH   7  22
ATOM     22  O   UNL     1       0.550   8.813  -2.629  0.00  0.00    -0.507 OA
ATOM     23  H   UNL     1       1.346   9.309  -2.884  0.00  0.00    +0.292 HD
ENDBRANCH   7  22
BRANCH  10  24
ATOM     24  O   UNL     1      -1.048   4.405  -2.153  0.00  0.00    -0.506 OA
ATOM     25  H   UNL     1      -1.868   4.909  -2.024  0.00  0.00    +0.292 HD
ENDBRANCH  10  24
BRANCH   1  26
ATOM     26  O   UNL     1       3.219   1.530  -3.373  0.00  0.00    -0.453 OA
BRANCH  26  30
ATOM     27  C   UNL     1       0.553   0.192  -0.194  0.00  0.00    +0.041 C 
ATOM     28  C   UNL     1       2.050  -0.091  -0.317  0.00  0.00    +0.150 C 
ATOM     29  O   UNL     1       2.695   0.838  -1.191  0.00  0.00    -0.334 OA
ATOM     30  C   UNL     1       2.491   0.588  -2.585  0.00  0.00    +0.339 C 
ATOM     31  C   UNL     1       3.012  -0.807  -2.989  0.00  0.00    +0.214 C 
ATOM     32  C   UNL     1       2.315  -1.879  -2.149  0.00  0.00    +0.180 C 
ATOM     33  C   UNL     1       2.441  -1.543  -0.655  0.00  0.00    +0.174 C 
BRANCH  31  34
ATOM     34  O   UNL     1       2.777  -1.069  -4.384  0.00  0.00    -0.383 OA
ATOM     35  H   UNL     1       1.846  -1.367  -4.445  0.00  0.00    +0.210 HD
ENDBRANCH  31  34
BRANCH  32  36
ATOM     36  O   UNL     1       0.967  -2.042  -2.629  0.00  0.00    -0.386 OA
ATOM     37  H   UNL     1       0.397  -1.337  -2.285  0.00  0.00    +0.210 HD
ENDBRANCH  32  36
BRANCH  33  38
ATOM     38  O   UNL     1       1.742  -2.487   0.146  0.00  0.00    -0.387 OA
ATOM     39  H   UNL     1       2.026  -2.361   1.069  0.00  0.00    +0.210 HD
ENDBRANCH  33  38
ENDBRANCH  26  30
ENDBRANCH   1  26
TORSDOF 10
