REMARK  Name = 
REMARK  9 active torsions:
REMARK  status: ('A' for Active; 'I' for Inactive)
REMARK    1  A    between atoms: C_3  and  O_25
REMARK    2  A    between atoms: C_4  and  O_24
REMARK    3  A    between atoms: C_6  and  C_7
REMARK    4  A    between atoms: C_8  and  O_23
REMARK    5  A    between atoms: C_12  and  O_22
REMARK    6  A    between atoms: C_14  and  O_18
REMARK    7  A    between atoms: O_18  and  C_19
REMARK    8  A    between atoms: C_19  and  C_20
REMARK    9  A    between atoms: C_20  and  O_21
REMARK                            x       y       z     vdW  Elec       q    Type
REMARK                         _______ _______ _______ _____ _____    ______ ____
ROOT
ATOM      1  C   UNL     1      -1.468  -2.531  -0.171  0.00  0.00    +0.181 A 
ATOM      2  O   UNL     1      -0.720  -3.685   0.095  0.00  0.00    -0.451 OA
ATOM      3  C   UNL     1      -1.298  -4.919  -0.106  0.00  0.00    +0.147 A 
ATOM      4  C   UNL     1      -2.638  -5.066  -0.448  0.00  0.00    +0.109 A 
ATOM      5  C   UNL     1      -3.184  -6.340  -0.631  0.00  0.00    +0.135 A 
ATOM      6  C   UNL     1      -2.392  -7.474  -0.494  0.00  0.00    +0.092 A 
ATOM      7  C   UNL     1      -1.039  -7.345  -0.179  0.00  0.00    +0.128 A 
ATOM      8  C   UNL     1      -3.453  -3.869  -0.640  0.00  0.00    +0.238 A 
ATOM      9  O   UNL     1      -4.652  -3.977  -0.890  0.00  0.00    -0.283 OA
ATOM     10  C   UNL     1      -0.499  -6.064   0.036  0.00  0.00    +0.092 A 
ATOM     11  C   UNL     1      -2.763  -2.559  -0.565  0.00  0.00    +0.208 A 
ENDROOT
BRANCH   1  13
ATOM     12  C   UNL     1      -1.319  -0.059   0.408  0.00  0.00    +0.015 A 
ATOM     13  C   UNL     1      -0.700  -1.256  -0.023  0.00  0.00    +0.025 A 
ATOM     14  C   UNL     1       0.668  -1.204  -0.329  0.00  0.00    +0.060 A 
ATOM     15  C   UNL     1       1.346   0.014  -0.296  0.00  0.00    +0.159 A 
ATOM     16  C   UNL     1       0.692   1.196   0.036  0.00  0.00    +0.158 A 
ATOM     17  C   UNL     1      -0.641   1.168   0.406  0.00  0.00    +0.050 A 
BRANCH  15  18
ATOM     18  O   UNL     1       2.675   0.046  -0.615  0.00  0.00    -0.503 OA
ATOM     19  H   UNL     1       2.931   0.986  -0.516  0.00  0.00    +0.292 HD
ENDBRANCH  15  18
BRANCH  16  20
ATOM     20  O   UNL     1       1.405   2.361  -0.019  0.00  0.00    -0.503 OA
ATOM     21  H   UNL     1       0.792   3.104   0.124  0.00  0.00    +0.292 HD
ENDBRANCH  16  20
ENDBRANCH   1  13
BRANCH   5  22
ATOM     22  O   UNL     1      -4.497  -6.552  -0.959  0.00  0.00    -0.506 OA
ATOM     23  H   UNL     1      -4.944  -5.676  -1.019  0.00  0.00    +0.292 HD
ENDBRANCH   5  22
BRANCH  11  24
ATOM     24  O   UNL     1      -3.509  -1.462  -0.951  0.00  0.00    -0.501 OA
ATOM     25  H   UNL     1      -2.911  -0.804  -1.340  0.00  0.00    +0.292 HD
ENDBRANCH  11  24
BRANCH   7  26
ATOM     26  O   UNL     1      -0.176  -8.405  -0.028  0.00  0.00    -0.489 OA
BRANCH  26  27
ATOM     27  C   UNL     1      -0.558  -9.612  -0.713  0.00  0.00    +0.256 C 
BRANCH  27  28
ATOM     28  C   UNL     1       0.487 -10.696  -0.455  0.00  0.00    +0.196 C 
BRANCH  28  29
ATOM     29  O   UNL     1       0.481 -11.076   0.920  0.00  0.00    -0.392 OA
ATOM     30  H   UNL     1       0.617 -10.258   1.431  0.00  0.00    +0.210 HD
ENDBRANCH  28  29
ENDBRANCH  27  28
ENDBRANCH  26  27
ENDBRANCH   7  26
TORSDOF 9
