REMARK  Name = 
REMARK  18 active torsions:
REMARK  status: ('A' for Active; 'I' for Inactive)
REMARK    1  A    between atoms: C_3  and  O_54
REMARK    2  A    between atoms: C_4  and  O_53
REMARK    3  A    between atoms: C_6  and  C_7
REMARK    4  A    between atoms: C_8  and  O_36
REMARK    5  A    between atoms: C_12  and  O_35
REMARK    6  A    between atoms: C_14  and  O_18
REMARK    7  A    between atoms: O_18  and  C_19
REMARK    8  A    between atoms: C_21  and  O_34
REMARK    9  A    between atoms: C_23  and  O_33
REMARK   10  A    between atoms: C_25  and  O_32
REMARK   11  A    between atoms: C_27  and  C_30
REMARK   12  A    between atoms: C_30  and  O_31
REMARK   13  A    between atoms: O_36  and  C_37
REMARK   14  A    between atoms: C_39  and  O_52
REMARK   15  A    between atoms: C_41  and  O_51
REMARK   16  A    between atoms: C_43  and  O_50
REMARK   17  A    between atoms: C_45  and  C_48
REMARK   18  A    between atoms: C_48  and  O_49
REMARK                            x       y       z     vdW  Elec       q    Type
REMARK                         _______ _______ _______ _____ _____    ______ ____
ROOT
ATOM      1  C   UNL     1      -1.286  -2.632   0.832  0.00  0.00    +0.181 A 
ATOM      2  O   UNL     1      -0.631  -3.862   0.908  0.00  0.00    -0.451 OA
ATOM      3  C   UNL     1      -1.209  -4.979   0.367  0.00  0.00    +0.147 A 
ATOM      4  C   UNL     1      -2.525  -5.013  -0.044  0.00  0.00    +0.109 A 
ATOM      5  C   UNL     1      -3.078  -6.222  -0.472  0.00  0.00    +0.135 A 
ATOM      6  C   UNL     1      -2.305  -7.390  -0.498  0.00  0.00    +0.092 A 
ATOM      7  C   UNL     1      -0.963  -7.358  -0.096  0.00  0.00    +0.131 A 
ATOM      8  C   UNL     1      -3.268  -3.751  -0.039  0.00  0.00    +0.238 A 
ATOM      9  O   UNL     1      -4.475  -3.742  -0.262  0.00  0.00    -0.283 OA
ATOM     10  C   UNL     1      -0.414  -6.123   0.281  0.00  0.00    +0.093 A 
ATOM     11  C   UNL     1      -2.500  -2.488   0.243  0.00  0.00    +0.214 A 
ENDROOT
BRANCH   1  13
ATOM     12  C   UNL     1       0.917  -1.702   1.649  0.00  0.00    +0.015 A 
ATOM     13  C   UNL     1      -0.474  -1.540   1.463  0.00  0.00    +0.025 A 
ATOM     14  C   UNL     1      -1.052  -0.348   1.936  0.00  0.00    +0.060 A 
ATOM     15  C   UNL     1      -0.264   0.651   2.498  0.00  0.00    +0.159 A 
ATOM     16  C   UNL     1       1.093   0.455   2.704  0.00  0.00    +0.158 A 
ATOM     17  C   UNL     1       1.694  -0.721   2.283  0.00  0.00    +0.050 A 
BRANCH  16  18
ATOM     18  O   UNL     1       1.790   1.440   3.340  0.00  0.00    -0.503 OA
ATOM     19  H   UNL     1       2.613   1.052   3.685  0.00  0.00    +0.292 HD
ENDBRANCH  16  18
BRANCH  15  20
ATOM     20  O   UNL     1      -0.847   1.834   2.849  0.00  0.00    -0.503 OA
ATOM     21  H   UNL     1      -0.111   2.396   3.162  0.00  0.00    +0.292 HD
ENDBRANCH  15  20
ENDBRANCH   1  13
BRANCH   5  22
ATOM     22  O   UNL     1      -4.389  -6.334  -0.853  0.00  0.00    -0.506 OA
ATOM     23  H   UNL     1      -4.836  -5.468  -0.710  0.00  0.00    +0.292 HD
ENDBRANCH   5  22
BRANCH  11  24
ATOM     24  O   UNL     1      -3.138  -1.293  -0.094  0.00  0.00    -0.453 OA
BRANCH  24  25
ATOM     25  C   UNL     1      -2.350  -0.404  -0.919  0.00  0.00    +0.340 C 
ATOM     26  O   UNL     1      -2.745   0.945  -0.685  0.00  0.00    -0.331 OA
ATOM     27  C   UNL     1      -3.443   1.727  -1.656  0.00  0.00    +0.179 C 
ATOM     28  C   UNL     1      -3.600   1.151  -3.081  0.00  0.00    +0.177 C 
ATOM     29  C   UNL     1      -3.571  -0.373  -3.106  0.00  0.00    +0.180 C 
ATOM     30  C   UNL     1      -2.324  -0.857  -2.387  0.00  0.00    +0.214 C 
BRANCH  30  31
ATOM     31  O   UNL     1      -1.169  -0.329  -3.071  0.00  0.00    -0.383 OA
ATOM     32  H   UNL     1      -0.452  -0.164  -2.432  0.00  0.00    +0.210 HD
ENDBRANCH  30  31
BRANCH  29  33
ATOM     33  O   UNL     1      -4.796  -0.884  -2.562  0.00  0.00    -0.386 OA
ATOM     34  H   UNL     1      -4.791  -0.815  -1.586  0.00  0.00    +0.210 HD
ENDBRANCH  29  33
BRANCH  28  35
ATOM     35  O   UNL     1      -4.789   1.620  -3.735  0.00  0.00    -0.386 OA
ATOM     36  H   UNL     1      -5.405   0.857  -3.760  0.00  0.00    +0.210 HD
ENDBRANCH  28  35
BRANCH  27  37
ATOM     37  C   UNL     1      -4.757   2.241  -1.039  0.00  0.00    +0.190 C 
BRANCH  37  38
ATOM     38  O   UNL     1      -5.341   3.289  -1.808  0.00  0.00    -0.392 OA
ATOM     39  H   UNL     1      -5.358   2.976  -2.737  0.00  0.00    +0.210 HD
ENDBRANCH  37  38
ENDBRANCH  27  37
ENDBRANCH  24  25
ENDBRANCH  11  24
BRANCH   7  40
ATOM     40  O   UNL     1      -0.294  -8.569  -0.068  0.00  0.00    -0.461 OA
BRANCH  40  41
ATOM     41  C   UNL     1       0.863  -8.608   0.786  0.00  0.00    +0.339 C 
ATOM     42  O   UNL     1       2.073  -8.355   0.069  0.00  0.00    -0.331 OA
ATOM     43  C   UNL     1       2.889  -9.470  -0.309  0.00  0.00    +0.179 C 
ATOM     44  C   UNL     1       3.119 -10.432   0.867  0.00  0.00    +0.177 C 
ATOM     45  C   UNL     1       1.786 -10.976   1.388  0.00  0.00    +0.180 C 
ATOM     46  C   UNL     1       0.853  -9.818   1.763  0.00  0.00    +0.214 C 
BRANCH  46  47
ATOM     47  O   UNL     1       1.296  -9.341   3.061  0.00  0.00    -0.383 OA
ATOM     48  H   UNL     1       2.189  -8.958   2.919  0.00  0.00    +0.210 HD
ENDBRANCH  46  47
BRANCH  45  49
ATOM     49  O   UNL     1       1.234 -11.905   0.461  0.00  0.00    -0.386 OA
ATOM     50  H   UNL     1       0.315 -11.659   0.251  0.00  0.00    +0.210 HD
ENDBRANCH  45  49
BRANCH  44  51
ATOM     51  O   UNL     1       3.782  -9.712   1.924  0.00  0.00    -0.386 OA
ATOM     52  H   UNL     1       4.069 -10.369   2.586  0.00  0.00    +0.210 HD
ENDBRANCH  44  51
BRANCH  43  53
ATOM     53  C   UNL     1       2.404 -10.176  -1.590  0.00  0.00    +0.190 C 
BRANCH  53  54
ATOM     54  O   UNL     1       2.299  -9.287  -2.695  0.00  0.00    -0.392 OA
ATOM     55  H   UNL     1       3.001  -8.613  -2.619  0.00  0.00    +0.210 HD
ENDBRANCH  53  54
ENDBRANCH  43  53
ENDBRANCH  40  41
ENDBRANCH   7  40
TORSDOF 18
