REMARK  Name = 
REMARK  17 active torsions:
REMARK  status: ('A' for Active; 'I' for Inactive)
REMARK    1  A    between atoms: C_3  and  O_49
REMARK    2  A    between atoms: C_4  and  O_48
REMARK    3  A    between atoms: C_6  and  C_7
REMARK    4  A    between atoms: C_8  and  O_20
REMARK    5  A    between atoms: C_12  and  O_19
REMARK    6  A    between atoms: C_14  and  O_18
REMARK    7  A    between atoms: O_20  and  C_21
REMARK    8  A    between atoms: C_23  and  O_36
REMARK    9  A    between atoms: C_25  and  O_35
REMARK   10  A    between atoms: C_27  and  O_34
REMARK   11  A    between atoms: C_29  and  C_32
REMARK   12  A    between atoms: C_32  and  O_33
REMARK   13  A    between atoms: O_36  and  C_37
REMARK   14  A    between atoms: C_37  and  C_39
REMARK   15  A    between atoms: C_41  and  O_47
REMARK   16  A    between atoms: C_42  and  O_46
REMARK   17  A    between atoms: C_43  and  O_45
REMARK                            x       y       z     vdW  Elec       q    Type
REMARK                         _______ _______ _______ _____ _____    ______ ____
ROOT
ATOM      1  C   UNL     1      -2.830  -0.343  -0.608  0.00  0.00    +0.352 C 
ATOM      2  O   UNL     1      -3.289   0.470  -1.710  0.00  0.00    -0.330 OA
ATOM      3  C   UNL     1      -3.158   0.080  -3.089  0.00  0.00    +0.179 C 
ATOM      4  C   UNL     1      -1.893  -0.735  -3.424  0.00  0.00    +0.178 C 
ATOM      5  C   UNL     1      -1.351  -1.576  -2.257  0.00  0.00    +0.192 C 
ATOM      6  C   UNL     1      -1.378  -0.923  -0.837  0.00  0.00    +0.276 C 
ENDROOT
BRANCH   5   7
ATOM      7  O   UNL     1      -2.177  -2.779  -2.277  0.00  0.00    -0.385 OA
ATOM      8  H   UNL     1      -3.076  -2.537  -1.967  0.00  0.00    +0.210 HD
ENDBRANCH   5   7
BRANCH   4   9
ATOM      9  O   UNL     1      -2.125  -1.600  -4.563  0.00  0.00    -0.386 OA
ATOM     10  H   UNL     1      -2.272  -2.500  -4.193  0.00  0.00    +0.210 HD
ENDBRANCH   4   9
BRANCH   6  11
ATOM     11  O   UNL     1      -0.030  -0.400  -0.337  0.00  0.00    -0.449 OA
BRANCH  11  12
ATOM     12  C   UNL     1       0.297   0.626   0.526  0.00  0.00    +0.340 C 
ATOM     13  O   UNL     1      -0.427   1.596   0.698  0.00  0.00    -0.245 OA
BRANCH  12  14
ATOM     14  C   UNL     1       1.669   0.488   1.277  0.00  0.00    +0.066 A 
ATOM     15  C   UNL     1       2.375  -0.734   1.353  0.00  0.00    +0.064 A 
ATOM     16  C   UNL     1       3.583  -0.847   2.054  0.00  0.00    +0.163 A 
ATOM     17  C   UNL     1       4.153   0.234   2.706  0.00  0.00    +0.201 A 
ATOM     18  C   UNL     1       3.500   1.458   2.685  0.00  0.00    +0.163 A 
ATOM     19  C   UNL     1       2.266   1.593   2.003  0.00  0.00    +0.064 A 
BRANCH  18  20
ATOM     20  O   UNL     1       4.133   2.467   3.356  0.00  0.00    -0.503 OA
ATOM     21  H   UNL     1       3.771   3.328   3.072  0.00  0.00    +0.292 HD
ENDBRANCH  18  20
BRANCH  17  22
ATOM     22  O   UNL     1       5.343   0.076   3.343  0.00  0.00    -0.501 OA
ATOM     23  H   UNL     1       5.583   0.954   3.715  0.00  0.00    +0.292 HD
ENDBRANCH  17  22
BRANCH  16  24
ATOM     24  O   UNL     1       4.250  -2.052   2.128  0.00  0.00    -0.503 OA
ATOM     25  H   UNL     1       5.047  -1.859   2.666  0.00  0.00    +0.292 HD
ENDBRANCH  16  24
ENDBRANCH  12  14
ENDBRANCH  11  12
ENDBRANCH   6  11
BRANCH   3  26
ATOM     26  C   UNL     1      -4.492  -0.405  -3.735  0.00  0.00    +0.190 C 
BRANCH  26  27
ATOM     27  O   UNL     1      -4.440  -0.505  -5.165  0.00  0.00    -0.392 OA
ATOM     28  H   UNL     1      -3.653  -1.043  -5.394  0.00  0.00    +0.210 HD
ENDBRANCH  26  27
ENDBRANCH   3  26
BRANCH   1  29
ATOM     29  O   UNL     1      -3.670  -1.553  -0.410  0.00  0.00    -0.452 OA
BRANCH  29  40
ATOM     30  C   UNL     1      -4.937  -2.652   1.365  0.00  0.00    +0.181 A 
ATOM     31  O   UNL     1      -6.142  -2.854   2.039  0.00  0.00    -0.451 OA
ATOM     32  C   UNL     1      -7.226  -2.077   1.817  0.00  0.00    +0.147 A 
ATOM     33  C   UNL     1      -7.185  -0.970   0.989  0.00  0.00    +0.109 A 
ATOM     34  C   UNL     1      -8.339  -0.178   0.868  0.00  0.00    +0.135 A 
ATOM     35  C   UNL     1      -9.507  -0.503   1.570  0.00  0.00    +0.091 A 
ATOM     36  C   UNL     1      -9.528  -1.640   2.374  0.00  0.00    +0.124 A 
ATOM     37  C   UNL     1      -5.928  -0.707   0.260  0.00  0.00    +0.238 A 
ATOM     38  O   UNL     1      -5.886   0.246  -0.512  0.00  0.00    -0.283 OA
ATOM     39  C   UNL     1      -8.400  -2.433   2.497  0.00  0.00    +0.092 A 
ATOM     40  C   UNL     1      -4.754  -1.636   0.466  0.00  0.00    +0.214 A 
BRANCH  30  42
ATOM     41  C   UNL     1      -4.478  -4.808   2.623  0.00  0.00    +0.015 A 
ATOM     42  C   UNL     1      -3.975  -3.712   1.869  0.00  0.00    +0.025 A 
ATOM     43  C   UNL     1      -2.587  -3.603   1.809  0.00  0.00    +0.060 A 
ATOM     44  C   UNL     1      -1.762  -4.507   2.486  0.00  0.00    +0.159 A 
ATOM     45  C   UNL     1      -2.290  -5.534   3.272  0.00  0.00    +0.158 A 
ATOM     46  C   UNL     1      -3.654  -5.699   3.338  0.00  0.00    +0.050 A 
BRANCH  45  47
ATOM     47  O   UNL     1      -1.419  -6.320   3.975  0.00  0.00    -0.503 OA
ATOM     48  H   UNL     1      -1.932  -6.843   4.616  0.00  0.00    +0.292 HD
ENDBRANCH  45  47
BRANCH  44  49
ATOM     49  O   UNL     1      -0.404  -4.354   2.409  0.00  0.00    -0.503 OA
ATOM     50  H   UNL     1      -0.038  -5.090   2.944  0.00  0.00    +0.292 HD
ENDBRANCH  44  49
ENDBRANCH  30  42
BRANCH  36  51
ATOM     51  O   UNL     1     -10.645  -2.004   3.067  0.00  0.00    -0.507 OA
ATOM     52  H   UNL     1     -11.346  -1.344   2.919  0.00  0.00    +0.292 HD
ENDBRANCH  36  51
BRANCH  34  53
ATOM     53  O   UNL     1      -8.401   0.939   0.081  0.00  0.00    -0.506 OA
ATOM     54  H   UNL     1      -7.531   1.050  -0.366  0.00  0.00    +0.292 HD
ENDBRANCH  34  53
ENDBRANCH  29  40
ENDBRANCH   1  29
TORSDOF 17
