REMARK  Name = 
REMARK  12 active torsions:
REMARK  status: ('A' for Active; 'I' for Inactive)
REMARK    1  A    between atoms: C_3  and  O_38
REMARK    2  A    between atoms: C_4  and  O_37
REMARK    3  A    between atoms: C_6  and  C_7
REMARK    4  A    between atoms: C_8  and  O_20
REMARK    5  A    between atoms: C_12  and  O_19
REMARK    6  A    between atoms: C_14  and  O_18
REMARK    7  A    between atoms: O_20  and  C_21
REMARK    8  A    between atoms: C_23  and  O_36
REMARK    9  A    between atoms: C_25  and  O_35
REMARK   10  A    between atoms: C_27  and  O_34
REMARK   11  A    between atoms: C_29  and  C_32
REMARK   12  A    between atoms: C_32  and  O_33
REMARK                            x       y       z     vdW  Elec       q    Type
REMARK                         _______ _______ _______ _____ _____    ______ ____
ROOT
ATOM      1  C   UNL     1      -2.696  -0.734   2.220  0.00  0.00    +0.181 A 
ATOM      2  O   UNL     1      -2.644  -0.839   3.608  0.00  0.00    -0.451 OA
ATOM      3  C   UNL     1      -2.639   0.283   4.385  0.00  0.00    +0.147 A 
ATOM      4  C   UNL     1      -2.792   1.550   3.853  0.00  0.00    +0.109 A 
ATOM      5  C   UNL     1      -2.898   2.658   4.709  0.00  0.00    +0.135 A 
ATOM      6  C   UNL     1      -2.791   2.500   6.089  0.00  0.00    +0.091 A 
ATOM      7  C   UNL     1      -2.574   1.228   6.605  0.00  0.00    +0.124 A 
ATOM      8  C   UNL     1      -2.796   1.689   2.390  0.00  0.00    +0.238 A 
ATOM      9  O   UNL     1      -2.927   2.810   1.905  0.00  0.00    -0.283 OA
ATOM     10  C   UNL     1      -2.511   0.116   5.766  0.00  0.00    +0.092 A 
ATOM     11  C   UNL     1      -2.650   0.457   1.554  0.00  0.00    +0.214 A 
ENDROOT
BRANCH   1  13
ATOM     12  C   UNL     1      -3.592  -2.298   0.435  0.00  0.00    +0.015 A 
ATOM     13  C   UNL     1      -2.836  -2.082   1.601  0.00  0.00    +0.025 A 
ATOM     14  C   UNL     1      -2.290  -3.211   2.237  0.00  0.00    +0.060 A 
ATOM     15  C   UNL     1      -2.387  -4.466   1.647  0.00  0.00    +0.159 A 
ATOM     16  C   UNL     1      -2.985  -4.621   0.404  0.00  0.00    +0.158 A 
ATOM     17  C   UNL     1      -3.621  -3.548  -0.197  0.00  0.00    +0.050 A 
BRANCH  15  18
ATOM     18  O   UNL     1      -1.879  -5.553   2.298  0.00  0.00    -0.503 OA
ATOM     19  H   UNL     1      -2.129  -6.319   1.743  0.00  0.00    +0.292 HD
ENDBRANCH  15  18
BRANCH  16  20
ATOM     20  O   UNL     1      -2.922  -5.849  -0.188  0.00  0.00    -0.503 OA
ATOM     21  H   UNL     1      -3.029  -5.727  -1.148  0.00  0.00    +0.292 HD
ENDBRANCH  16  20
ENDBRANCH   1  13
BRANCH   5  22
ATOM     22  O   UNL     1      -3.127   3.931   4.256  0.00  0.00    -0.506 OA
ATOM     23  H   UNL     1      -3.180   3.899   3.273  0.00  0.00    +0.292 HD
ENDBRANCH   5  22
BRANCH   7  24
ATOM     24  O   UNL     1      -2.423   1.023   7.946  0.00  0.00    -0.507 OA
ATOM     25  H   UNL     1      -2.455   1.882   8.401  0.00  0.00    +0.292 HD
ENDBRANCH   7  24
BRANCH  11  26
ATOM     26  O   UNL     1      -2.582   0.733   0.213  0.00  0.00    -0.453 OA
BRANCH  26  27
ATOM     27  C   UNL     1      -1.789   0.049  -0.758  0.00  0.00    +0.340 C 
ATOM     28  O   UNL     1      -1.817   0.860  -1.952  0.00  0.00    -0.331 OA
ATOM     29  C   UNL     1      -1.241   0.239  -3.114  0.00  0.00    +0.179 C 
ATOM     30  C   UNL     1       0.221  -0.172  -2.871  0.00  0.00    +0.177 C 
ATOM     31  C   UNL     1       0.418  -0.895  -1.526  0.00  0.00    +0.180 C 
ATOM     32  C   UNL     1      -0.309  -0.166  -0.378  0.00  0.00    +0.214 C 
BRANCH  30  33
ATOM     33  O   UNL     1       0.714  -0.969  -3.950  0.00  0.00    -0.386 OA
ATOM     34  H   UNL     1       0.841  -1.873  -3.594  0.00  0.00    +0.210 HD
ENDBRANCH  30  33
BRANCH  31  35
ATOM     35  O   UNL     1       0.034  -2.271  -1.694  0.00  0.00    -0.386 OA
ATOM     36  H   UNL     1      -0.846  -2.440  -1.317  0.00  0.00    +0.210 HD
ENDBRANCH  31  35
BRANCH  32  37
ATOM     37  O   UNL     1       0.345   1.093  -0.146  0.00  0.00    -0.383 OA
ATOM     38  H   UNL     1      -0.206   1.793  -0.554  0.00  0.00    +0.210 HD
ENDBRANCH  32  37
BRANCH  29  39
ATOM     39  C   UNL     1      -2.138  -0.879  -3.678  0.00  0.00    +0.190 C 
BRANCH  39  40
ATOM     40  O   UNL     1      -3.499  -0.457  -3.779  0.00  0.00    -0.392 OA
ATOM     41  H   UNL     1      -3.505   0.514  -3.868  0.00  0.00    +0.210 HD
ENDBRANCH  39  40
ENDBRANCH  29  39
ENDBRANCH  26  27
ENDBRANCH  11  26
TORSDOF 12
