REMARK  Name = 
REMARK  16 active torsions:
REMARK  status: ('A' for Active; 'I' for Inactive)
REMARK    1  A    between atoms: C_4  and  C_7
REMARK    2  A    between atoms: C_7  and  O_8
REMARK    3  A    between atoms: O_8  and  C_9
REMARK    4  A    between atoms: C_10  and  O_50
REMARK    5  A    between atoms: C_12  and  C_15
REMARK    6  A    between atoms: C_16  and  O_42
REMARK    7  A    between atoms: C_23  and  O_34
REMARK    8  A    between atoms: C_25  and  O_26
REMARK    9  A    between atoms: O_26  and  C_27
REMARK   10  A    between atoms: C_27  and  C_28
REMARK   11  A    between atoms: O_34  and  C_35
REMARK   12  A    between atoms: C_35  and  C_36
REMARK   13  A    between atoms: O_42  and  C_43
REMARK   14  A    between atoms: C_43  and  C_44
REMARK   15  A    between atoms: O_50  and  C_51
REMARK   16  A    between atoms: C_51  and  C_52
REMARK                            x       y       z     vdW  Elec       q    Type
REMARK                         _______ _______ _______ _____ _____    ______ ____
ROOT
ATOM      1  C   UNL     1       8.823  -2.109  -1.350  0.00  0.00    +0.181 A 
ATOM      2  O   UNL     1       9.613  -1.034  -1.748  0.00  0.00    -0.451 OA
ATOM      3  C   UNL     1      10.927  -1.240  -2.092  0.00  0.00    +0.147 A 
ATOM      4  C   UNL     1      11.683  -0.080  -2.305  0.00  0.00    +0.092 A 
ATOM      5  C   UNL     1      13.014  -0.185  -2.688  0.00  0.00    +0.128 A 
ATOM      6  C   UNL     1      13.579  -1.443  -2.875  0.00  0.00    +0.092 A 
ATOM      7  C   UNL     1      12.874  -2.616  -2.564  0.00  0.00    +0.139 A 
ATOM      8  C   UNL     1      11.508  -2.503  -2.214  0.00  0.00    +0.109 A 
ATOM      9  C   UNL     1      10.627  -3.656  -1.960  0.00  0.00    +0.238 A 
ATOM     10  O   UNL     1      10.997  -4.803  -2.190  0.00  0.00    -0.283 OA
ATOM     11  C   UNL     1       9.240  -3.397  -1.417  0.00  0.00    +0.211 A 
ENDROOT
BRANCH   1  15
ATOM     12  C   UNL     1       5.378  -0.371   0.594  0.00  0.00    +0.162 A 
ATOM     13  C   UNL     1       6.518  -0.750   1.305  0.00  0.00    +0.050 A 
ATOM     14  C   UNL     1       7.591  -1.376   0.657  0.00  0.00    +0.015 A 
ATOM     15  C   UNL     1       7.571  -1.605  -0.725  0.00  0.00    +0.025 A 
ATOM     16  C   UNL     1       6.397  -1.281  -1.430  0.00  0.00    +0.061 A 
ATOM     17  C   UNL     1       5.274  -0.749  -0.757  0.00  0.00    +0.163 A 
BRANCH  17  18
ATOM     18  O   UNL     1       4.117  -0.639  -1.502  0.00  0.00    -0.484 OA
BRANCH  18  19
ATOM     19  C   UNL     1       2.924  -0.942  -0.753  0.00  0.00    +0.264 C 
BRANCH  19  20
ATOM     20  C   UNL     1       1.866  -1.589  -1.616  0.00  0.00    -0.010 A 
ATOM     21  C   UNL     1       1.374  -0.937  -2.752  0.00  0.00    +0.007 A 
ATOM     22  C   UNL     1       0.366  -1.521  -3.521  0.00  0.00    +0.000 A 
ATOM     23  C   UNL     1      -0.164  -2.758  -3.159  0.00  0.00    +0.000 A 
ATOM     24  C   UNL     1       0.303  -3.408  -2.019  0.00  0.00    +0.000 A 
ATOM     25  C   UNL     1       1.308  -2.823  -1.247  0.00  0.00    +0.007 A 
ENDBRANCH  19  20
ENDBRANCH  18  19
ENDBRANCH  17  18
BRANCH  12  26
ATOM     26  O   UNL     1       4.341   0.335   1.160  0.00  0.00    -0.484 OA
BRANCH  26  27
ATOM     27  C   UNL     1       4.686   1.165   2.272  0.00  0.00    +0.264 C 
BRANCH  27  31
ATOM     28  C   UNL     1       1.648   4.009   3.456  0.00  0.00    +0.000 A 
ATOM     29  C   UNL     1       1.668   3.535   2.145  0.00  0.00    +0.000 A 
ATOM     30  C   UNL     1       2.628   2.599   1.748  0.00  0.00    +0.007 A 
ATOM     31  C   UNL     1       3.575   2.118   2.663  0.00  0.00    -0.010 A 
ATOM     32  C   UNL     1       3.544   2.609   3.979  0.00  0.00    +0.007 A 
ATOM     33  C   UNL     1       2.587   3.545   4.373  0.00  0.00    +0.000 A 
ENDBRANCH  27  31
ENDBRANCH  26  27
ENDBRANCH  12  26
ENDBRANCH   1  15
BRANCH   7  34
ATOM     34  O   UNL     1      13.508  -3.848  -2.544  0.00  0.00    -0.486 OA
BRANCH  34  35
ATOM     35  C   UNL     1      14.946  -3.781  -2.519  0.00  0.00    +0.264 C 
BRANCH  35  36
ATOM     36  C   UNL     1      15.692  -4.997  -2.016  0.00  0.00    -0.010 A 
ATOM     37  C   UNL     1      17.060  -4.834  -1.711  0.00  0.00    +0.007 A 
ATOM     38  C   UNL     1      17.813  -5.884  -1.193  0.00  0.00    +0.000 A 
ATOM     39  C   UNL     1      17.214  -7.120  -0.987  0.00  0.00    +0.000 A 
ATOM     40  C   UNL     1      15.869  -7.301  -1.326  0.00  0.00    +0.000 A 
ATOM     41  C   UNL     1      15.109  -6.251  -1.840  0.00  0.00    +0.007 A 
ENDBRANCH  35  36
ENDBRANCH  34  35
ENDBRANCH   7  34
BRANCH  11  42
ATOM     42  O   UNL     1       8.600  -4.559  -1.071  0.00  0.00    -0.480 OA
BRANCH  42  43
ATOM     43  C   UNL     1       7.219  -4.696  -0.785  0.00  0.00    +0.265 C 
BRANCH  43  44
ATOM     44  C   UNL     1       6.290  -4.671  -1.977  0.00  0.00    -0.010 A 
ATOM     45  C   UNL     1       4.925  -4.914  -1.753  0.00  0.00    +0.007 A 
ATOM     46  C   UNL     1       4.009  -4.860  -2.802  0.00  0.00    +0.000 A 
ATOM     47  C   UNL     1       4.439  -4.551  -4.088  0.00  0.00    +0.000 A 
ATOM     48  C   UNL     1       5.792  -4.332  -4.333  0.00  0.00    +0.000 A 
ATOM     49  C   UNL     1       6.714  -4.409  -3.288  0.00  0.00    +0.007 A 
ENDBRANCH  43  44
ENDBRANCH  42  43
ENDBRANCH  11  42
BRANCH   5  50
ATOM     50  O   UNL     1      13.872   0.859  -2.902  0.00  0.00    -0.487 OA
BRANCH  50  51
ATOM     51  C   UNL     1      13.631   2.022  -2.107  0.00  0.00    +0.264 C 
BRANCH  51  52
ATOM     52  C   UNL     1      14.905   2.810  -1.896  0.00  0.00    -0.010 A 
ATOM     53  C   UNL     1      15.043   3.584  -0.732  0.00  0.00    +0.007 A 
ATOM     54  C   UNL     1      16.194   4.339  -0.507  0.00  0.00    +0.000 A 
ATOM     55  C   UNL     1      17.220   4.340  -1.449  0.00  0.00    +0.000 A 
ATOM     56  C   UNL     1      17.090   3.593  -2.618  0.00  0.00    +0.000 A 
ATOM     57  C   UNL     1      15.937   2.836  -2.845  0.00  0.00    +0.007 A 
ENDBRANCH  51  52
ENDBRANCH  50  51
ENDBRANCH   5  50
TORSDOF 16
