REMARK  Name = 
REMARK  9 active torsions:
REMARK  status: ('A' for Active; 'I' for Inactive)
REMARK    1  A    between atoms: C_4  and  C_7
REMARK    2  A    between atoms: C_8  and  C_9
REMARK    3  A    between atoms: C_9  and  C_11
REMARK    4  A    between atoms: C_19  and  O_38
REMARK    5  A    between atoms: C_20  and  O_37
REMARK    6  A    between atoms: C_22  and  C_23
REMARK    7  A    between atoms: C_24  and  O_36
REMARK    8  A    between atoms: C_28  and  O_35
REMARK    9  A    between atoms: C_30  and  O_34
REMARK                            x       y       z     vdW  Elec       q    Type
REMARK                         _______ _______ _______ _____ _____    ______ ____
ROOT
ATOM      1  C   UNL     1       3.231   0.302  -0.821  0.00  0.00    +0.011 C 
ATOM      2  C   UNL     1       3.822  -0.870  -0.470  0.00  0.00    +0.052 C 
ENDROOT
BRANCH   1   6
ATOM      3  C   UNL     1      -0.987   1.694   1.852  0.00  0.00    +0.000 A 
ATOM      4  C   UNL     1       0.116   2.870   1.127  0.00  0.00    +0.001 A 
ATOM      5  C   UNL     1       1.495   2.400   0.052  0.00  0.00    +0.008 A 
ATOM      6  C   UNL     1       1.870   0.730  -0.409  0.00  0.00    -0.025 A 
ATOM      7  C   UNL     1       0.767  -0.526   0.192  0.00  0.00    +0.008 A 
ATOM      8  C   UNL     1      -0.757  -0.030   1.422  0.00  0.00    +0.001 A 
ENDBRANCH   1   6
BRANCH   2   9
ATOM      9  C   UNL     1       5.311  -0.982  -0.617  0.00  0.00    +0.186 C 
ATOM     10  O   UNL     1       5.983   0.045  -0.719  0.00  0.00    -0.287 OA
BRANCH   9  11
ATOM     11  C   UNL     1       6.031  -2.301  -0.645  0.00  0.00    +0.022 A 
ATOM     12  C   UNL     1       5.560  -3.517  -0.134  0.00  0.00    +0.012 A 
ATOM     13  C   UNL     1       6.326  -4.691  -0.283  0.00  0.00    +0.001 A 
ATOM     14  C   UNL     1       7.562  -4.662  -0.934  0.00  0.00    +0.000 A 
ATOM     15  C   UNL     1       8.062  -3.454  -1.400  0.00  0.00    +0.001 A 
ATOM     16  C   UNL     1       7.308  -2.287  -1.243  0.00  0.00    +0.012 A 
ENDBRANCH   9  11
ENDBRANCH   2   9
TORSDOF 3
REMARK  Name = 
REMARK  9 active torsions:
REMARK  status: ('A' for Active; 'I' for Inactive)
REMARK    1  A    between atoms: C_4  and  C_7
REMARK    2  A    between atoms: C_8  and  C_9
REMARK    3  A    between atoms: C_9  and  C_11
REMARK    4  A    between atoms: C_19  and  O_38
REMARK    5  A    between atoms: C_20  and  O_37
REMARK    6  A    between atoms: C_22  and  C_23
REMARK    7  A    between atoms: C_24  and  O_36
REMARK    8  A    between atoms: C_28  and  O_35
REMARK    9  A    between atoms: C_30  and  O_34
REMARK                            x       y       z     vdW  Elec       q    Type
REMARK                         _______ _______ _______ _____ _____    ______ ____
ROOT
ATOM      1  C   UNL     1      -1.687  -3.011  -0.398  0.00  0.00    +0.181 A 
ATOM      2  O   UNL     1      -0.844  -4.085  -0.404  0.00  0.00    -0.451 OA
ATOM      3  C   UNL     1      -1.403  -5.315  -0.475  0.00  0.00    +0.147 A 
ATOM      4  C   UNL     1      -2.753  -5.506  -0.748  0.00  0.00    +0.109 A 
ATOM      5  C   UNL     1      -3.270  -6.796  -0.728  0.00  0.00    +0.135 A 
ATOM      6  C   UNL     1      -2.431  -7.876  -0.459  0.00  0.00    +0.091 A 
ATOM      7  C   UNL     1      -1.077  -7.653  -0.206  0.00  0.00    +0.124 A 
ATOM      8  C   UNL     1      -3.598  -4.331  -1.003  0.00  0.00    +0.238 A 
ATOM      9  O   UNL     1      -4.774  -4.466  -1.325  0.00  0.00    -0.283 OA
ATOM     10  C   UNL     1      -0.553  -6.376  -0.210  0.00  0.00    +0.092 A 
ATOM     11  C   UNL     1      -2.976  -3.006  -0.775  0.00  0.00    +0.208 A 
ENDROOT
BRANCH   1  13
ATOM     12  C   UNL     1       0.091  -2.133   1.547  0.00  0.00    +0.015 A 
ATOM     13  C   UNL     1      -1.008  -1.867   0.155  0.00  0.00    +0.025 A 
ATOM     14  C   UNL     1      -1.202  -0.350  -0.664  0.00  0.00    +0.060 A 
ATOM     15  C   UNL     1      -0.281   1.037  -0.074  0.00  0.00    +0.159 A 
ATOM     16  C   UNL     1       0.939   0.802   1.526  0.00  0.00    +0.158 A 
ATOM     17  C   UNL     1       1.066  -0.846   2.256  0.00  0.00    +0.050 A 
BRANCH  15  18
ATOM     18  O   UNL     1      -0.748   2.028  -0.970  0.00  0.00    -0.503 OA
ATOM     19  H   UNL     1      -0.269   2.863  -0.961  0.00  0.00    +0.292 HD
ENDBRANCH  15  18
BRANCH  16  20
ATOM     20  O   UNL     1       1.677   1.644   2.371  0.00  0.00    -0.503 OA
ATOM     21  H   UNL     1       1.277   1.497   3.248  0.00  0.00    +0.292 HD
ENDBRANCH  16  20
ENDBRANCH   1  13
BRANCH   5  22
ATOM     22  O   UNL     1      -4.596  -7.056  -0.938  0.00  0.00    -0.506 OA
ATOM     23  H   UNL     1      -5.055  -6.197  -1.098  0.00  0.00    +0.292 HD
ENDBRANCH   5  22
BRANCH   7  24
ATOM     24  O   UNL     1      -0.212  -8.668   0.067  0.00  0.00    -0.507 OA
ATOM     25  H   UNL     1      -0.694  -9.508   0.004  0.00  0.00    +0.292 HD
ENDBRANCH   7  24
BRANCH  11  26
ATOM     26  O   UNL     1      -3.791  -1.891  -0.793  0.00  0.00    -0.501 OA
ATOM     27  H   UNL     1      -3.548  -1.374  -1.583  0.00  0.00    +0.292 HD
ENDBRANCH  11  26
TORSDOF 6
