REMARK  Name = 
REMARK  12 active torsions:
REMARK  status: ('A' for Active; 'I' for Inactive)
REMARK    1  A    between atoms: C_3  and  O_38
REMARK    2  A    between atoms: C_4  and  O_21
REMARK    3  A    between atoms: C_6  and  C_7
REMARK    4  A    between atoms: C_8  and  O_20
REMARK    5  A    between atoms: C_12  and  O_19
REMARK    6  A    between atoms: C_14  and  O_18
REMARK    7  A    between atoms: O_21  and  C_22
REMARK    8  A    between atoms: C_24  and  O_37
REMARK    9  A    between atoms: C_26  and  O_36
REMARK   10  A    between atoms: C_28  and  O_35
REMARK   11  A    between atoms: C_30  and  C_33
REMARK   12  A    between atoms: C_33  and  O_34
REMARK                            x       y       z     vdW  Elec       q    Type
REMARK                         _______ _______ _______ _____ _____    ______ ____
ROOT
ATOM      1  C   UNL     1      -1.546   0.130   0.113  0.00  0.00    +0.015 A 
ATOM      2  C   UNL     1      -0.908  -1.124   0.141  0.00  0.00    +0.025 A 
ATOM      3  C   UNL     1       0.487  -1.148   0.262  0.00  0.00    +0.061 A 
ATOM      4  C   UNL     1       1.231   0.021   0.147  0.00  0.00    +0.166 A 
ATOM      5  C   UNL     1       0.581   1.253   0.049  0.00  0.00    +0.159 A 
ATOM      6  C   UNL     1      -0.806   1.318   0.060  0.00  0.00    +0.050 A 
ENDROOT
BRANCH   2   7
ATOM      7  C   UNL     1      -1.641  -2.410  -0.015  0.00  0.00    +0.181 A 
ATOM      8  O   UNL     1      -1.035  -3.482   0.641  0.00  0.00    -0.451 OA
ATOM      9  C   UNL     1      -1.518  -4.751   0.433  0.00  0.00    +0.147 A 
ATOM     10  C   UNL     1      -2.682  -5.000  -0.284  0.00  0.00    +0.109 A 
ATOM     11  C   UNL     1      -3.149  -6.311  -0.441  0.00  0.00    +0.135 A 
ATOM     12  C   UNL     1      -2.453  -7.375   0.122  0.00  0.00    +0.091 A 
ATOM     13  C   UNL     1      -1.280  -7.120   0.825  0.00  0.00    +0.124 A 
ATOM     14  C   UNL     1      -3.380  -3.871  -0.897  0.00  0.00    +0.238 A 
ATOM     15  O   UNL     1      -4.428  -4.060  -1.509  0.00  0.00    -0.283 OA
ATOM     16  C   UNL     1      -0.803  -5.818   0.983  0.00  0.00    +0.092 A 
ATOM     17  C   UNL     1      -2.734  -2.539  -0.799  0.00  0.00    +0.208 A 
BRANCH  11  18
ATOM     18  O   UNL     1      -4.285  -6.620  -1.136  0.00  0.00    -0.506 OA
ATOM     19  H   UNL     1      -4.676  -5.785  -1.475  0.00  0.00    +0.292 HD
ENDBRANCH  11  18
BRANCH  13  20
ATOM     20  O   UNL     1      -0.562  -8.137   1.379  0.00  0.00    -0.507 OA
ATOM     21  H   UNL     1      -1.025  -8.976   1.210  0.00  0.00    +0.292 HD
ENDBRANCH  13  20
BRANCH  17  22
ATOM     22  O   UNL     1      -3.277  -1.536  -1.581  0.00  0.00    -0.501 OA
ATOM     23  H   UNL     1      -2.541  -0.994  -1.916  0.00  0.00    +0.292 HD
ENDBRANCH  17  22
ENDBRANCH   2   7
BRANCH   5  24
ATOM     24  O   UNL     1       1.329   2.392  -0.080  0.00  0.00    -0.503 OA
ATOM     25  H   UNL     1       0.740   3.148  -0.229  0.00  0.00    +0.292 HD
ENDBRANCH   5  24
BRANCH   4  26
ATOM     26  O   UNL     1       2.585   0.057   0.149  0.00  0.00    -0.457 OA
BRANCH  26  27
ATOM     27  C   UNL     1       3.353  -0.990  -0.438  0.00  0.00    +0.339 C 
ATOM     28  O   UNL     1       3.543  -2.105   0.439  0.00  0.00    -0.331 OA
ATOM     29  C   UNL     1       4.663  -2.938   0.085  0.00  0.00    +0.179 C 
ATOM     30  C   UNL     1       4.654  -3.366  -1.406  0.00  0.00    +0.177 C 
ATOM     31  C   UNL     1       4.249  -2.244  -2.390  0.00  0.00    +0.180 C 
ATOM     32  C   UNL     1       3.021  -1.467  -1.872  0.00  0.00    +0.214 C 
BRANCH  30  33
ATOM     33  O   UNL     1       3.688  -4.431  -1.526  0.00  0.00    -0.386 OA
ATOM     34  H   UNL     1       3.748  -4.779  -2.436  0.00  0.00    +0.210 HD
ENDBRANCH  30  33
BRANCH  31  35
ATOM     35  O   UNL     1       5.341  -1.374  -2.688  0.00  0.00    -0.386 OA
ATOM     36  H   UNL     1       5.873  -1.220  -1.877  0.00  0.00    +0.210 HD
ENDBRANCH  31  35
BRANCH  32  37
ATOM     37  O   UNL     1       1.884  -2.351  -1.934  0.00  0.00    -0.383 OA
ATOM     38  H   UNL     1       2.107  -3.137  -1.390  0.00  0.00    +0.210 HD
ENDBRANCH  32  37
BRANCH  29  39
ATOM     39  C   UNL     1       5.986  -2.315   0.566  0.00  0.00    +0.190 C 
BRANCH  39  40
ATOM     40  O   UNL     1       6.352  -1.153  -0.176  0.00  0.00    -0.392 OA
ATOM     41  H   UNL     1       6.212  -0.391   0.424  0.00  0.00    +0.210 HD
ENDBRANCH  39  40
ENDBRANCH  29  39
ENDBRANCH  26  27
ENDBRANCH   4  26
TORSDOF 12
