REMARK  Name = 
REMARK  14 active torsions:
REMARK  status: ('A' for Active; 'I' for Inactive)
REMARK    1  A    between atoms: C_1  and  C_2
REMARK    2  A    between atoms: C_2  and  O_3
REMARK    3  A    between atoms: O_3  and  C_4
REMARK    4  A    between atoms: C_5  and  C_19
REMARK    5  A    between atoms: C_9  and  O_16
REMARK    6  A    between atoms: C_11  and  O_15
REMARK    7  A    between atoms: O_16  and  C_17
REMARK    8  A    between atoms: C_17  and  C_18
REMARK    9  A    between atoms: C_21  and  O_28
REMARK   10  A    between atoms: C_22  and  O_25
REMARK   11  A    between atoms: O_25  and  C_26
REMARK   12  A    between atoms: C_26  and  C_27
REMARK   13  A    between atoms: O_28  and  C_29
REMARK   14  A    between atoms: C_29  and  C_30
REMARK                            x       y       z     vdW  Elec       q    Type
REMARK                         _______ _______ _______ _____ _____    ______ ____
ROOT
ATOM      1  C   UNL     1       4.212   1.324  -0.486  0.00  0.00    +0.234 C 
ATOM      2  C   UNL     1       4.814   2.533   0.240  0.00  0.00    +0.203 C 
ATOM      3  O   UNL     1       4.152   3.427   0.754  0.00  0.00    -0.289 OA
ATOM      4  C   UNL     1       6.285   2.547   0.333  0.00  0.00    +0.103 A 
ATOM      5  C   UNL     1       6.943   1.323   0.287  0.00  0.00    +0.139 A 
ATOM      6  C   UNL     1       8.334   1.264   0.433  0.00  0.00    +0.092 A 
ATOM      7  C   UNL     1       9.071   2.430   0.632  0.00  0.00    +0.127 A 
ATOM      8  C   UNL     1       8.412   3.662   0.643  0.00  0.00    +0.092 A 
ATOM      9  O   UNL     1       6.326   0.126   0.077  0.00  0.00    -0.480 OA
ATOM     10  C   UNL     1       7.027   3.722   0.484  0.00  0.00    +0.134 A 
ATOM     11  C   UNL     1       4.889   0.108   0.190  0.00  0.00    +0.240 C 
ENDROOT
BRANCH  11  12
ATOM     12  C   UNL     1       4.518  -1.257  -0.372  0.00  0.00    -0.001 A 
ATOM     13  C   UNL     1       4.178  -2.299   0.497  0.00  0.00    +0.011 A 
ATOM     14  C   UNL     1       3.984  -3.598   0.016  0.00  0.00    +0.050 A 
ATOM     15  C   UNL     1       4.118  -3.890  -1.346  0.00  0.00    +0.162 A 
ATOM     16  C   UNL     1       4.433  -2.846  -2.238  0.00  0.00    +0.162 A 
ATOM     17  C   UNL     1       4.640  -1.549  -1.740  0.00  0.00    +0.056 A 
BRANCH  15  18
ATOM     18  O   UNL     1       3.976  -5.151  -1.878  0.00  0.00    -0.489 OA
BRANCH  18  19
ATOM     19  C   UNL     1       3.754  -6.221  -0.958  0.00  0.00    +0.226 C 
ATOM     20  C   UNL     1       3.661  -7.531  -1.721  0.00  0.00    +0.048 C 
ENDBRANCH  18  19
ENDBRANCH  15  18
BRANCH  16  21
ATOM     21  O   UNL     1       4.544  -3.176  -3.569  0.00  0.00    -0.489 OA
BRANCH  21  22
ATOM     22  C   UNL     1       4.831  -2.114  -4.477  0.00  0.00    +0.226 C 
ATOM     23  C   UNL     1       4.840  -2.654  -5.898  0.00  0.00    +0.048 C 
ENDBRANCH  21  22
ENDBRANCH  16  21
ENDBRANCH  11  12
BRANCH  10  24
ATOM     24  O   UNL     1       6.418   4.943   0.427  0.00  0.00    -0.506 OA
ATOM     25  H   UNL     1       7.052   5.644   0.649  0.00  0.00    +0.292 HD
ENDBRANCH  10  24
BRANCH   1  26
ATOM     26  O   UNL     1       2.788   1.205  -0.384  0.00  0.00    -0.365 OA
BRANCH  26  28
ATOM     27  C   UNL     1       0.581   1.996  -0.909  0.00  0.00    +0.034 C 
ATOM     28  C   UNL     1       2.070   2.277  -0.999  0.00  0.00    +0.157 C 
ENDBRANCH  26  28
ENDBRANCH   1  26
BRANCH   7  29
ATOM     29  O   UNL     1      10.423   2.510   0.813  0.00  0.00    -0.492 OA
BRANCH  29  30
ATOM     30  C   UNL     1      11.149   1.281   0.850  0.00  0.00    +0.225 C 
ATOM     31  C   UNL     1      12.610   1.609   1.096  0.00  0.00    +0.048 C 
ENDBRANCH  29  30
ENDBRANCH   7  29
TORSDOF 10
