REMARK  Name = 
REMARK  18 active torsions:
REMARK  status: ('A' for Active; 'I' for Inactive)
REMARK    1  A    between atoms: C_1  and  C_2
REMARK    2  A    between atoms: C_2  and  C_3
REMARK    3  A    between atoms: C_3  and  O_4
REMARK    4  A    between atoms: O_4  and  C_5
REMARK    5  A    between atoms: C_6  and  C_21
REMARK    6  A    between atoms: C_10  and  O_17
REMARK    7  A    between atoms: C_12  and  O_16
REMARK    8  A    between atoms: O_17  and  C_18
REMARK    9  A    between atoms: C_18  and  C_19
REMARK   10  A    between atoms: C_19  and  C_20
REMARK   11  A    between atoms: C_23  and  O_31
REMARK   12  A    between atoms: C_24  and  O_27
REMARK   13  A    between atoms: O_27  and  C_28
REMARK   14  A    between atoms: C_28  and  C_29
REMARK   15  A    between atoms: C_29  and  C_30
REMARK   16  A    between atoms: O_31  and  C_32
REMARK   17  A    between atoms: C_32  and  C_33
REMARK   18  A    between atoms: C_33  and  C_34
REMARK                            x       y       z     vdW  Elec       q    Type
REMARK                         _______ _______ _______ _____ _____    ______ ____
ROOT
ATOM      1  C   UNL     1       4.719   2.680  -0.253  0.00  0.00    +0.234 C 
ATOM      2  C   UNL     1       3.760   3.791   0.171  0.00  0.00    +0.203 C 
ATOM      3  O   UNL     1       2.620   3.595   0.573  0.00  0.00    -0.289 OA
ATOM      4  C   UNL     1       4.317   5.153   0.112  0.00  0.00    +0.103 A 
ATOM      5  C   UNL     1       5.703   5.292   0.193  0.00  0.00    +0.139 A 
ATOM      6  C   UNL     1       6.278   6.570   0.190  0.00  0.00    +0.092 A 
ATOM      7  C   UNL     1       5.463   7.704   0.122  0.00  0.00    +0.127 A 
ATOM      8  C   UNL     1       4.079   7.559   0.034  0.00  0.00    +0.092 A 
ATOM      9  O   UNL     1       6.576   4.235   0.260  0.00  0.00    -0.480 OA
ATOM     10  C   UNL     1       3.507   6.290   0.010  0.00  0.00    +0.134 A 
ATOM     11  C   UNL     1       5.991   2.948   0.577  0.00  0.00    +0.240 C 
ENDROOT
BRANCH  11  12
ATOM     12  C   UNL     1       7.101   1.918   0.376  0.00  0.00    -0.001 A 
ATOM     13  C   UNL     1       7.691   1.713  -0.877  0.00  0.00    +0.011 A 
ATOM     14  C   UNL     1       8.764   0.825  -1.024  0.00  0.00    +0.050 A 
ATOM     15  C   UNL     1       9.286   0.148   0.083  0.00  0.00    +0.162 A 
ATOM     16  C   UNL     1       8.666   0.287   1.337  0.00  0.00    +0.162 A 
ATOM     17  C   UNL     1       7.585   1.174   1.472  0.00  0.00    +0.056 A 
BRANCH  15  18
ATOM     18  O   UNL     1      10.387  -0.675   0.011  0.00  0.00    -0.488 OA
BRANCH  18  19
ATOM     19  C   UNL     1      11.352  -0.336  -0.990  0.00  0.00    +0.229 C 
BRANCH  19  20
ATOM     20  C   UNL     1      12.730  -0.803  -0.527  0.00  0.00    +0.038 C 
ATOM     21  C   UNL     1      13.808  -0.452  -1.540  0.00  0.00    +0.007 C 
ENDBRANCH  19  20
ENDBRANCH  18  19
ENDBRANCH  15  18
BRANCH  16  22
ATOM     22  O   UNL     1       9.199  -0.457   2.363  0.00  0.00    -0.488 OA
BRANCH  22  23
ATOM     23  C   UNL     1       8.576  -0.357   3.642  0.00  0.00    +0.229 C 
BRANCH  23  24
ATOM     24  C   UNL     1       9.309  -1.270   4.622  0.00  0.00    +0.038 C 
ATOM     25  C   UNL     1       8.715  -1.175   6.018  0.00  0.00    +0.007 C 
ENDBRANCH  23  24
ENDBRANCH  22  23
ENDBRANCH  16  22
ENDBRANCH  11  12
BRANCH  10  26
ATOM     26  O   UNL     1       2.158   6.176  -0.159  0.00  0.00    -0.506 OA
ATOM     27  H   UNL     1       1.733   7.040  -0.041  0.00  0.00    +0.292 HD
ENDBRANCH  10  26
BRANCH   1  28
ATOM     28  O   UNL     1       4.214   1.368   0.003  0.00  0.00    -0.365 OA
BRANCH  28  29
ATOM     29  C   UNL     1       3.108   1.022  -0.834  0.00  0.00    +0.160 C 
BRANCH  29  31
ATOM     30  C   UNL     1       3.857  -1.379  -1.038  0.00  0.00    +0.006 C 
ATOM     31  C   UNL     1       2.739  -0.440  -0.617  0.00  0.00    +0.025 C 
ENDBRANCH  29  31
ENDBRANCH  28  29
ENDBRANCH   1  28
BRANCH   7  32
ATOM     32  O   UNL     1       5.887   9.001   0.187  0.00  0.00    -0.492 OA
BRANCH  32  33
ATOM     33  C   UNL     1       7.182   9.278  -0.347  0.00  0.00    +0.229 C 
BRANCH  33  34
ATOM     34  C   UNL     1       7.397  10.787  -0.260  0.00  0.00    +0.038 C 
ATOM     35  C   UNL     1       8.749  11.196  -0.812  0.00  0.00    +0.007 C 
ENDBRANCH  33  34
ENDBRANCH  32  33
ENDBRANCH   7  32
TORSDOF 14
