REMARK  Name = 
REMARK  15 active torsions:
REMARK  status: ('A' for Active; 'I' for Inactive)
REMARK    1  A    between atoms: C_3  and  O_46
REMARK    2  A    between atoms: C_6  and  C_7
REMARK    3  A    between atoms: C_7  and  C_8
REMARK    4  A    between atoms: C_9  and  O_29
REMARK    5  A    between atoms: C_13  and  O_14
REMARK    6  A    between atoms: C_17  and  O_28
REMARK    7  A    between atoms: C_18  and  C_20
REMARK    8  A    between atoms: C_22  and  O_27
REMARK    9  A    between atoms: C_23  and  O_26
REMARK   10  A    between atoms: O_29  and  C_30
REMARK   11  A    between atoms: C_32  and  O_45
REMARK   12  A    between atoms: C_34  and  O_44
REMARK   13  A    between atoms: C_36  and  O_43
REMARK   14  A    between atoms: C_38  and  C_41
REMARK   15  A    between atoms: C_41  and  O_42
REMARK                            x       y       z     vdW  Elec       q    Type
REMARK                         _______ _______ _______ _____ _____    ______ ____
ROOT
ATOM      1  C   UNL     1      -3.536   1.227  -1.138  0.00  0.00    +0.041 A 
ATOM      2  C   UNL     1      -4.860   1.379  -0.670  0.00  0.00    +0.138 A 
ATOM      3  C   UNL     1      -5.382   2.643  -0.386  0.00  0.00    +0.109 A 
ATOM      4  C   UNL     1      -6.776   2.795   0.034  0.00  0.00    +0.238 A 
ATOM      5  C   UNL     1      -7.324   4.157   0.121  0.00  0.00    +0.208 A 
ATOM      6  C   UNL     1      -6.482   5.205  -0.000  0.00  0.00    +0.181 A 
ATOM      7  O   UNL     1      -5.097   5.044  -0.254  0.00  0.00    -0.451 OA
ATOM      8  O   UNL     1      -7.511   1.830   0.248  0.00  0.00    -0.283 OA
ATOM      9  C   UNL     1      -4.592   3.777  -0.532  0.00  0.00    +0.147 A 
ATOM     10  C   UNL     1      -3.248   3.642  -0.982  0.00  0.00    +0.093 A 
ATOM     11  C   UNL     1      -2.713   2.378  -1.326  0.00  0.00    +0.134 A 
ENDROOT
BRANCH   6  12
ATOM     12  C   UNL     1      -6.983   6.615   0.029  0.00  0.00    +0.025 A 
ATOM     13  C   UNL     1      -6.325   7.610  -0.729  0.00  0.00    +0.015 A 
ATOM     14  C   UNL     1      -6.826   8.915  -0.808  0.00  0.00    +0.050 A 
ATOM     15  C   UNL     1      -7.987   9.247  -0.132  0.00  0.00    +0.158 A 
ATOM     16  C   UNL     1      -8.626   8.300   0.654  0.00  0.00    +0.159 A 
ATOM     17  C   UNL     1      -8.125   7.011   0.761  0.00  0.00    +0.060 A 
BRANCH  15  18
ATOM     18  O   UNL     1      -8.504  10.504  -0.258  0.00  0.00    -0.503 OA
ATOM     19  H   UNL     1      -9.324  10.490   0.276  0.00  0.00    +0.292 HD
ENDBRANCH  15  18
BRANCH  16  20
ATOM     20  O   UNL     1      -9.787   8.687   1.281  0.00  0.00    -0.503 OA
ATOM     21  H   UNL     1     -10.187   7.902   1.696  0.00  0.00    +0.292 HD
ENDBRANCH  16  20
ENDBRANCH   6  12
BRANCH   2  22
ATOM     22  O   UNL     1      -5.622   0.244  -0.509  0.00  0.00    -0.506 OA
ATOM     23  H   UNL     1      -6.510   0.491  -0.166  0.00  0.00    +0.292 HD
ENDBRANCH   2  22
BRANCH   5  24
ATOM     24  O   UNL     1      -8.696   4.247   0.307  0.00  0.00    -0.501 OA
ATOM     25  H   UNL     1      -9.013   3.317   0.328  0.00  0.00    +0.292 HD
ENDBRANCH   5  24
BRANCH   1  26
ATOM     26  C   UNL     1      -3.045  -0.183  -1.435  0.00  0.00    +0.077 C 
BRANCH  26  28
ATOM     27  C   UNL     1      -2.943  -2.042  -3.126  0.00  0.00    +0.007 A 
ATOM     28  C   UNL     1      -3.126  -0.670  -2.871  0.00  0.00    -0.043 A 
ATOM     29  C   UNL     1      -3.253   0.196  -3.965  0.00  0.00    +0.007 A 
ATOM     30  C   UNL     1      -3.095  -0.277  -5.268  0.00  0.00    +0.045 A 
ATOM     31  C   UNL     1      -2.791  -1.613  -5.485  0.00  0.00    +0.117 A 
ATOM     32  C   UNL     1      -2.760  -2.513  -4.429  0.00  0.00    +0.045 A 
BRANCH  31  33
ATOM     33  O   UNL     1      -2.486  -1.996  -6.757  0.00  0.00    -0.507 OA
ATOM     34  H   UNL     1      -2.065  -2.871  -6.716  0.00  0.00    +0.292 HD
ENDBRANCH  31  33
ENDBRANCH  26  28
ENDBRANCH   1  26
BRANCH  11  35
ATOM     35  O   UNL     1      -1.416   2.137  -1.743  0.00  0.00    -0.460 OA
BRANCH  35  36
ATOM     36  C   UNL     1      -0.623   3.061  -2.564  0.00  0.00    +0.339 C 
ATOM     37  O   UNL     1      -0.823   2.720  -3.938  0.00  0.00    -0.331 OA
ATOM     38  C   UNL     1       0.224   2.757  -4.919  0.00  0.00    +0.179 C 
ATOM     39  C   UNL     1       1.694   2.842  -4.464  0.00  0.00    +0.177 C 
ATOM     40  C   UNL     1       1.888   2.384  -3.026  0.00  0.00    +0.180 C 
ATOM     41  C   UNL     1       0.862   3.021  -2.068  0.00  0.00    +0.214 C 
BRANCH  39  42
ATOM     42  O   UNL     1       2.177   4.190  -4.600  0.00  0.00    -0.386 OA
ATOM     43  H   UNL     1       3.116   4.127  -4.864  0.00  0.00    +0.210 HD
ENDBRANCH  39  42
BRANCH  40  44
ATOM     44  O   UNL     1       1.930   0.964  -2.905  0.00  0.00    -0.386 OA
ATOM     45  H   UNL     1       1.461   0.560  -3.667  0.00  0.00    +0.210 HD
ENDBRANCH  40  44
BRANCH  41  46
ATOM     46  O   UNL     1       1.272   4.374  -1.741  0.00  0.00    -0.383 OA
ATOM     47  H   UNL     1       2.033   4.618  -2.301  0.00  0.00    +0.210 HD
ENDBRANCH  41  46
BRANCH  38  48
ATOM     48  C   UNL     1       0.050   1.462  -5.739  0.00  0.00    +0.190 C 
BRANCH  48  49
ATOM     49  O   UNL     1       0.316   0.322  -4.915  0.00  0.00    -0.392 OA
ATOM     50  H   UNL     1      -0.538   0.099  -4.487  0.00  0.00    +0.210 HD
ENDBRANCH  48  49
ENDBRANCH  38  48
ENDBRANCH  35  36
ENDBRANCH  11  35
TORSDOF 15
