REMARK  Name = 
REMARK  14 active torsions:
REMARK  status: ('A' for Active; 'I' for Inactive)
REMARK    1  A    between atoms: C_2  and  C_3
REMARK    2  A    between atoms: C_3  and  O_4
REMARK    3  A    between atoms: O_4  and  C_5
REMARK    4  A    between atoms: C_6  and  C_21
REMARK    5  A    between atoms: C_10  and  O_17
REMARK    6  A    between atoms: C_12  and  O_16
REMARK    7  A    between atoms: O_17  and  C_18
REMARK    8  A    between atoms: C_18  and  C_19
REMARK    9  A    between atoms: C_23  and  O_31
REMARK   10  A    between atoms: C_24  and  O_27
REMARK   11  A    between atoms: O_27  and  C_28
REMARK   12  A    between atoms: C_28  and  C_29
REMARK   13  A    between atoms: O_31  and  C_32
REMARK   14  A    between atoms: C_32  and  C_33
REMARK                            x       y       z     vdW  Elec       q    Type
REMARK                         _______ _______ _______ _____ _____    ______ ____
ROOT
ATOM      1  C   UNL     1       5.123  -1.697   1.285  0.00  0.00    +0.234 C 
ATOM      2  C   UNL     1       5.386  -1.544   2.767  0.00  0.00    +0.203 C 
ATOM      3  O   UNL     1       5.049  -0.568   3.433  0.00  0.00    -0.289 OA
ATOM      4  C   UNL     1       6.040  -2.672   3.414  0.00  0.00    +0.103 A 
ATOM      5  C   UNL     1       5.843  -3.941   2.870  0.00  0.00    +0.139 A 
ATOM      6  C   UNL     1       6.283  -5.053   3.601  0.00  0.00    +0.092 A 
ATOM      7  C   UNL     1       6.899  -4.884   4.853  0.00  0.00    +0.128 A 
ATOM      8  C   UNL     1       7.211  -3.602   5.306  0.00  0.00    +0.092 A 
ATOM      9  O   UNL     1       5.254  -4.166   1.649  0.00  0.00    -0.480 OA
ATOM     10  C   UNL     1       6.773  -2.499   4.592  0.00  0.00    +0.134 A 
ATOM     11  C   UNL     1       4.450  -3.086   1.097  0.00  0.00    +0.240 C 
ENDROOT
BRANCH  11  12
ATOM     12  C   UNL     1       4.108  -3.445  -0.367  0.00  0.00    -0.001 A 
ATOM     13  C   UNL     1       4.253  -2.522  -1.413  0.00  0.00    +0.011 A 
ATOM     14  C   UNL     1       3.830  -2.800  -2.714  0.00  0.00    +0.050 A 
ATOM     15  C   UNL     1       3.272  -4.032  -3.039  0.00  0.00    +0.162 A 
ATOM     16  C   UNL     1       3.183  -5.013  -2.033  0.00  0.00    +0.163 A 
ATOM     17  C   UNL     1       3.559  -4.701  -0.704  0.00  0.00    +0.056 A 
BRANCH  15  18
ATOM     18  O   UNL     1       2.863  -4.360  -4.313  0.00  0.00    -0.484 OA
BRANCH  18  19
ATOM     19  C   UNL     1       2.408  -3.268  -5.118  0.00  0.00    +0.256 C 
BRANCH  19  20
ATOM     20  C   UNL     1       2.082  -3.766  -6.495  0.00  0.00    +0.006 C 
ATOM     21  C   UNL     1       2.617  -3.263  -7.619  0.00  0.00    +0.007 C 
ENDBRANCH  19  20
ENDBRANCH  18  19
ENDBRANCH  15  18
BRANCH  16  22
ATOM     22  O   UNL     1       2.678  -6.233  -2.413  0.00  0.00    -0.484 OA
BRANCH  22  23
ATOM     23  C   UNL     1       3.133  -7.361  -1.667  0.00  0.00    +0.256 C 
BRANCH  23  24
ATOM     24  C   UNL     1       3.115  -8.556  -2.575  0.00  0.00    +0.006 C 
ATOM     25  C   UNL     1       2.437  -9.689  -2.345  0.00  0.00    +0.007 C 
ENDBRANCH  23  24
ENDBRANCH  22  23
ENDBRANCH  16  22
ENDBRANCH  11  12
BRANCH  10  26
ATOM     26  O   UNL     1       7.095  -1.251   5.040  0.00  0.00    -0.506 OA
ATOM     27  H   UNL     1       7.401  -1.288   5.960  0.00  0.00    +0.292 HD
ENDBRANCH  10  26
BRANCH   1  28
ATOM     28  O   UNL     1       4.263  -0.633   0.842  0.00  0.00    -0.361 OA
BRANCH  28  29
ATOM     29  C   UNL     1       4.916   0.637   0.797  0.00  0.00    +0.188 C 
BRANCH  29  31
ATOM     30  C   UNL     1       4.221   2.437  -0.804  0.00  0.00    +0.006 C 
ATOM     31  C   UNL     1       3.950   1.621   0.223  0.00  0.00    -0.007 C 
ENDBRANCH  29  31
ENDBRANCH  28  29
ENDBRANCH   1  28
BRANCH   7  32
ATOM     32  O   UNL     1       7.160  -6.019   5.585  0.00  0.00    -0.488 OA
BRANCH  32  33
ATOM     33  C   UNL     1       7.249  -5.793   7.000  0.00  0.00    +0.256 C 
BRANCH  33  34
ATOM     34  C   UNL     1       7.024  -7.078   7.731  0.00  0.00    +0.006 C 
ATOM     35  C   UNL     1       6.019  -7.273   8.597  0.00  0.00    +0.007 C 
ENDBRANCH  33  34
ENDBRANCH  32  33
ENDBRANCH   7  32
TORSDOF 14
