REMARK  Name = 
REMARK  17 active torsions:
REMARK  status: ('A' for Active; 'I' for Inactive)
REMARK    1  A    between atoms: C_1  and  C_2
REMARK    2  A    between atoms: C_4  and  O_53
REMARK    3  A    between atoms: C_6  and  O_52
REMARK    4  A    between atoms: C_8  and  O_51
REMARK    5  A    between atoms: C_10  and  O_13
REMARK    6  A    between atoms: O_13  and  C_14
REMARK    7  A    between atoms: C_14  and  C_15
REMARK    8  A    between atoms: C_17  and  O_50
REMARK    9  A    between atoms: C_19  and  O_49
REMARK   10  A    between atoms: C_21  and  O_48
REMARK   11  A    between atoms: C_23  and  O_26
REMARK   12  A    between atoms: O_26  and  C_27
REMARK   13  A    between atoms: C_29  and  O_47
REMARK   14  A    between atoms: C_34  and  C_39
REMARK   15  A    between atoms: C_35  and  O_38
REMARK   16  A    between atoms: C_41  and  O_46
REMARK   17  A    between atoms: C_42  and  O_45
REMARK                            x       y       z     vdW  Elec       q    Type
REMARK                         _______ _______ _______ _____ _____    ______ ____
ROOT
ATOM      1  C   UNL     1       3.139   4.052  -3.993  0.00  0.00    +0.179 C 
ATOM      2  O   UNL     1       3.688   5.246  -3.393  0.00  0.00    -0.331 OA
ATOM      3  C   UNL     1       2.727   5.923  -2.566  0.00  0.00    +0.339 C 
ATOM      4  C   UNL     1       1.542   6.413  -3.430  0.00  0.00    +0.214 C 
ATOM      5  C   UNL     1       0.974   5.235  -4.242  0.00  0.00    +0.180 C 
ATOM      6  C   UNL     1       2.068   4.473  -5.000  0.00  0.00    +0.177 C 
ENDROOT
BRANCH   6   7
ATOM      7  O   UNL     1       2.617   5.309  -6.027  0.00  0.00    -0.386 OA
ATOM      8  H   UNL     1       3.323   5.853  -5.623  0.00  0.00    +0.210 HD
ENDBRANCH   6   7
BRANCH   5   9
ATOM      9  O   UNL     1      -0.059   5.709  -5.115  0.00  0.00    -0.386 OA
ATOM     10  H   UNL     1       0.211   5.500  -6.031  0.00  0.00    +0.210 HD
ENDBRANCH   5   9
BRANCH   4  11
ATOM     11  O   UNL     1       0.497   6.937  -2.592  0.00  0.00    -0.383 OA
ATOM     12  H   UNL     1      -0.336   6.814  -3.088  0.00  0.00    +0.210 HD
ENDBRANCH   4  11
BRANCH   3  13
ATOM     13  O   UNL     1       3.326   7.060  -1.909  0.00  0.00    -0.461 OA
BRANCH  13  14
ATOM     14  C   UNL     1       3.908   6.816  -0.690  0.00  0.00    +0.131 A 
ATOM     15  C   UNL     1       3.977   7.898   0.200  0.00  0.00    +0.093 A 
ATOM     16  C   UNL     1       4.557   7.748   1.473  0.00  0.00    +0.147 A 
ATOM     17  O   UNL     1       4.594   8.862   2.278  0.00  0.00    -0.451 OA
ATOM     18  C   UNL     1       5.098   8.748   3.568  0.00  0.00    +0.181 A 
ATOM     19  C   UNL     1       5.568   7.590   4.086  0.00  0.00    +0.208 A 
ATOM     20  C   UNL     1       5.643   6.383   3.209  0.00  0.00    +0.238 A 
ATOM     21  O   UNL     1       6.165   5.355   3.627  0.00  0.00    -0.283 OA
ATOM     22  C   UNL     1       5.065   6.506   1.859  0.00  0.00    +0.109 A 
ATOM     23  C   UNL     1       5.012   5.433   0.958  0.00  0.00    +0.135 A 
ATOM     24  C   UNL     1       4.452   5.590  -0.313  0.00  0.00    +0.092 A 
BRANCH  18  25
ATOM     25  C   UNL     1       5.080  10.042   4.334  0.00  0.00    +0.025 A 
ATOM     26  C   UNL     1       6.115  10.373   5.233  0.00  0.00    +0.015 A 
ATOM     27  C   UNL     1       6.073  11.547   5.995  0.00  0.00    +0.050 A 
ATOM     28  C   UNL     1       5.026  12.430   5.816  0.00  0.00    +0.158 A 
ATOM     29  C   UNL     1       4.029  12.157   4.887  0.00  0.00    +0.159 A 
ATOM     30  C   UNL     1       4.043  10.968   4.155  0.00  0.00    +0.060 A 
BRANCH  29  31
ATOM     31  O   UNL     1       3.050  13.100   4.726  0.00  0.00    -0.503 OA
ATOM     32  H   UNL     1       2.501  12.847   3.965  0.00  0.00    +0.292 HD
ENDBRANCH  29  31
BRANCH  28  33
ATOM     33  O   UNL     1       4.995  13.582   6.548  0.00  0.00    -0.503 OA
ATOM     34  H   UNL     1       4.195  14.052   6.240  0.00  0.00    +0.292 HD
ENDBRANCH  28  33
ENDBRANCH  18  25
BRANCH  23  35
ATOM     35  O   UNL     1       5.489   4.200   1.300  0.00  0.00    -0.506 OA
ATOM     36  H   UNL     1       5.590   3.646   0.509  0.00  0.00    +0.292 HD
ENDBRANCH  23  35
BRANCH  19  37
ATOM     37  O   UNL     1       5.999   7.418   5.393  0.00  0.00    -0.501 OA
ATOM     38  H   UNL     1       5.555   8.069   5.959  0.00  0.00    +0.292 HD
ENDBRANCH  19  37
ENDBRANCH  13  14
ENDBRANCH   3  13
BRANCH   1  39
ATOM     39  C   UNL     1       4.265   3.256  -4.657  0.00  0.00    +0.197 C 
BRANCH  39  40
ATOM     40  O   UNL     1       5.086   2.735  -3.607  0.00  0.00    -0.346 OA
BRANCH  40  44
ATOM     41  C   UNL     1       7.536   0.404  -6.361  0.00  0.00    +0.041 C 
ATOM     42  C   UNL     1       6.770  -0.103  -5.144  0.00  0.00    +0.149 C 
ATOM     43  O   UNL     1       5.753   0.815  -4.724  0.00  0.00    -0.343 OA
ATOM     44  C   UNL     1       6.219   2.010  -4.097  0.00  0.00    +0.282 C 
ATOM     45  C   UNL     1       7.124   1.726  -2.876  0.00  0.00    +0.201 C 
ATOM     46  C   UNL     1       8.212   0.694  -3.193  0.00  0.00    +0.179 C 
ATOM     47  C   UNL     1       7.638  -0.512  -3.944  0.00  0.00    +0.174 C 
BRANCH  47  48
ATOM     48  O   UNL     1       6.816  -1.262  -3.033  0.00  0.00    -0.387 OA
ATOM     49  H   UNL     1       5.915  -0.888  -3.060  0.00  0.00    +0.210 HD
ENDBRANCH  47  48
BRANCH  46  50
ATOM     50  O   UNL     1       9.310   1.296  -3.894  0.00  0.00    -0.386 OA
ATOM     51  H   UNL     1       8.987   1.982  -4.501  0.00  0.00    +0.210 HD
ENDBRANCH  46  50
BRANCH  45  52
ATOM     52  O   UNL     1       7.722   2.945  -2.401  0.00  0.00    -0.384 OA
ATOM     53  H   UNL     1       8.692   2.842  -2.446  0.00  0.00    +0.210 HD
ENDBRANCH  45  52
ENDBRANCH  40  44
ENDBRANCH  39  40
ENDBRANCH   1  39
TORSDOF 16
