REMARK  Name = 
REMARK  17 active torsions:
REMARK  status: ('A' for Active; 'I' for Inactive)
REMARK    1  A    between atoms: C_1  and  C_2
REMARK    2  A    between atoms: C_4  and  O_53
REMARK    3  A    between atoms: C_6  and  O_52
REMARK    4  A    between atoms: C_8  and  O_51
REMARK    5  A    between atoms: C_10  and  O_13
REMARK    6  A    between atoms: O_13  and  C_14
REMARK    7  A    between atoms: C_15  and  O_50
REMARK    8  A    between atoms: C_17  and  C_20
REMARK    9  A    between atoms: C_21  and  O_33
REMARK   10  A    between atoms: C_25  and  O_32
REMARK   11  A    between atoms: C_27  and  O_31
REMARK   12  A    between atoms: O_33  and  C_34
REMARK   13  A    between atoms: C_36  and  O_49
REMARK   14  A    between atoms: C_38  and  O_48
REMARK   15  A    between atoms: C_40  and  O_47
REMARK   16  A    between atoms: C_42  and  C_45
REMARK   17  A    between atoms: C_45  and  O_46
REMARK                            x       y       z     vdW  Elec       q    Type
REMARK                         _______ _______ _______ _____ _____    ______ ____
ROOT
ATOM      1  C   UNL     1       1.358   7.067  -2.829  0.00  0.00    +0.181 A 
ATOM      2  O   UNL     1       0.271   7.563  -3.542  0.00  0.00    -0.451 OA
ATOM      3  C   UNL     1       0.309   8.847  -4.001  0.00  0.00    +0.147 A 
ATOM      4  C   UNL     1       1.262   9.754  -3.551  0.00  0.00    +0.109 A 
ATOM      5  C   UNL     1       1.196  11.082  -3.979  0.00  0.00    +0.135 A 
ATOM      6  C   UNL     1       0.205  11.500  -4.873  0.00  0.00    +0.091 A 
ATOM      7  C   UNL     1      -0.720  10.571  -5.339  0.00  0.00    +0.124 A 
ATOM      8  C   UNL     1       2.294   9.277  -2.633  0.00  0.00    +0.238 A 
ATOM      9  O   UNL     1       2.978  10.116  -2.061  0.00  0.00    -0.283 OA
ATOM     10  C   UNL     1      -0.674   9.246  -4.912  0.00  0.00    +0.092 A 
ATOM     11  C   UNL     1       2.427   7.794  -2.438  0.00  0.00    +0.214 A 
ENDROOT
BRANCH   1  15
ATOM     12  C   UNL     1      -0.134   3.139  -2.819  0.00  0.00    +0.165 A 
ATOM     13  C   UNL     1       0.826   3.511  -3.762  0.00  0.00    +0.050 A 
ATOM     14  C   UNL     1       1.441   4.760  -3.692  0.00  0.00    +0.015 A 
ATOM     15  C   UNL     1       1.167   5.614  -2.623  0.00  0.00    +0.025 A 
ATOM     16  C   UNL     1       0.413   5.128  -1.540  0.00  0.00    +0.060 A 
ATOM     17  C   UNL     1      -0.230   3.891  -1.649  0.00  0.00    +0.159 A 
BRANCH  17  18
ATOM     18  O   UNL     1      -1.021   3.473  -0.616  0.00  0.00    -0.503 OA
ATOM     19  H   UNL     1      -1.358   2.593  -0.875  0.00  0.00    +0.292 HD
ENDBRANCH  17  18
BRANCH  12  20
ATOM     20  O   UNL     1      -1.077   2.145  -3.022  0.00  0.00    -0.457 OA
BRANCH  20  24
ATOM     21  C   UNL     1      -0.290   3.024  -7.074  0.00  0.00    +0.041 C 
ATOM     22  C   UNL     1      -1.708   3.106  -6.517  0.00  0.00    +0.150 C 
ATOM     23  O   UNL     1      -1.709   3.166  -5.088  0.00  0.00    -0.334 OA
ATOM     24  C   UNL     1      -1.368   1.935  -4.425  0.00  0.00    +0.339 C 
ATOM     25  C   UNL     1      -2.510   0.933  -4.686  0.00  0.00    +0.214 C 
ATOM     26  C   UNL     1      -2.605   0.702  -6.216  0.00  0.00    +0.180 C 
ATOM     27  C   UNL     1      -2.676   2.018  -7.016  0.00  0.00    +0.174 C 
BRANCH  27  28
ATOM     28  O   UNL     1      -4.015   2.529  -6.903  0.00  0.00    -0.387 OA
ATOM     29  H   UNL     1      -4.078   3.047  -6.078  0.00  0.00    +0.210 HD
ENDBRANCH  27  28
BRANCH  26  30
ATOM     30  O   UNL     1      -1.515  -0.141  -6.638  0.00  0.00    -0.386 OA
ATOM     31  H   UNL     1      -0.669   0.331  -6.587  0.00  0.00    +0.210 HD
ENDBRANCH  26  30
BRANCH  25  32
ATOM     32  O   UNL     1      -2.280  -0.322  -4.034  0.00  0.00    -0.383 OA
ATOM     33  H   UNL     1      -1.843  -0.905  -4.687  0.00  0.00    +0.210 HD
ENDBRANCH  25  32
ENDBRANCH  20  24
ENDBRANCH  12  20
ENDBRANCH   1  15
BRANCH   5  34
ATOM     34  O   UNL     1       2.077  12.044  -3.562  0.00  0.00    -0.506 OA
ATOM     35  H   UNL     1       2.659  11.641  -2.877  0.00  0.00    +0.292 HD
ENDBRANCH   5  34
BRANCH   7  36
ATOM     36  O   UNL     1      -1.702  10.931  -6.213  0.00  0.00    -0.507 OA
ATOM     37  H   UNL     1      -1.655  11.890  -6.367  0.00  0.00    +0.292 HD
ENDBRANCH   7  36
BRANCH  11  38
ATOM     38  O   UNL     1       3.560   7.182  -1.917  0.00  0.00    -0.453 OA
BRANCH  38  39
ATOM     39  C   UNL     1       4.616   7.958  -1.323  0.00  0.00    +0.340 C 
ATOM     40  O   UNL     1       5.338   8.817  -2.218  0.00  0.00    -0.331 OA
ATOM     41  C   UNL     1       6.323   8.269  -3.103  0.00  0.00    +0.179 C 
ATOM     42  C   UNL     1       7.214   7.189  -2.479  0.00  0.00    +0.177 C 
ATOM     43  C   UNL     1       6.414   6.222  -1.608  0.00  0.00    +0.180 C 
ATOM     44  C   UNL     1       5.575   6.998  -0.579  0.00  0.00    +0.214 C 
BRANCH  42  45
ATOM     45  O   UNL     1       8.215   7.816  -1.645  0.00  0.00    -0.386 OA
ATOM     46  H   UNL     1       8.621   7.078  -1.139  0.00  0.00    +0.210 HD
ENDBRANCH  42  45
BRANCH  43  47
ATOM     47  O   UNL     1       7.347   5.346  -0.951  0.00  0.00    -0.386 OA
ATOM     48  H   UNL     1       7.451   4.563  -1.521  0.00  0.00    +0.210 HD
ENDBRANCH  43  47
BRANCH  44  49
ATOM     49  O   UNL     1       6.410   7.728   0.340  0.00  0.00    -0.383 OA
ATOM     50  H   UNL     1       7.084   8.197  -0.195  0.00  0.00    +0.210 HD
ENDBRANCH  44  49
BRANCH  41  51
ATOM     51  C   UNL     1       5.686   7.832  -4.425  0.00  0.00    +0.190 C 
BRANCH  51  52
ATOM     52  O   UNL     1       4.996   6.595  -4.304  0.00  0.00    -0.392 OA
ATOM     53  H   UNL     1       4.231   6.643  -4.903  0.00  0.00    +0.210 HD
ENDBRANCH  51  52
ENDBRANCH  41  51
ENDBRANCH  38  39
ENDBRANCH  11  38
TORSDOF 16
