REMARK  Name = 
REMARK  16 active torsions:
REMARK  status: ('A' for Active; 'I' for Inactive)
REMARK    1  A    between atoms: C_3  and  O_44
REMARK    2  A    between atoms: C_4  and  O_43
REMARK    3  A    between atoms: C_6  and  C_7
REMARK    4  A    between atoms: C_8  and  O_20
REMARK    5  A    between atoms: C_12  and  O_19
REMARK    6  A    between atoms: C_14  and  O_18
REMARK    7  A    between atoms: O_20  and  C_21
REMARK    8  A    between atoms: C_23  and  O_42
REMARK    9  A    between atoms: C_25  and  O_41
REMARK   10  A    between atoms: C_27  and  O_40
REMARK   11  A    between atoms: C_29  and  C_32
REMARK   12  A    between atoms: C_32  and  O_33
REMARK   13  A    between atoms: O_33  and  C_34
REMARK   14  A    between atoms: C_34  and  C_36
REMARK   15  A    between atoms: C_36  and  C_37
REMARK   16  A    between atoms: C_37  and  O_39
REMARK                            x       y       z     vdW  Elec       q    Type
REMARK                         _______ _______ _______ _____ _____    ______ ____
ROOT
ATOM      1  C   UNL     1      -3.023  -3.394   1.465  0.00  0.00    +0.181 A 
ATOM      2  O   UNL     1      -2.201  -4.115   2.354  0.00  0.00    -0.451 OA
ATOM      3  C   UNL     1      -0.855  -3.880   2.410  0.00  0.00    +0.147 A 
ATOM      4  C   UNL     1      -0.215  -3.031   1.534  0.00  0.00    +0.109 A 
ATOM      5  C   UNL     1       1.170  -2.840   1.577  0.00  0.00    +0.135 A 
ATOM      6  C   UNL     1       1.925  -3.498   2.532  0.00  0.00    +0.091 A 
ATOM      7  C   UNL     1       1.280  -4.339   3.431  0.00  0.00    +0.124 A 
ATOM      8  C   UNL     1      -1.024  -2.322   0.568  0.00  0.00    +0.238 A 
ATOM      9  O   UNL     1      -0.408  -1.645  -0.255  0.00  0.00    -0.283 OA
ATOM     10  C   UNL     1      -0.102  -4.540   3.376  0.00  0.00    +0.092 A 
ATOM     11  C   UNL     1      -2.518  -2.461   0.615  0.00  0.00    +0.214 A 
ENDROOT
BRANCH   1  13
ATOM     12  C   UNL     1      -4.827  -4.727   2.641  0.00  0.00    +0.015 A 
ATOM     13  C   UNL     1      -4.469  -3.852   1.580  0.00  0.00    +0.025 A 
ATOM     14  C   UNL     1      -5.477  -3.562   0.647  0.00  0.00    +0.060 A 
ATOM     15  C   UNL     1      -6.736  -4.164   0.740  0.00  0.00    +0.159 A 
ATOM     16  C   UNL     1      -7.033  -5.065   1.755  0.00  0.00    +0.158 A 
ATOM     17  C   UNL     1      -6.090  -5.335   2.727  0.00  0.00    +0.050 A 
BRANCH  16  18
ATOM     18  O   UNL     1      -8.257  -5.670   1.740  0.00  0.00    -0.503 OA
ATOM     19  H   UNL     1      -8.249  -6.398   2.386  0.00  0.00    +0.292 HD
ENDBRANCH  16  18
BRANCH  15  20
ATOM     20  O   UNL     1      -7.684  -3.881  -0.208  0.00  0.00    -0.503 OA
ATOM     21  H   UNL     1      -8.467  -4.418   0.056  0.00  0.00    +0.292 HD
ENDBRANCH  15  20
ENDBRANCH   1  13
BRANCH   7  22
ATOM     22  O   UNL     1       1.997  -5.000   4.385  0.00  0.00    -0.507 OA
ATOM     23  H   UNL     1       2.932  -4.782   4.274  0.00  0.00    +0.292 HD
ENDBRANCH   7  22
BRANCH   5  24
ATOM     24  O   UNL     1       1.858  -2.043   0.702  0.00  0.00    -0.506 OA
ATOM     25  H   UNL     1       1.216  -1.692   0.045  0.00  0.00    +0.292 HD
ENDBRANCH   5  24
BRANCH  11  26
ATOM     26  O   UNL     1      -3.313  -1.682  -0.220  0.00  0.00    -0.453 OA
BRANCH  26  27
ATOM     27  C   UNL     1      -2.663  -0.710  -1.076  0.00  0.00    +0.340 C 
ATOM     28  O   UNL     1      -3.638   0.278  -1.387  0.00  0.00    -0.330 OA
ATOM     29  C   UNL     1      -3.909   0.693  -2.732  0.00  0.00    +0.191 C 
ATOM     30  C   UNL     1      -3.588  -0.312  -3.877  0.00  0.00    +0.178 C 
ATOM     31  C   UNL     1      -3.161  -1.661  -3.330  0.00  0.00    +0.180 C 
ATOM     32  C   UNL     1      -2.068  -1.424  -2.309  0.00  0.00    +0.214 C 
BRANCH  32  33
ATOM     33  O   UNL     1      -1.016  -0.634  -2.889  0.00  0.00    -0.383 OA
ATOM     34  H   UNL     1      -0.383  -0.447  -2.168  0.00  0.00    +0.210 HD
ENDBRANCH  32  33
BRANCH  31  35
ATOM     35  O   UNL     1      -4.304  -2.353  -2.800  0.00  0.00    -0.386 OA
ATOM     36  H   UNL     1      -4.654  -1.850  -2.037  0.00  0.00    +0.210 HD
ENDBRANCH  31  35
BRANCH  30  37
ATOM     37  O   UNL     1      -4.632  -0.537  -4.825  0.00  0.00    -0.386 OA
ATOM     38  H   UNL     1      -5.176  -1.268  -4.460  0.00  0.00    +0.210 HD
ENDBRANCH  30  37
BRANCH  29  39
ATOM     39  C   UNL     1      -5.375   1.127  -2.634  0.00  0.00    +0.266 C 
BRANCH  39  40
ATOM     40  O   UNL     1      -5.862   1.670  -3.853  0.00  0.00    -0.462 OA
BRANCH  40  41
ATOM     41  C   UNL     1      -6.859   0.957  -4.445  0.00  0.00    +0.318 C 
ATOM     42  O   UNL     1      -7.382  -0.056  -3.994  0.00  0.00    -0.250 OA
BRANCH  41  43
ATOM     43  C   UNL     1      -7.118   1.468  -5.821  0.00  0.00    +0.240 C 
BRANCH  43  44
ATOM     44  C   UNL     1      -7.513   2.910  -5.860  0.00  0.00    +0.316 C 
ATOM     45  O   UNL     1      -7.727   3.622  -4.895  0.00  0.00    -0.250 OA
BRANCH  44  46
ATOM     46  O   UNL     1      -7.653   3.366  -7.130  0.00  0.00    -0.480 OA
ATOM     47  H   UNL     1      -7.482   2.694  -7.817  0.00  0.00    +0.295 HD
ENDBRANCH  44  46
ENDBRANCH  43  44
ENDBRANCH  41  43
ENDBRANCH  40  41
ENDBRANCH  39  40
ENDBRANCH  29  39
ENDBRANCH  26  27
ENDBRANCH  11  26
TORSDOF 16
