REMARK  Name = 
REMARK  11 active torsions:
REMARK  status: ('A' for Active; 'I' for Inactive)
REMARK    1  A    between atoms: C_1  and  C_2
REMARK    2  A    between atoms: C_4  and  O_37
REMARK    3  A    between atoms: C_6  and  O_36
REMARK    4  A    between atoms: C_8  and  O_35
REMARK    5  A    between atoms: C_10  and  O_13
REMARK    6  A    between atoms: O_13  and  C_14
REMARK    7  A    between atoms: C_16  and  O_34
REMARK    8  A    between atoms: C_21  and  C_26
REMARK    9  A    between atoms: C_22  and  O_25
REMARK   10  A    between atoms: C_28  and  O_33
REMARK   11  A    between atoms: C_29  and  O_32
REMARK                            x       y       z     vdW  Elec       q    Type
REMARK                         _______ _______ _______ _____ _____    ______ ____
ROOT
ATOM      1  C   UNL     1       0.520   1.946  -2.701  0.00  0.00    +0.131 A 
ATOM      2  C   UNL     1      -0.878   2.027  -2.803  0.00  0.00    +0.093 A 
ATOM      3  C   UNL     1      -1.532   3.273  -2.861  0.00  0.00    +0.147 A 
ATOM      4  O   UNL     1      -2.908   3.257  -2.972  0.00  0.00    -0.451 OA
ATOM      5  C   UNL     1      -3.586   4.463  -3.137  0.00  0.00    +0.181 A 
ATOM      6  C   UNL     1      -2.980   5.665  -3.113  0.00  0.00    +0.208 A 
ATOM      7  C   UNL     1      -1.514   5.740  -2.895  0.00  0.00    +0.238 A 
ATOM      8  O   UNL     1      -0.992   6.841  -2.771  0.00  0.00    -0.283 OA
ATOM      9  C   UNL     1      -0.791   4.459  -2.809  0.00  0.00    +0.109 A 
ATOM     10  C   UNL     1       0.602   4.374  -2.690  0.00  0.00    +0.135 A 
ATOM     11  C   UNL     1       1.250   3.132  -2.609  0.00  0.00    +0.092 A 
ENDROOT
BRANCH   5  12
ATOM     12  C   UNL     1      -5.072   4.352  -3.227  0.00  0.00    +0.025 A 
ATOM     13  C   UNL     1      -5.771   3.401  -2.461  0.00  0.00    +0.015 A 
ATOM     14  C   UNL     1      -7.169   3.362  -2.449  0.00  0.00    +0.050 A 
ATOM     15  C   UNL     1      -7.891   4.283  -3.196  0.00  0.00    +0.158 A 
ATOM     16  C   UNL     1      -7.222   5.217  -3.987  0.00  0.00    +0.159 A 
ATOM     17  C   UNL     1      -5.826   5.239  -4.019  0.00  0.00    +0.060 A 
BRANCH  15  18
ATOM     18  O   UNL     1      -9.248   4.273  -3.161  0.00  0.00    -0.503 OA
ATOM     19  H   UNL     1      -9.516   5.015  -3.743  0.00  0.00    +0.292 HD
ENDBRANCH  15  18
BRANCH  16  20
ATOM     20  O   UNL     1      -7.978   6.118  -4.683  0.00  0.00    -0.503 OA
ATOM     21  H   UNL     1      -7.368   6.752  -5.100  0.00  0.00    +0.292 HD
ENDBRANCH  16  20
ENDBRANCH   5  12
BRANCH   6  22
ATOM     22  O   UNL     1      -3.687   6.857  -3.181  0.00  0.00    -0.501 OA
ATOM     23  H   UNL     1      -3.261   7.457  -2.542  0.00  0.00    +0.292 HD
ENDBRANCH   6  22
BRANCH  10  24
ATOM     24  O   UNL     1       1.376   5.503  -2.662  0.00  0.00    -0.506 OA
ATOM     25  H   UNL     1       2.319   5.278  -2.653  0.00  0.00    +0.292 HD
ENDBRANCH  10  24
BRANCH   1  26
ATOM     26  O   UNL     1       1.062   0.681  -2.722  0.00  0.00    -0.461 OA
BRANCH  26  30
ATOM     27  C   UNL     1       1.337  -0.475   0.070  0.00  0.00    +0.041 C 
ATOM     28  C   UNL     1       2.754  -0.473  -0.495  0.00  0.00    +0.150 C 
ATOM     29  O   UNL     1       3.017   0.655  -1.350  0.00  0.00    -0.334 OA
ATOM     30  C   UNL     1       2.501   0.573  -2.686  0.00  0.00    +0.339 C 
ATOM     31  C   UNL     1       2.985  -0.708  -3.398  0.00  0.00    +0.214 C 
ATOM     32  C   UNL     1       2.646  -1.957  -2.584  0.00  0.00    +0.180 C 
ATOM     33  C   UNL     1       3.174  -1.804  -1.150  0.00  0.00    +0.174 C 
BRANCH  31  34
ATOM     34  O   UNL     1       2.459  -0.798  -4.726  0.00  0.00    -0.383 OA
ATOM     35  H   UNL     1       1.575  -1.204  -4.657  0.00  0.00    +0.210 HD
ENDBRANCH  31  34
BRANCH  32  36
ATOM     36  O   UNL     1       1.240  -2.226  -2.626  0.00  0.00    -0.386 OA
ATOM     37  H   UNL     1       0.749  -1.387  -2.551  0.00  0.00    +0.210 HD
ENDBRANCH  32  36
BRANCH  33  38
ATOM     38  O   UNL     1       4.613  -1.860  -1.188  0.00  0.00    -0.387 OA
ATOM     39  H   UNL     1       4.958  -0.950  -1.257  0.00  0.00    +0.210 HD
ENDBRANCH  33  38
ENDBRANCH  26  30
ENDBRANCH   1  26
TORSDOF 10
