REMARK  Name = 
REMARK  11 active torsions:
REMARK  status: ('A' for Active; 'I' for Inactive)
REMARK    1  A    between atoms: C_1  and  C_2
REMARK    2  A    between atoms: C_4  and  O_37
REMARK    3  A    between atoms: C_6  and  O_36
REMARK    4  A    between atoms: C_8  and  O_35
REMARK    5  A    between atoms: C_10  and  O_13
REMARK    6  A    between atoms: O_13  and  C_14
REMARK    7  A    between atoms: C_16  and  O_34
REMARK    8  A    between atoms: C_21  and  C_26
REMARK    9  A    between atoms: C_22  and  O_25
REMARK   10  A    between atoms: C_28  and  O_33
REMARK   11  A    between atoms: C_29  and  O_32
REMARK                            x       y       z     vdW  Elec       q    Type
REMARK                         _______ _______ _______ _____ _____    ______ ____
ROOT
ATOM      1  C   UNL     1       0.507   2.043  -2.507  0.00  0.00    +0.131 A 
ATOM      2  C   UNL     1      -0.893   2.109  -2.586  0.00  0.00    +0.093 A 
ATOM      3  C   UNL     1      -1.549   3.348  -2.699  0.00  0.00    +0.147 A 
ATOM      4  O   UNL     1      -2.929   3.324  -2.807  0.00  0.00    -0.451 OA
ATOM      5  C   UNL     1      -3.613   4.534  -2.937  0.00  0.00    +0.181 A 
ATOM      6  C   UNL     1      -3.008   5.734  -2.875  0.00  0.00    +0.208 A 
ATOM      7  C   UNL     1      -1.540   5.803  -2.707  0.00  0.00    +0.238 A 
ATOM      8  O   UNL     1      -1.037   6.915  -2.576  0.00  0.00    -0.283 OA
ATOM      9  C   UNL     1      -0.804   4.533  -2.693  0.00  0.00    +0.109 A 
ATOM     10  C   UNL     1       0.590   4.462  -2.638  0.00  0.00    +0.135 A 
ATOM     11  C   UNL     1       1.241   3.230  -2.558  0.00  0.00    +0.092 A 
ENDROOT
BRANCH   5  12
ATOM     12  C   UNL     1      -5.095   4.424  -3.041  0.00  0.00    +0.025 A 
ATOM     13  C   UNL     1      -5.799   3.471  -2.283  0.00  0.00    +0.015 A 
ATOM     14  C   UNL     1      -7.201   3.446  -2.282  0.00  0.00    +0.050 A 
ATOM     15  C   UNL     1      -7.905   4.375  -3.032  0.00  0.00    +0.158 A 
ATOM     16  C   UNL     1      -7.230   5.304  -3.812  0.00  0.00    +0.159 A 
ATOM     17  C   UNL     1      -5.839   5.315  -3.844  0.00  0.00    +0.060 A 
BRANCH  15  18
ATOM     18  O   UNL     1      -9.269   4.391  -2.984  0.00  0.00    -0.503 OA
ATOM     19  H   UNL     1      -9.525   5.142  -3.559  0.00  0.00    +0.292 HD
ENDBRANCH  15  18
BRANCH  16  20
ATOM     20  O   UNL     1      -7.977   6.214  -4.511  0.00  0.00    -0.503 OA
ATOM     21  H   UNL     1      -7.364   6.849  -4.925  0.00  0.00    +0.292 HD
ENDBRANCH  16  20
ENDBRANCH   5  12
BRANCH   6  22
ATOM     22  O   UNL     1      -3.680   6.946  -2.878  0.00  0.00    -0.501 OA
ATOM     23  H   UNL     1      -3.001   7.605  -2.617  0.00  0.00    +0.292 HD
ENDBRANCH   6  22
BRANCH  10  24
ATOM     24  O   UNL     1       1.351   5.599  -2.664  0.00  0.00    -0.506 OA
ATOM     25  H   UNL     1       2.292   5.383  -2.541  0.00  0.00    +0.292 HD
ENDBRANCH  10  24
BRANCH   1  26
ATOM     26  O   UNL     1       1.049   0.789  -2.355  0.00  0.00    -0.461 OA
BRANCH  26  30
ATOM     27  C   UNL     1       3.325   1.778   1.128  0.00  0.00    +0.041 C 
ATOM     28  C   UNL     1       2.687   0.873   0.079  0.00  0.00    +0.150 C 
ATOM     29  O   UNL     1       3.070   1.387  -1.198  0.00  0.00    -0.334 OA
ATOM     30  C   UNL     1       2.487   0.678  -2.308  0.00  0.00    +0.339 C 
ATOM     31  C   UNL     1       2.908  -0.808  -2.270  0.00  0.00    +0.214 C 
ATOM     32  C   UNL     1       2.554  -1.421  -0.915  0.00  0.00    +0.180 C 
ATOM     33  C   UNL     1       3.130  -0.588   0.237  0.00  0.00    +0.174 C 
BRANCH  31  34
ATOM     34  O   UNL     1       4.328  -0.941  -2.480  0.00  0.00    -0.383 OA
ATOM     35  H   UNL     1       4.539  -1.858  -2.206  0.00  0.00    +0.210 HD
ENDBRANCH  31  34
BRANCH  32  36
ATOM     36  O   UNL     1       3.095  -2.753  -0.844  0.00  0.00    -0.386 OA
ATOM     37  H   UNL     1       2.919  -3.044   0.074  0.00  0.00    +0.210 HD
ENDBRANCH  32  36
BRANCH  33  38
ATOM     38  O   UNL     1       2.671  -1.166   1.465  0.00  0.00    -0.387 OA
ATOM     39  H   UNL     1       3.173  -0.751   2.189  0.00  0.00    +0.210 HD
ENDBRANCH  33  38
ENDBRANCH  26  30
ENDBRANCH   1  26
TORSDOF 10
