REMARK  Name = 
REMARK  12 active torsions:
REMARK  status: ('A' for Active; 'I' for Inactive)
REMARK    1  A    between atoms: C_1  and  C_2
REMARK    2  A    between atoms: C_2  and  C_4
REMARK    3  A    between atoms: C_2  and  O_37
REMARK    4  A    between atoms: C_6  and  O_36
REMARK    5  A    between atoms: C_8  and  O_35
REMARK    6  A    between atoms: C_10  and  O_13
REMARK    7  A    between atoms: O_13  and  C_14
REMARK    8  A    between atoms: C_15  and  C_27
REMARK    9  A    between atoms: C_19  and  O_26
REMARK   10  A    between atoms: C_21  and  O_25
REMARK   11  A    between atoms: C_29  and  O_34
REMARK   12  A    between atoms: C_30  and  O_33
REMARK                            x       y       z     vdW  Elec       q    Type
REMARK                         _______ _______ _______ _____ _____    ______ ____
ROOT
ATOM      1  C   UNL     1       7.019   0.950  -1.078  0.00  0.00    +0.214 A 
ATOM      2  C   UNL     1       8.298   1.507  -0.492  0.00  0.00    +0.238 A 
ATOM      3  O   UNL     1       8.592   2.692  -0.586  0.00  0.00    -0.283 OA
ATOM      4  C   UNL     1       9.210   0.564   0.163  0.00  0.00    +0.109 A 
ATOM      5  C   UNL     1       9.044  -0.778  -0.139  0.00  0.00    +0.147 A 
ATOM      6  C   UNL     1       9.891  -1.744   0.409  0.00  0.00    +0.092 A 
ATOM      7  C   UNL     1      10.922  -1.342   1.249  0.00  0.00    +0.124 A 
ATOM      8  C   UNL     1      11.112   0.000   1.555  0.00  0.00    +0.091 A 
ATOM      9  O   UNL     1       8.095  -1.213  -1.018  0.00  0.00    -0.451 OA
ATOM     10  C   UNL     1      10.247   0.954   1.019  0.00  0.00    +0.135 A 
ATOM     11  C   UNL     1       7.048  -0.367  -1.398  0.00  0.00    +0.181 A 
ENDROOT
BRANCH  11  12
ATOM     12  C   UNL     1       6.071  -1.140  -2.240  0.00  0.00    +0.025 A 
ATOM     13  C   UNL     1       5.995  -2.541  -2.048  0.00  0.00    +0.015 A 
ATOM     14  C   UNL     1       5.376  -3.388  -2.979  0.00  0.00    +0.050 A 
ATOM     15  C   UNL     1       4.783  -2.834  -4.094  0.00  0.00    +0.158 A 
ATOM     16  C   UNL     1       4.758  -1.450  -4.260  0.00  0.00    +0.159 A 
ATOM     17  C   UNL     1       5.410  -0.602  -3.354  0.00  0.00    +0.060 A 
BRANCH  15  18
ATOM     18  O   UNL     1       4.233  -3.659  -5.033  0.00  0.00    -0.503 OA
ATOM     19  H   UNL     1       3.933  -3.059  -5.744  0.00  0.00    +0.292 HD
ENDBRANCH  15  18
BRANCH  16  20
ATOM     20  O   UNL     1       4.100  -0.975  -5.364  0.00  0.00    -0.503 OA
ATOM     21  H   UNL     1       3.863  -0.048  -5.183  0.00  0.00    +0.292 HD
ENDBRANCH  16  20
ENDBRANCH  11  12
BRANCH   7  22
ATOM     22  O   UNL     1      11.787  -2.239   1.802  0.00  0.00    -0.507 OA
ATOM     23  H   UNL     1      11.552  -3.135   1.507  0.00  0.00    +0.292 HD
ENDBRANCH   7  22
BRANCH  10  24
ATOM     24  O   UNL     1      10.419   2.264   1.367  0.00  0.00    -0.506 OA
ATOM     25  H   UNL     1      11.288   2.384   1.781  0.00  0.00    +0.292 HD
ENDBRANCH  10  24
BRANCH   1  26
ATOM     26  O   UNL     1       5.930   1.789  -1.327  0.00  0.00    -0.453 OA
BRANCH  26  29
ATOM     27  C   UNL     1       5.358   5.204  -0.904  0.00  0.00    +0.182 C 
ATOM     28  O   UNL     1       6.292   4.146  -1.192  0.00  0.00    -0.331 OA
ATOM     29  C   UNL     1       5.868   2.961  -0.481  0.00  0.00    +0.340 C 
ATOM     30  C   UNL     1       4.455   3.261   0.063  0.00  0.00    +0.214 C 
ATOM     31  C   UNL     1       4.021   4.482  -0.734  0.00  0.00    +0.180 C 
BRANCH  27  33
ATOM     32  C   UNL     1       4.522   7.464  -1.736  0.00  0.00    +0.040 C 
ATOM     33  C   UNL     1       5.433   6.275  -2.006  0.00  0.00    +0.143 C 
BRANCH  33  34
ATOM     34  O   UNL     1       5.038   5.716  -3.267  0.00  0.00    -0.389 OA
ATOM     35  H   UNL     1       5.492   6.238  -3.954  0.00  0.00    +0.210 HD
ENDBRANCH  33  34
ENDBRANCH  27  33
BRANCH  30  36
ATOM     36  O   UNL     1       3.536   2.181  -0.010  0.00  0.00    -0.383 OA
ATOM     37  H   UNL     1       3.326   2.107  -0.964  0.00  0.00    +0.210 HD
ENDBRANCH  30  36
BRANCH  31  38
ATOM     38  O   UNL     1       3.433   4.042  -1.963  0.00  0.00    -0.386 OA
ATOM     39  H   UNL     1       3.887   4.534  -2.686  0.00  0.00    +0.210 HD
ENDBRANCH  31  38
ENDBRANCH  26  29
ENDBRANCH   1  26
TORSDOF 11
