REMARK  Name = 
REMARK  12 active torsions:
REMARK  status: ('A' for Active; 'I' for Inactive)
REMARK    1  A    between atoms: C_1  and  C_2
REMARK    2  A    between atoms: C_2  and  C_4
REMARK    3  A    between atoms: C_2  and  O_37
REMARK    4  A    between atoms: C_6  and  O_36
REMARK    5  A    between atoms: C_8  and  O_35
REMARK    6  A    between atoms: C_10  and  O_13
REMARK    7  A    between atoms: O_13  and  C_14
REMARK    8  A    between atoms: C_15  and  C_27
REMARK    9  A    between atoms: C_19  and  O_26
REMARK   10  A    between atoms: C_21  and  O_25
REMARK   11  A    between atoms: C_29  and  O_34
REMARK   12  A    between atoms: C_30  and  O_33
REMARK                            x       y       z     vdW  Elec       q    Type
REMARK                         _______ _______ _______ _____ _____    ______ ____
ROOT
ATOM      1  C   UNL     1       6.315  -0.664  -3.838  0.00  0.00    +0.214 A 
ATOM      2  C   UNL     1       7.779  -0.445  -4.068  0.00  0.00    +0.238 A 
ATOM      3  O   UNL     1       8.232   0.685  -4.215  0.00  0.00    -0.283 OA
ATOM      4  C   UNL     1       8.628  -1.644  -4.189  0.00  0.00    +0.109 A 
ATOM      5  C   UNL     1       8.002  -2.887  -4.164  0.00  0.00    +0.147 A 
ATOM      6  C   UNL     1       8.756  -4.063  -4.292  0.00  0.00    +0.092 A 
ATOM      7  C   UNL     1      10.133  -3.974  -4.474  0.00  0.00    +0.124 A 
ATOM      8  C   UNL     1      10.769  -2.740  -4.521  0.00  0.00    +0.091 A 
ATOM      9  O   UNL     1       6.649  -3.049  -4.027  0.00  0.00    -0.451 OA
ATOM     10  C   UNL     1      10.019  -1.576  -4.372  0.00  0.00    +0.135 A 
ATOM     11  C   UNL     1       5.836  -1.927  -3.895  0.00  0.00    +0.181 A 
ENDROOT
BRANCH  11  12
ATOM     12  C   UNL     1       4.379  -2.275  -3.842  0.00  0.00    +0.025 A 
ATOM     13  C   UNL     1       3.961  -3.540  -3.376  0.00  0.00    +0.015 A 
ATOM     14  C   UNL     1       2.611  -3.920  -3.402  0.00  0.00    +0.050 A 
ATOM     15  C   UNL     1       1.662  -3.032  -3.878  0.00  0.00    +0.158 A 
ATOM     16  C   UNL     1       2.041  -1.774  -4.322  0.00  0.00    +0.159 A 
ATOM     17  C   UNL     1       3.383  -1.404  -4.331  0.00  0.00    +0.060 A 
BRANCH  15  18
ATOM     18  O   UNL     1       0.349  -3.402  -3.917  0.00  0.00    -0.503 OA
ATOM     19  H   UNL     1      -0.110  -2.635  -4.315  0.00  0.00    +0.292 HD
ENDBRANCH  15  18
BRANCH  16  20
ATOM     20  O   UNL     1       1.057  -0.925  -4.751  0.00  0.00    -0.503 OA
ATOM     21  H   UNL     1       1.451  -0.042  -4.866  0.00  0.00    +0.292 HD
ENDBRANCH  16  20
ENDBRANCH  11  12
BRANCH   7  22
ATOM     22  O   UNL     1      10.914  -5.081  -4.621  0.00  0.00    -0.507 OA
ATOM     23  H   UNL     1      10.358  -5.875  -4.579  0.00  0.00    +0.292 HD
ENDBRANCH   7  22
BRANCH  10  24
ATOM     24  O   UNL     1      10.669  -0.375  -4.405  0.00  0.00    -0.506 OA
ATOM     25  H   UNL     1      11.604  -0.503  -4.628  0.00  0.00    +0.292 HD
ENDBRANCH  10  24
BRANCH   1  26
ATOM     26  O   UNL     1       5.474   0.424  -3.651  0.00  0.00    -0.453 OA
BRANCH  26  29
ATOM     27  C   UNL     1       6.019   1.373  -0.486  0.00  0.00    +0.182 C 
ATOM     28  O   UNL     1       6.705   0.960  -1.674  0.00  0.00    -0.331 OA
ATOM     29  C   UNL     1       5.977   1.469  -2.810  0.00  0.00    +0.340 C 
ATOM     30  C   UNL     1       4.768   2.247  -2.254  0.00  0.00    +0.214 C 
ATOM     31  C   UNL     1       5.251   2.636  -0.869  0.00  0.00    +0.180 C 
BRANCH  27  33
ATOM     32  C   UNL     1       7.748   0.224   0.956  0.00  0.00    +0.040 C 
ATOM     33  C   UNL     1       7.007   1.528   0.671  0.00  0.00    +0.143 C 
BRANCH  33  34
ATOM     34  O   UNL     1       6.293   1.946   1.834  0.00  0.00    -0.389 OA
ATOM     35  H   UNL     1       6.918   1.942   2.581  0.00  0.00    +0.210 HD
ENDBRANCH  33  34
ENDBRANCH  27  33
BRANCH  30  36
ATOM     36  O   UNL     1       4.414   3.393  -3.029  0.00  0.00    -0.383 OA
ATOM     37  H   UNL     1       5.071   4.077  -2.779  0.00  0.00    +0.210 HD
ENDBRANCH  30  36
BRANCH  31  38
ATOM     38  O   UNL     1       6.087   3.797  -1.002  0.00  0.00    -0.386 OA
ATOM     39  H   UNL     1       6.425   4.005  -0.112  0.00  0.00    +0.210 HD
ENDBRANCH  31  38
ENDBRANCH  26  29
ENDBRANCH   1  26
TORSDOF 11
