REMARK  Name = 
REMARK  18 active torsions:
REMARK  status: ('A' for Active; 'I' for Inactive)
REMARK    1  A    between atoms: C_3  and  O_33
REMARK    2  A    between atoms: C_4  and  O_32
REMARK    3  A    between atoms: C_6  and  C_7
REMARK    4  A    between atoms: C_8  and  O_31
REMARK    5  A    between atoms: C_12  and  O_30
REMARK    6  A    between atoms: C_14  and  O_18
REMARK    7  A    between atoms: O_18  and  C_19
REMARK    8  A    between atoms: C_20  and  O_29
REMARK    9  A    between atoms: C_21  and  O_28
REMARK   10  A    between atoms: C_22  and  O_27
REMARK   11  A    between atoms: C_23  and  C_25
REMARK   12  A    between atoms: C_25  and  O_26
REMARK   13  A    between atoms: O_33  and  C_34
REMARK   14  A    between atoms: C_35  and  O_44
REMARK   15  A    between atoms: C_36  and  O_43
REMARK   16  A    between atoms: C_37  and  O_42
REMARK   17  A    between atoms: C_38  and  C_40
REMARK   18  A    between atoms: C_40  and  O_41
REMARK                            x       y       z     vdW  Elec       q    Type
REMARK                         _______ _______ _______ _____ _____    ______ ____
ROOT
ATOM      1  C   UNL     1      -1.385  -2.575  -0.244  0.00  0.00    +0.181 A 
ATOM      2  O   UNL     1      -0.664  -3.768  -0.037  0.00  0.00    -0.451 OA
ATOM      3  C   UNL     1      -1.296  -4.982  -0.194  0.00  0.00    +0.147 A 
ATOM      4  C   UNL     1      -2.653  -5.055  -0.483  0.00  0.00    +0.109 A 
ATOM      5  C   UNL     1      -3.276  -6.291  -0.601  0.00  0.00    +0.135 A 
ATOM      6  C   UNL     1      -2.546  -7.457  -0.437  0.00  0.00    +0.092 A 
ATOM      7  C   UNL     1      -1.179  -7.421  -0.126  0.00  0.00    +0.131 A 
ATOM      8  C   UNL     1      -3.421  -3.827  -0.670  0.00  0.00    +0.238 A 
ATOM      9  O   UNL     1      -4.627  -3.889  -0.897  0.00  0.00    -0.283 OA
ATOM     10  C   UNL     1      -0.548  -6.169  -0.027  0.00  0.00    +0.093 A 
ATOM     11  C   UNL     1      -2.685  -2.544  -0.598  0.00  0.00    +0.208 A 
ENDROOT
BRANCH   1  13
ATOM     12  C   UNL     1       0.808  -1.409  -0.273  0.00  0.00    +0.015 A 
ATOM     13  C   UNL     1      -0.566  -1.349  -0.020  0.00  0.00    +0.025 A 
ATOM     14  C   UNL     1      -1.071  -0.143   0.506  0.00  0.00    +0.060 A 
ATOM     15  C   UNL     1      -0.219   0.932   0.799  0.00  0.00    +0.159 A 
ATOM     16  C   UNL     1       1.161   0.825   0.637  0.00  0.00    +0.165 A 
ATOM     17  C   UNL     1       1.650  -0.343   0.043  0.00  0.00    +0.050 A 
BRANCH  15  18
ATOM     18  O   UNL     1      -0.783   2.086   1.271  0.00  0.00    -0.503 OA
ATOM     19  H   UNL     1      -0.065   2.748   1.295  0.00  0.00    +0.292 HD
ENDBRANCH  15  18
BRANCH  16  20
ATOM     20  O   UNL     1       1.946   1.851   1.140  0.00  0.00    -0.457 OA
BRANCH  20  21
ATOM     21  C   UNL     1       3.334   1.487   1.289  0.00  0.00    +0.339 C 
ATOM     22  O   UNL     1       3.481   0.332   2.137  0.00  0.00    -0.331 OA
ATOM     23  C   UNL     1       3.296   0.640   3.532  0.00  0.00    +0.179 C 
ATOM     24  C   UNL     1       4.563   1.388   3.929  0.00  0.00    +0.177 C 
ATOM     25  C   UNL     1       4.543   2.746   3.226  0.00  0.00    +0.180 C 
ATOM     26  C   UNL     1       4.298   2.631   1.713  0.00  0.00    +0.214 C 
BRANCH  26  27
ATOM     27  O   UNL     1       3.909   3.898   1.169  0.00  0.00    -0.383 OA
ATOM     28  H   UNL     1       4.388   4.580   1.681  0.00  0.00    +0.210 HD
ENDBRANCH  26  27
BRANCH  25  29
ATOM     29  O   UNL     1       5.808   3.399   3.433  0.00  0.00    -0.386 OA
ATOM     30  H   UNL     1       6.478   2.684   3.425  0.00  0.00    +0.210 HD
ENDBRANCH  25  29
BRANCH  24  31
ATOM     31  O   UNL     1       5.728   0.666   3.483  0.00  0.00    -0.386 OA
ATOM     32  H   UNL     1       5.429   0.049   2.781  0.00  0.00    +0.210 HD
ENDBRANCH  24  31
BRANCH  23  33
ATOM     33  C   UNL     1       3.135  -0.664   4.322  0.00  0.00    +0.190 C 
BRANCH  33  34
ATOM     34  O   UNL     1       1.873  -1.276   4.059  0.00  0.00    -0.392 OA
ATOM     35  H   UNL     1       1.167  -0.648   4.291  0.00  0.00    +0.210 HD
ENDBRANCH  33  34
ENDBRANCH  23  33
ENDBRANCH  20  21
ENDBRANCH  16  20
ENDBRANCH   1  13
BRANCH  11  36
ATOM     36  O   UNL     1      -3.411  -1.411  -0.910  0.00  0.00    -0.501 OA
ATOM     37  H   UNL     1      -2.805  -0.748  -1.278  0.00  0.00    +0.292 HD
ENDBRANCH  11  36
BRANCH   5  38
ATOM     38  O   UNL     1      -4.610  -6.450  -0.858  0.00  0.00    -0.506 OA
ATOM     39  H   UNL     1      -5.015  -5.555  -0.930  0.00  0.00    +0.292 HD
ENDBRANCH   5  38
BRANCH   7  40
ATOM     40  O   UNL     1      -0.424  -8.562   0.125  0.00  0.00    -0.461 OA
BRANCH  40  41
ATOM     41  C   UNL     1      -1.225  -9.729   0.420  0.00  0.00    +0.339 C 
ATOM     42  O   UNL     1      -2.019  -9.481   1.597  0.00  0.00    -0.331 OA
ATOM     43  C   UNL     1      -1.204  -9.512   2.785  0.00  0.00    +0.179 C 
ATOM     44  C   UNL     1      -0.886 -10.985   3.029  0.00  0.00    +0.177 C 
ATOM     45  C   UNL     1       0.060 -11.434   1.916  0.00  0.00    +0.180 C 
ATOM     46  C   UNL     1      -0.485 -11.094   0.520  0.00  0.00    +0.214 C 
BRANCH  46  47
ATOM     47  O   UNL     1       0.541 -11.237  -0.469  0.00  0.00    -0.383 OA
ATOM     48  H   UNL     1       1.091 -11.991  -0.181  0.00  0.00    +0.210 HD
ENDBRANCH  46  47
BRANCH  45  49
ATOM     49  O   UNL     1       0.234 -12.863   2.000  0.00  0.00    -0.386 OA
ATOM     50  H   UNL     1      -0.646 -13.190   2.296  0.00  0.00    +0.210 HD
ENDBRANCH  45  49
BRANCH  44  51
ATOM     51  O   UNL     1      -2.060 -11.817   2.934  0.00  0.00    -0.386 OA
ATOM     52  H   UNL     1      -2.816 -11.217   2.766  0.00  0.00    +0.210 HD
ENDBRANCH  44  51
BRANCH  43  53
ATOM     53  C   UNL     1      -1.981  -8.843   3.916  0.00  0.00    +0.190 C 
BRANCH  53  54
ATOM     54  O   UNL     1      -3.292  -9.388   4.017  0.00  0.00    -0.392 OA
ATOM     55  H   UNL     1      -3.740  -9.145   3.184  0.00  0.00    +0.210 HD
ENDBRANCH  53  54
ENDBRANCH  43  53
ENDBRANCH  40  41
ENDBRANCH   7  40
TORSDOF 18
