REMARK  Name = 
REMARK  29 active torsions:
REMARK  status: ('A' for Active; 'I' for Inactive)
REMARK    1  A    between atoms: C_1  and  C_2
REMARK    2  A    between atoms: C_3  and  O_65
REMARK    3  A    between atoms: C_4  and  O_64
REMARK    4  A    between atoms: C_5  and  O_63
REMARK    5  A    between atoms: C_6  and  O_8
REMARK    6  A    between atoms: O_8  and  C_9
REMARK    7  A    between atoms: C_9  and  C_10
REMARK    8  A    between atoms: C_11  and  O_62
REMARK    9  A    between atoms: C_12  and  O_61
REMARK   10  A    between atoms: C_13  and  O_60
REMARK   11  A    between atoms: C_14  and  O_16
REMARK   12  A    between atoms: O_16  and  C_17
REMARK   13  A    between atoms: C_18  and  C_41
REMARK   14  A    between atoms: C_22  and  O_29
REMARK   15  A    between atoms: C_24  and  O_28
REMARK   16  A    between atoms: O_29  and  C_30
REMARK   17  A    between atoms: C_31  and  O_40
REMARK   18  A    between atoms: C_32  and  O_39
REMARK   19  A    between atoms: C_33  and  O_38
REMARK   20  A    between atoms: C_34  and  C_36
REMARK   21  A    between atoms: C_36  and  O_37
REMARK   22  A    between atoms: C_43  and  O_48
REMARK   23  A    between atoms: C_44  and  O_47
REMARK   24  A    between atoms: O_48  and  C_49
REMARK   25  A    between atoms: C_50  and  O_59
REMARK   26  A    between atoms: C_51  and  O_58
REMARK   27  A    between atoms: C_52  and  O_57
REMARK   28  A    between atoms: C_53  and  C_55
REMARK   29  A    between atoms: C_55  and  O_56
REMARK                            x       y       z     vdW  Elec       q    Type
REMARK                         _______ _______ _______ _____ _____    ______ ____
ROOT
ATOM      1  C   UNL     1       4.525   6.984  -1.152  0.00  0.00    +0.214 A 
ATOM      2  C   UNL     1       5.214   8.188  -0.570  0.00  0.00    +0.238 A 
ATOM      3  O   UNL     1       5.213   9.252  -1.177  0.00  0.00    -0.283 OA
ATOM      4  C   UNL     1       5.859   8.047   0.774  0.00  0.00    +0.109 A 
ATOM      5  C   UNL     1       5.726   6.839   1.435  0.00  0.00    +0.147 A 
ATOM      6  C   UNL     1       6.287   6.612   2.707  0.00  0.00    +0.093 A 
ATOM      7  C   UNL     1       7.080   7.576   3.318  0.00  0.00    +0.131 A 
ATOM      8  C   UNL     1       7.220   8.808   2.667  0.00  0.00    +0.092 A 
ATOM      9  O   UNL     1       5.044   5.787   0.913  0.00  0.00    -0.451 OA
ATOM     10  C   UNL     1       6.585   9.050   1.427  0.00  0.00    +0.135 A 
ATOM     11  C   UNL     1       4.462   5.907  -0.343  0.00  0.00    +0.181 A 
ENDROOT
BRANCH  11  12
ATOM     12  C   UNL     1       3.678   4.695  -0.587  0.00  0.00    +0.025 A 
ATOM     13  C   UNL     1       2.368   4.721  -0.099  0.00  0.00    +0.015 A 
ATOM     14  C   UNL     1       1.677   3.536   0.111  0.00  0.00    +0.050 A 
ATOM     15  C   UNL     1       2.223   2.340  -0.337  0.00  0.00    +0.159 A 
ATOM     16  C   UNL     1       3.420   2.323  -1.055  0.00  0.00    +0.166 A 
ATOM     17  C   UNL     1       4.213   3.482  -1.057  0.00  0.00    +0.061 A 
BRANCH  15  18
ATOM     18  O   UNL     1       1.447   1.229  -0.177  0.00  0.00    -0.503 OA
ATOM     19  H   UNL     1       0.677   1.419  -0.756  0.00  0.00    +0.292 HD
ENDBRANCH  15  18
BRANCH  16  20
ATOM     20  O   UNL     1       3.867   1.303  -1.857  0.00  0.00    -0.457 OA
BRANCH  20  21
ATOM     21  C   UNL     1       2.878   0.431  -2.441  0.00  0.00    +0.339 C 
ATOM     22  O   UNL     1       3.544  -0.536  -3.303  0.00  0.00    -0.331 OA
ATOM     23  C   UNL     1       4.161   0.040  -4.471  0.00  0.00    +0.179 C 
ATOM     24  C   UNL     1       3.095   0.710  -5.350  0.00  0.00    +0.177 C 
ATOM     25  C   UNL     1       2.344   1.760  -4.532  0.00  0.00    +0.180 C 
ATOM     26  C   UNL     1       1.745   1.104  -3.288  0.00  0.00    +0.214 C 
BRANCH  26  27
ATOM     27  O   UNL     1       0.875   2.038  -2.634  0.00  0.00    -0.383 OA
ATOM     28  H   UNL     1       0.573   2.652  -3.338  0.00  0.00    +0.210 HD
ENDBRANCH  26  27
BRANCH  25  29
ATOM     29  O   UNL     1       1.267   2.323  -5.300  0.00  0.00    -0.386 OA
ATOM     30  H   UNL     1       0.894   1.583  -5.823  0.00  0.00    +0.210 HD
ENDBRANCH  25  29
BRANCH  24  31
ATOM     31  O   UNL     1       2.128  -0.247  -5.827  0.00  0.00    -0.386 OA
ATOM     32  H   UNL     1       2.074  -0.974  -5.174  0.00  0.00    +0.210 HD
ENDBRANCH  24  31
BRANCH  23  33
ATOM     33  C   UNL     1       4.874  -1.081  -5.252  0.00  0.00    +0.190 C 
BRANCH  33  34
ATOM     34  O   UNL     1       5.955  -1.651  -4.520  0.00  0.00    -0.392 OA
ATOM     35  H   UNL     1       6.400  -0.946  -4.020  0.00  0.00    +0.210 HD
ENDBRANCH  33  34
ENDBRANCH  23  33
ENDBRANCH  20  21
ENDBRANCH  16  20
ENDBRANCH  11  12
BRANCH  10  36
ATOM     36  O   UNL     1       6.705  10.290   0.864  0.00  0.00    -0.506 OA
ATOM     37  H   UNL     1       6.900  10.948   1.551  0.00  0.00    +0.292 HD
ENDBRANCH  10  36
BRANCH   7  38
ATOM     38  O   UNL     1       7.782   7.410   4.495  0.00  0.00    -0.461 OA
BRANCH  38  39
ATOM     39  C   UNL     1       7.371   6.322   5.354  0.00  0.00    +0.339 C 
ATOM     40  O   UNL     1       6.109   6.602   5.969  0.00  0.00    -0.331 OA
ATOM     41  C   UNL     1       6.165   7.750   6.840  0.00  0.00    +0.179 C 
ATOM     42  C   UNL     1       7.084   7.432   8.026  0.00  0.00    +0.177 C 
ATOM     43  C   UNL     1       8.495   7.077   7.525  0.00  0.00    +0.180 C 
ATOM     44  C   UNL     1       8.422   5.984   6.444  0.00  0.00    +0.214 C 
BRANCH  44  45
ATOM     45  O   UNL     1       9.698   5.691   5.870  0.00  0.00    -0.383 OA
ATOM     46  H   UNL     1       9.946   6.420   5.279  0.00  0.00    +0.210 HD
ENDBRANCH  44  45
BRANCH  43  47
ATOM     47  O   UNL     1       9.275   6.628   8.653  0.00  0.00    -0.386 OA
ATOM     48  H   UNL     1       8.675   6.070   9.190  0.00  0.00    +0.210 HD
ENDBRANCH  43  47
BRANCH  42  49
ATOM     49  O   UNL     1       6.582   6.309   8.776  0.00  0.00    -0.386 OA
ATOM     50  H   UNL     1       6.128   5.708   8.153  0.00  0.00    +0.210 HD
ENDBRANCH  42  49
BRANCH  41  51
ATOM     51  C   UNL     1       4.738   8.077   7.294  0.00  0.00    +0.190 C 
BRANCH  51  52
ATOM     52  O   UNL     1       3.926   8.471   6.186  0.00  0.00    -0.392 OA
ATOM     53  H   UNL     1       4.413   9.132   5.668  0.00  0.00    +0.210 HD
ENDBRANCH  51  52
ENDBRANCH  41  51
ENDBRANCH  38  39
ENDBRANCH   7  38
BRANCH   1  54
ATOM     54  O   UNL     1       3.878   6.976  -2.393  0.00  0.00    -0.453 OA
BRANCH  54  57
ATOM     55  C   UNL     1       3.116   8.570  -5.663  0.00  0.00    +0.179 C 
ATOM     56  O   UNL     1       3.029   7.867  -4.398  0.00  0.00    -0.331 OA
ATOM     57  C   UNL     1       4.083   7.998  -3.409  0.00  0.00    +0.340 C 
ATOM     58  C   UNL     1       5.467   7.787  -4.056  0.00  0.00    +0.214 C 
ATOM     59  C   UNL     1       5.602   8.724  -5.249  0.00  0.00    +0.180 C 
ATOM     60  C   UNL     1       4.520   8.401  -6.288  0.00  0.00    +0.177 C 
BRANCH  60  61
ATOM     61  O   UNL     1       4.708   9.231  -7.441  0.00  0.00    -0.386 OA
ATOM     62  H   UNL     1       5.654   9.482  -7.448  0.00  0.00    +0.210 HD
ENDBRANCH  60  61
BRANCH  59  63
ATOM     63  O   UNL     1       6.881   8.587  -5.880  0.00  0.00    -0.386 OA
ATOM     64  H   UNL     1       7.068   7.628  -5.897  0.00  0.00    +0.210 HD
ENDBRANCH  59  63
BRANCH  58  65
ATOM     65  O   UNL     1       5.650   6.432  -4.535  0.00  0.00    -0.383 OA
ATOM     66  H   UNL     1       4.822   5.948  -4.341  0.00  0.00    +0.210 HD
ENDBRANCH  58  65
BRANCH  55  67
ATOM     67  C   UNL     1       2.694  10.081  -5.733  0.00  0.00    +0.197 C 
BRANCH  67  68
ATOM     68  O   UNL     1       1.317  10.444  -5.571  0.00  0.00    -0.346 OA
BRANCH  68  72
ATOM     69  C   UNL     1       0.981   8.906  -1.573  0.00  0.00    +0.041 C 
ATOM     70  C   UNL     1      -0.047   8.773  -2.693  0.00  0.00    +0.149 C 
ATOM     71  O   UNL     1       0.554   9.045  -3.956  0.00  0.00    -0.343 OA
ATOM     72  C   UNL     1       0.854  10.403  -4.227  0.00  0.00    +0.282 C 
ATOM     73  C   UNL     1      -0.417  11.288  -4.116  0.00  0.00    +0.201 C 
ATOM     74  C   UNL     1      -1.059  11.096  -2.736  0.00  0.00    +0.179 C 
ATOM     75  C   UNL     1      -1.323   9.598  -2.492  0.00  0.00    +0.174 C 
BRANCH  75  76
ATOM     76  O   UNL     1      -1.884   9.341  -1.203  0.00  0.00    -0.387 OA
ATOM     77  H   UNL     1      -1.382   9.841  -0.539  0.00  0.00    +0.210 HD
ENDBRANCH  75  76
BRANCH  74  78
ATOM     78  O   UNL     1      -2.287  11.833  -2.657  0.00  0.00    -0.386 OA
ATOM     79  H   UNL     1      -2.826  11.526  -3.414  0.00  0.00    +0.210 HD
ENDBRANCH  74  78
BRANCH  73  80
ATOM     80  O   UNL     1      -1.397  10.927  -5.114  0.00  0.00    -0.384 OA
ATOM     81  H   UNL     1      -0.871  10.645  -5.890  0.00  0.00    +0.210 HD
ENDBRANCH  73  80
ENDBRANCH  68  72
ENDBRANCH  67  68
ENDBRANCH  55  67
ENDBRANCH  54  57
ENDBRANCH   1  54
TORSDOF 28
