REMARK  Name = 
REMARK  18 active torsions:
REMARK  status: ('A' for Active; 'I' for Inactive)
REMARK    1  A    between atoms: C_3  and  O_44
REMARK    2  A    between atoms: C_4  and  O_43
REMARK    3  A    between atoms: C_6  and  C_7
REMARK    4  A    between atoms: C_8  and  O_20
REMARK    5  A    between atoms: C_12  and  O_19
REMARK    6  A    between atoms: C_14  and  O_18
REMARK    7  A    between atoms: O_20  and  C_21
REMARK    8  A    between atoms: C_22  and  O_42
REMARK    9  A    between atoms: C_23  and  O_30
REMARK   10  A    between atoms: C_24  and  O_29
REMARK   11  A    between atoms: C_25  and  C_27
REMARK   12  A    between atoms: C_27  and  O_28
REMARK   13  A    between atoms: O_30  and  C_31
REMARK   14  A    between atoms: C_32  and  O_41
REMARK   15  A    between atoms: C_33  and  O_40
REMARK   16  A    between atoms: C_34  and  O_39
REMARK   17  A    between atoms: C_35  and  C_37
REMARK   18  A    between atoms: C_37  and  O_38
REMARK                            x       y       z     vdW  Elec       q    Type
REMARK                         _______ _______ _______ _____ _____    ______ ____
ROOT
ATOM      1  C   UNL     1      -3.822  -0.584  -1.333  0.00  0.00    +0.340 C 
ATOM      2  O   UNL     1      -3.907   0.202  -2.552  0.00  0.00    -0.331 OA
ATOM      3  C   UNL     1      -3.160  -0.213  -3.734  0.00  0.00    +0.179 C 
ATOM      4  C   UNL     1      -1.895  -1.080  -3.516  0.00  0.00    +0.177 C 
ATOM      5  C   UNL     1      -2.033  -1.955  -2.281  0.00  0.00    +0.187 C 
ATOM      6  C   UNL     1      -2.337  -0.987  -1.104  0.00  0.00    +0.214 C 
ENDROOT
BRANCH   6   7
ATOM      7  O   UNL     1      -2.054  -1.542   0.169  0.00  0.00    -0.383 OA
ATOM      8  H   UNL     1      -2.818  -1.397   0.764  0.00  0.00    +0.210 HD
ENDBRANCH   6   7
BRANCH   4   9
ATOM      9  O   UNL     1      -0.745  -0.229  -3.386  0.00  0.00    -0.386 OA
ATOM     10  H   UNL     1      -0.019  -0.743  -2.981  0.00  0.00    +0.210 HD
ENDBRANCH   4   9
BRANCH   5  11
ATOM     11  O   UNL     1      -1.103  -3.024  -2.197  0.00  0.00    -0.340 OA
BRANCH  11  12
ATOM     12  C   UNL     1       0.271  -2.883  -1.901  0.00  0.00    +0.282 C 
ATOM     13  O   UNL     1       0.997  -2.147  -2.895  0.00  0.00    -0.341 OA
ATOM     14  C   UNL     1       1.031  -2.735  -4.215  0.00  0.00    +0.178 C 
ATOM     15  C   UNL     1       1.543  -4.178  -4.202  0.00  0.00    +0.177 C 
ATOM     16  C   UNL     1       0.763  -5.006  -3.177  0.00  0.00    +0.179 C 
ATOM     17  C   UNL     1       0.831  -4.329  -1.790  0.00  0.00    +0.201 C 
BRANCH  17  18
ATOM     18  O   UNL     1       0.104  -5.097  -0.823  0.00  0.00    -0.384 OA
ATOM     19  H   UNL     1      -0.814  -5.154  -1.146  0.00  0.00    +0.210 HD
ENDBRANCH  17  18
BRANCH  16  20
ATOM     20  O   UNL     1       1.305  -6.329  -3.134  0.00  0.00    -0.386 OA
ATOM     21  H   UNL     1       2.276  -6.230  -3.138  0.00  0.00    +0.210 HD
ENDBRANCH  16  20
BRANCH  15  22
ATOM     22  O   UNL     1       2.945  -4.233  -3.875  0.00  0.00    -0.386 OA
ATOM     23  H   UNL     1       3.133  -3.543  -3.211  0.00  0.00    +0.210 HD
ENDBRANCH  15  22
BRANCH  14  24
ATOM     24  C   UNL     1       1.899  -1.828  -5.107  0.00  0.00    +0.190 C 
BRANCH  24  25
ATOM     25  O   UNL     1       1.980  -2.316  -6.439  0.00  0.00    -0.392 OA
ATOM     26  H   UNL     1       2.679  -2.997  -6.458  0.00  0.00    +0.210 HD
ENDBRANCH  24  25
ENDBRANCH  14  24
ENDBRANCH  11  12
ENDBRANCH   5  11
BRANCH   3  27
ATOM     27  C   UNL     1      -2.736   1.064  -4.511  0.00  0.00    +0.190 C 
BRANCH  27  28
ATOM     28  O   UNL     1      -3.859   1.836  -4.926  0.00  0.00    -0.392 OA
ATOM     29  H   UNL     1      -4.557   1.682  -4.260  0.00  0.00    +0.210 HD
ENDBRANCH  27  28
ENDBRANCH   3  27
BRANCH   1  30
ATOM     30  O   UNL     1      -4.611  -1.789  -1.401  0.00  0.00    -0.453 OA
BRANCH  30  41
ATOM     31  C   UNL     1      -6.916  -2.208  -0.959  0.00  0.00    +0.181 A 
ATOM     32  O   UNL     1      -7.975  -2.567  -0.160  0.00  0.00    -0.451 OA
ATOM     33  C   UNL     1      -7.776  -2.975   1.117  0.00  0.00    +0.147 A 
ATOM     34  C   UNL     1      -6.518  -3.053   1.688  0.00  0.00    +0.109 A 
ATOM     35  C   UNL     1      -6.424  -3.563   2.994  0.00  0.00    +0.135 A 
ATOM     36  C   UNL     1      -7.576  -3.888   3.729  0.00  0.00    +0.091 A 
ATOM     37  C   UNL     1      -8.828  -3.715   3.151  0.00  0.00    +0.124 A 
ATOM     38  C   UNL     1      -5.373  -2.538   0.887  0.00  0.00    +0.238 A 
ATOM     39  O   UNL     1      -4.248  -2.516   1.377  0.00  0.00    -0.283 OA
ATOM     40  C   UNL     1      -8.930  -3.299   1.835  0.00  0.00    +0.092 A 
ATOM     41  C   UNL     1      -5.647  -2.055  -0.525  0.00  0.00    +0.214 A 
BRANCH  31  43
ATOM     42  C   UNL     1      -8.782  -1.963  -2.598  0.00  0.00    +0.015 A 
ATOM     43  C   UNL     1      -7.390  -2.053  -2.383  0.00  0.00    +0.025 A 
ATOM     44  C   UNL     1      -6.557  -2.118  -3.522  0.00  0.00    +0.060 A 
ATOM     45  C   UNL     1      -7.123  -2.102  -4.793  0.00  0.00    +0.159 A 
ATOM     46  C   UNL     1      -8.495  -2.075  -4.973  0.00  0.00    +0.158 A 
ATOM     47  C   UNL     1      -9.341  -1.992  -3.876  0.00  0.00    +0.050 A 
BRANCH  46  48
ATOM     48  O   UNL     1      -8.983  -2.150  -6.239  0.00  0.00    -0.503 OA
ATOM     49  H   UNL     1      -9.926  -2.368  -6.185  0.00  0.00    +0.292 HD
ENDBRANCH  46  48
BRANCH  45  50
ATOM     50  O   UNL     1      -6.295  -2.135  -5.878  0.00  0.00    -0.503 OA
ATOM     51  H   UNL     1      -6.898  -2.081  -6.649  0.00  0.00    +0.292 HD
ENDBRANCH  45  50
ENDBRANCH  31  43
BRANCH  37  52
ATOM     52  O   UNL     1      -9.984  -3.918   3.843  0.00  0.00    -0.507 OA
ATOM     53  H   UNL     1      -9.784  -3.959   4.794  0.00  0.00    +0.292 HD
ENDBRANCH  37  52
BRANCH  35  54
ATOM     54  O   UNL     1      -5.236  -3.764   3.641  0.00  0.00    -0.506 OA
ATOM     55  H   UNL     1      -4.503  -3.537   3.025  0.00  0.00    +0.292 HD
ENDBRANCH  35  54
ENDBRANCH  30  41
ENDBRANCH   1  30
TORSDOF 18
