REMARK  Name = 
REMARK  24 active torsions:
REMARK  status: ('A' for Active; 'I' for Inactive)
REMARK    1  A    between atoms: C_3  and  O_56
REMARK    2  A    between atoms: C_4  and  O_55
REMARK    3  A    between atoms: C_6  and  C_7
REMARK    4  A    between atoms: C_8  and  O_32
REMARK    5  A    between atoms: C_12  and  O_31
REMARK    6  A    between atoms: C_14  and  O_18
REMARK    7  A    between atoms: O_18  and  C_19
REMARK    8  A    between atoms: C_20  and  O_30
REMARK    9  A    between atoms: C_21  and  O_29
REMARK   10  A    between atoms: C_22  and  O_28
REMARK   11  A    between atoms: C_23  and  C_25
REMARK   12  A    between atoms: C_25  and  O_27
REMARK   13  A    between atoms: O_32  and  C_33
REMARK   14  A    between atoms: C_34  and  O_43
REMARK   15  A    between atoms: C_35  and  O_42
REMARK   16  A    between atoms: C_36  and  O_41
REMARK   17  A    between atoms: C_37  and  C_39
REMARK   18  A    between atoms: C_39  and  O_40
REMARK   19  A    between atoms: O_43  and  C_44
REMARK   20  A    between atoms: C_45  and  O_54
REMARK   21  A    between atoms: C_46  and  O_53
REMARK   22  A    between atoms: C_47  and  O_52
REMARK   23  A    between atoms: C_48  and  C_50
REMARK   24  A    between atoms: C_50  and  O_51
REMARK                            x       y       z     vdW  Elec       q    Type
REMARK                         _______ _______ _______ _____ _____    ______ ____
ROOT
ATOM      1  C   UNL     1      -1.099  -2.792  -0.434  0.00  0.00    +0.181 A 
ATOM      2  O   UNL     1      -0.426  -3.996  -0.083  0.00  0.00    -0.451 OA
ATOM      3  C   UNL     1      -1.101  -5.188  -0.049  0.00  0.00    +0.147 A 
ATOM      4  C   UNL     1      -2.479  -5.194   0.030  0.00  0.00    +0.109 A 
ATOM      5  C   UNL     1      -3.135  -6.419  -0.084  0.00  0.00    +0.135 A 
ATOM      6  C   UNL     1      -2.431  -7.604  -0.249  0.00  0.00    +0.092 A 
ATOM      7  C   UNL     1      -1.043  -7.635  -0.125  0.00  0.00    +0.131 A 
ATOM      8  C   UNL     1      -3.163  -3.895   0.212  0.00  0.00    +0.238 A 
ATOM      9  O   UNL     1      -4.321  -3.856   0.611  0.00  0.00    -0.283 OA
ATOM     10  C   UNL     1      -0.368  -6.406  -0.084  0.00  0.00    +0.093 A 
ATOM     11  C   UNL     1      -2.443  -2.635  -0.234  0.00  0.00    +0.214 A 
ENDROOT
BRANCH   1  13
ATOM     12  C   UNL     1       0.963  -2.496  -1.783  0.00  0.00    +0.015 A 
ATOM     13  C   UNL     1      -0.091  -1.866  -1.061  0.00  0.00    +0.025 A 
ATOM     14  C   UNL     1      -0.047  -0.468  -0.973  0.00  0.00    +0.060 A 
ATOM     15  C   UNL     1       1.022   0.235  -1.561  0.00  0.00    +0.159 A 
ATOM     16  C   UNL     1       2.063  -0.426  -2.216  0.00  0.00    +0.158 A 
ATOM     17  C   UNL     1       2.039  -1.800  -2.336  0.00  0.00    +0.050 A 
BRANCH  16  18
ATOM     18  O   UNL     1       3.092   0.319  -2.726  0.00  0.00    -0.503 OA
ATOM     19  H   UNL     1       3.752  -0.290  -3.104  0.00  0.00    +0.292 HD
ENDBRANCH  16  18
BRANCH  15  20
ATOM     20  O   UNL     1       1.080   1.600  -1.486  0.00  0.00    -0.503 OA
ATOM     21  H   UNL     1       1.900   1.840  -1.964  0.00  0.00    +0.292 HD
ENDBRANCH  15  20
ENDBRANCH   1  13
BRANCH   5  22
ATOM     22  O   UNL     1      -4.491  -6.572  -0.115  0.00  0.00    -0.506 OA
ATOM     23  H   UNL     1      -4.835  -5.829  -0.663  0.00  0.00    +0.292 HD
ENDBRANCH   5  22
BRANCH  11  24
ATOM     24  O   UNL     1      -3.242  -1.498  -0.326  0.00  0.00    -0.453 OA
BRANCH  24  25
ATOM     25  C   UNL     1      -3.692  -0.891  -1.562  0.00  0.00    +0.340 C 
ATOM     26  O   UNL     1      -4.483   0.315  -1.283  0.00  0.00    -0.331 OA
ATOM     27  C   UNL     1      -5.943   0.301  -1.215  0.00  0.00    +0.179 C 
ATOM     28  C   UNL     1      -6.717  -0.991  -1.625  0.00  0.00    +0.177 C 
ATOM     29  C   UNL     1      -5.806  -2.202  -1.822  0.00  0.00    +0.180 C 
ATOM     30  C   UNL     1      -4.542  -1.715  -2.537  0.00  0.00    +0.221 C 
BRANCH  29  31
ATOM     31  O   UNL     1      -6.481  -3.221  -2.577  0.00  0.00    -0.386 OA
ATOM     32  H   UNL     1      -7.436  -3.001  -2.557  0.00  0.00    +0.210 HD
ENDBRANCH  29  31
BRANCH  28  33
ATOM     33  O   UNL     1      -7.526  -0.835  -2.814  0.00  0.00    -0.386 OA
ATOM     34  H   UNL     1      -6.954  -0.791  -3.604  0.00  0.00    +0.210 HD
ENDBRANCH  28  33
BRANCH  27  35
ATOM     35  C   UNL     1      -6.523   1.511  -2.012  0.00  0.00    +0.190 C 
BRANCH  35  36
ATOM     36  O   UNL     1      -5.883   2.748  -1.726  0.00  0.00    -0.392 OA
ATOM     37  H   UNL     1      -5.780   2.815  -0.765  0.00  0.00    +0.210 HD
ENDBRANCH  35  36
ENDBRANCH  27  35
BRANCH  30  38
ATOM     38  O   UNL     1      -3.964  -2.539  -3.524  0.00  0.00    -0.337 OA
BRANCH  38  39
ATOM     39  C   UNL     1      -3.058  -3.584  -3.291  0.00  0.00    +0.282 C 
ATOM     40  O   UNL     1      -2.102  -3.607  -4.359  0.00  0.00    -0.341 OA
ATOM     41  C   UNL     1      -2.768  -3.592  -5.632  0.00  0.00    +0.178 C 
ATOM     42  C   UNL     1      -3.630  -4.860  -5.806  0.00  0.00    +0.177 C 
ATOM     43  C   UNL     1      -4.508  -5.152  -4.570  0.00  0.00    +0.179 C 
ATOM     44  C   UNL     1      -3.759  -4.939  -3.252  0.00  0.00    +0.201 C 
BRANCH  44  45
ATOM     45  O   UNL     1      -4.662  -5.024  -2.144  0.00  0.00    -0.384 OA
ATOM     46  H   UNL     1      -5.468  -4.521  -2.401  0.00  0.00    +0.210 HD
ENDBRANCH  44  45
BRANCH  43  47
ATOM     47  O   UNL     1      -5.004  -6.498  -4.587  0.00  0.00    -0.386 OA
ATOM     48  H   UNL     1      -4.982  -6.809  -5.509  0.00  0.00    +0.210 HD
ENDBRANCH  43  47
BRANCH  42  49
ATOM     49  O   UNL     1      -2.826  -6.008  -6.106  0.00  0.00    -0.386 OA
ATOM     50  H   UNL     1      -2.413  -6.320  -5.281  0.00  0.00    +0.210 HD
ENDBRANCH  42  49
BRANCH  41  51
ATOM     51  C   UNL     1      -1.728  -3.388  -6.734  0.00  0.00    +0.190 C 
BRANCH  51  52
ATOM     52  O   UNL     1      -2.351  -2.934  -7.932  0.00  0.00    -0.392 OA
ATOM     53  H   UNL     1      -2.859  -3.678  -8.298  0.00  0.00    +0.210 HD
ENDBRANCH  51  52
ENDBRANCH  41  51
ENDBRANCH  38  39
ENDBRANCH  30  38
ENDBRANCH  24  25
ENDBRANCH  11  24
BRANCH   7  54
ATOM     54  O   UNL     1      -0.332  -8.819   0.025  0.00  0.00    -0.461 OA
BRANCH  54  55
ATOM     55  C   UNL     1      -1.178  -9.948   0.381  0.00  0.00    +0.340 C 
ATOM     56  O   UNL     1      -1.966  -9.639   1.556  0.00  0.00    -0.322 OA
ATOM     57  C   UNL     1      -1.136  -9.631   2.729  0.00  0.00    +0.261 C 
ATOM     58  C   UNL     1      -0.870 -11.091   3.047  0.00  0.00    +0.185 C 
ATOM     59  C   UNL     1       0.063 -11.608   1.951  0.00  0.00    +0.180 C 
ATOM     60  C   UNL     1      -0.491 -11.335   0.539  0.00  0.00    +0.214 C 
BRANCH  60  61
ATOM     61  O   UNL     1       0.495 -11.556  -0.472  0.00  0.00    -0.383 OA
ATOM     62  H   UNL     1       1.163 -12.160  -0.095  0.00  0.00    +0.210 HD
ENDBRANCH  60  61
BRANCH  59  63
ATOM     63  O   UNL     1       0.223 -13.029   2.099  0.00  0.00    -0.386 OA
ATOM     64  H   UNL     1      -0.649 -13.377   2.387  0.00  0.00    +0.210 HD
ENDBRANCH  59  63
BRANCH  58  65
ATOM     65  O   UNL     1      -2.085 -11.871   2.978  0.00  0.00    -0.386 OA
ATOM     66  H   UNL     1      -2.778 -11.291   2.599  0.00  0.00    +0.210 HD
ENDBRANCH  58  65
BRANCH  57  67
ATOM     67  C   UNL     1      -1.820  -8.914   3.877  0.00  0.00    +0.337 C 
ATOM     68  O   UNL     1      -1.402  -8.893   5.031  0.00  0.00    -0.248 OA
BRANCH  67  69
ATOM     69  O   UNL     1      -2.929  -8.240   3.488  0.00  0.00    -0.479 OA
ATOM     70  H   UNL     1      -3.084  -8.351   2.521  0.00  0.00    +0.295 HD
ENDBRANCH  67  69
ENDBRANCH  57  67
ENDBRANCH  54  55
ENDBRANCH   7  54
TORSDOF 24
