REMARK  Name = 
REMARK  17 active torsions:
REMARK  status: ('A' for Active; 'I' for Inactive)
REMARK    1  A    between atoms: C_1  and  C_2
REMARK    2  A    between atoms: C_3  and  O_43
REMARK    3  A    between atoms: C_4  and  O_42
REMARK    4  A    between atoms: C_5  and  O_41
REMARK    5  A    between atoms: C_6  and  O_8
REMARK    6  A    between atoms: O_8  and  C_9
REMARK    7  A    between atoms: C_9  and  C_10
REMARK    8  A    between atoms: C_11  and  O_40
REMARK    9  A    between atoms: C_12  and  O_39
REMARK   10  A    between atoms: C_13  and  O_38
REMARK   11  A    between atoms: C_14  and  O_16
REMARK   12  A    between atoms: O_16  and  C_17
REMARK   13  A    between atoms: C_19  and  O_37
REMARK   14  A    between atoms: C_24  and  C_29
REMARK   15  A    between atoms: C_25  and  O_28
REMARK   16  A    between atoms: C_31  and  O_36
REMARK   17  A    between atoms: C_32  and  O_35
REMARK                            x       y       z     vdW  Elec       q    Type
REMARK                         _______ _______ _______ _____ _____    ______ ____
ROOT
ATOM      1  C   UNL     1       3.154   3.815  -4.050  0.00  0.00    +0.179 C 
ATOM      2  O   UNL     1       3.683   4.967  -3.369  0.00  0.00    -0.331 OA
ATOM      3  C   UNL     1       2.708   5.818  -2.748  0.00  0.00    +0.339 C 
ATOM      4  C   UNL     1       1.717   6.340  -3.813  0.00  0.00    +0.214 C 
ATOM      5  C   UNL     1       1.066   5.147  -4.531  0.00  0.00    +0.180 C 
ATOM      6  C   UNL     1       2.158   4.250  -5.146  0.00  0.00    +0.177 C 
ENDROOT
BRANCH   6   7
ATOM      7  O   UNL     1       1.613   3.149  -5.868  0.00  0.00    -0.386 OA
ATOM      8  H   UNL     1       0.948   2.704  -5.317  0.00  0.00    +0.210 HD
ENDBRANCH   6   7
BRANCH   5   9
ATOM      9  O   UNL     1       0.172   5.618  -5.543  0.00  0.00    -0.386 OA
ATOM     10  H   UNL     1       0.679   6.268  -6.070  0.00  0.00    +0.210 HD
ENDBRANCH   5   9
BRANCH   4  11
ATOM     11  O   UNL     1       2.374   7.145  -4.813  0.00  0.00    -0.383 OA
ATOM     12  H   UNL     1       3.336   7.062  -4.665  0.00  0.00    +0.210 HD
ENDBRANCH   4  11
BRANCH   3  13
ATOM     13  O   UNL     1       3.361   6.939  -2.119  0.00  0.00    -0.461 OA
BRANCH  13  14
ATOM     14  C   UNL     1       4.238   6.642  -1.104  0.00  0.00    +0.131 A 
ATOM     15  C   UNL     1       5.254   7.578  -0.863  0.00  0.00    +0.093 A 
ATOM     16  C   UNL     1       6.216   7.350   0.134  0.00  0.00    +0.147 A 
ATOM     17  O   UNL     1       7.213   8.290   0.267  0.00  0.00    -0.451 OA
ATOM     18  C   UNL     1       8.170   8.126   1.269  0.00  0.00    +0.181 A 
ATOM     19  C   UNL     1       8.171   7.097   2.138  0.00  0.00    +0.208 A 
ATOM     20  C   UNL     1       7.171   6.005   1.961  0.00  0.00    +0.238 A 
ATOM     21  O   UNL     1       7.217   5.001   2.663  0.00  0.00    -0.283 OA
ATOM     22  C   UNL     1       6.146   6.205   0.921  0.00  0.00    +0.109 A 
ATOM     23  C   UNL     1       5.110   5.288   0.702  0.00  0.00    +0.135 A 
ATOM     24  C   UNL     1       4.162   5.504  -0.301  0.00  0.00    +0.092 A 
BRANCH  18  25
ATOM     25  C   UNL     1       9.199   9.212   1.293  0.00  0.00    +0.025 A 
ATOM     26  C   UNL     1      10.549   8.939   1.602  0.00  0.00    +0.015 A 
ATOM     27  C   UNL     1      11.502   9.963   1.690  0.00  0.00    +0.050 A 
ATOM     28  C   UNL     1      11.123  11.264   1.400  0.00  0.00    +0.158 A 
ATOM     29  C   UNL     1       9.816  11.549   1.028  0.00  0.00    +0.159 A 
ATOM     30  C   UNL     1       8.850  10.540   0.979  0.00  0.00    +0.060 A 
BRANCH  29  31
ATOM     31  O   UNL     1       9.530  12.847   0.718  0.00  0.00    -0.503 OA
ATOM     32  H   UNL     1       8.621  12.882   0.356  0.00  0.00    +0.292 HD
ENDBRANCH  29  31
BRANCH  28  33
ATOM     33  O   UNL     1      12.055  12.254   1.480  0.00  0.00    -0.503 OA
ATOM     34  H   UNL     1      11.576  13.067   1.220  0.00  0.00    +0.292 HD
ENDBRANCH  28  33
ENDBRANCH  18  25
BRANCH  23  35
ATOM     35  O   UNL     1       4.986   4.168   1.475  0.00  0.00    -0.506 OA
ATOM     36  H   UNL     1       4.397   3.518   1.061  0.00  0.00    +0.292 HD
ENDBRANCH  23  35
BRANCH  19  37
ATOM     37  O   UNL     1       9.036   6.955   3.210  0.00  0.00    -0.501 OA
ATOM     38  H   UNL     1       9.355   7.833   3.478  0.00  0.00    +0.292 HD
ENDBRANCH  19  37
ENDBRANCH  13  14
ENDBRANCH   3  13
BRANCH   1  39
ATOM     39  C   UNL     1       2.621   2.783  -3.035  0.00  0.00    +0.197 C 
BRANCH  39  40
ATOM     40  O   UNL     1       2.266   1.552  -3.663  0.00  0.00    -0.346 OA
BRANCH  40  44
ATOM     41  C   UNL     1       1.239  -0.034   0.195  0.00  0.00    +0.041 C 
ATOM     42  C   UNL     1       2.295  -0.631  -0.740  0.00  0.00    +0.149 C 
ATOM     43  O   UNL     1       2.710   0.328  -1.722  0.00  0.00    -0.343 OA
ATOM     44  C   UNL     1       1.734   0.608  -2.726  0.00  0.00    +0.282 C 
ATOM     45  C   UNL     1       1.364  -0.682  -3.489  0.00  0.00    +0.201 C 
ATOM     46  C   UNL     1       0.832  -1.714  -2.496  0.00  0.00    +0.179 C 
ATOM     47  C   UNL     1       1.859  -1.959  -1.378  0.00  0.00    +0.174 C 
BRANCH  47  48
ATOM     48  O   UNL     1       1.325  -2.825  -0.374  0.00  0.00    -0.387 OA
ATOM     49  H   UNL     1       0.565  -3.293  -0.769  0.00  0.00    +0.210 HD
ENDBRANCH  47  48
BRANCH  46  50
ATOM     50  O   UNL     1       0.555  -2.955  -3.159  0.00  0.00    -0.386 OA
ATOM     51  H   UNL     1       1.290  -3.081  -3.797  0.00  0.00    +0.210 HD
ENDBRANCH  46  50
BRANCH  45  52
ATOM     52  O   UNL     1       2.512  -1.266  -4.141  0.00  0.00    -0.384 OA
ATOM     53  H   UNL     1       3.240  -0.618  -4.051  0.00  0.00    +0.210 HD
ENDBRANCH  45  52
ENDBRANCH  40  44
ENDBRANCH  39  40
ENDBRANCH   1  39
TORSDOF 16
