REMARK  Name = 
REMARK  22 active torsions:
REMARK  status: ('A' for Active; 'I' for Inactive)
REMARK    1  A    between atoms: C_3  and  O_50
REMARK    2  A    between atoms: C_4  and  O_49
REMARK    3  A    between atoms: C_6  and  C_7
REMARK    4  A    between atoms: C_8  and  O_31
REMARK    5  A    between atoms: C_12  and  O_30
REMARK    6  A    between atoms: C_14  and  O_18
REMARK    7  A    between atoms: O_18  and  C_19
REMARK    8  A    between atoms: C_20  and  O_29
REMARK    9  A    between atoms: C_21  and  O_28
REMARK   10  A    between atoms: C_22  and  O_27
REMARK   11  A    between atoms: C_23  and  C_25
REMARK   12  A    between atoms: C_25  and  O_26
REMARK   13  A    between atoms: O_31  and  C_32
REMARK   14  A    between atoms: C_33  and  O_48
REMARK   15  A    between atoms: C_34  and  O_47
REMARK   16  A    between atoms: C_35  and  O_46
REMARK   17  A    between atoms: C_36  and  C_38
REMARK   18  A    between atoms: C_38  and  O_39
REMARK   19  A    between atoms: O_39  and  C_40
REMARK   20  A    between atoms: C_40  and  C_42
REMARK   21  A    between atoms: C_42  and  C_43
REMARK   22  A    between atoms: C_43  and  O_45
REMARK                            x       y       z     vdW  Elec       q    Type
REMARK                         _______ _______ _______ _____ _____    ______ ____
ROOT
ATOM      1  C   UNL     1      -1.233  -2.723   0.294  0.00  0.00    +0.181 A 
ATOM      2  O   UNL     1      -0.580  -3.932   0.472  0.00  0.00    -0.451 OA
ATOM      3  C   UNL     1      -1.215  -5.103   0.173  0.00  0.00    +0.147 A 
ATOM      4  C   UNL     1      -2.535  -5.178  -0.223  0.00  0.00    +0.109 A 
ATOM      5  C   UNL     1      -3.084  -6.446  -0.481  0.00  0.00    +0.135 A 
ATOM      6  C   UNL     1      -2.288  -7.607  -0.434  0.00  0.00    +0.092 A 
ATOM      7  C   UNL     1      -0.928  -7.507  -0.133  0.00  0.00    +0.131 A 
ATOM      8  C   UNL     1      -3.259  -3.903  -0.400  0.00  0.00    +0.238 A 
ATOM      9  O   UNL     1      -4.431  -3.906  -0.773  0.00  0.00    -0.283 OA
ATOM     10  C   UNL     1      -0.427  -6.254   0.245  0.00  0.00    +0.093 A 
ATOM     11  C   UNL     1      -2.512  -2.620  -0.142  0.00  0.00    +0.214 A 
ENDROOT
BRANCH   1  13
ATOM     12  C   UNL     1      -0.780  -0.243   0.655  0.00  0.00    +0.015 A 
ATOM     13  C   UNL     1      -0.318  -1.555   0.505  0.00  0.00    +0.025 A 
ATOM     14  C   UNL     1       1.070  -1.729   0.424  0.00  0.00    +0.060 A 
ATOM     15  C   UNL     1       1.909  -0.627   0.273  0.00  0.00    +0.159 A 
ATOM     16  C   UNL     1       1.384   0.655   0.178  0.00  0.00    +0.158 A 
ATOM     17  C   UNL     1       0.045   0.866   0.416  0.00  0.00    +0.050 A 
BRANCH  16  18
ATOM     18  O   UNL     1       2.220   1.676  -0.170  0.00  0.00    -0.503 OA
ATOM     19  H   UNL     1       1.672   2.366  -0.584  0.00  0.00    +0.292 HD
ENDBRANCH  16  18
BRANCH  15  20
ATOM     20  O   UNL     1       3.255  -0.818   0.163  0.00  0.00    -0.503 OA
ATOM     21  H   UNL     1       3.616   0.084   0.063  0.00  0.00    +0.292 HD
ENDBRANCH  15  20
ENDBRANCH   1  13
BRANCH   5  22
ATOM     22  O   UNL     1      -4.400  -6.627  -0.822  0.00  0.00    -0.506 OA
ATOM     23  H   UNL     1      -4.843  -5.750  -0.839  0.00  0.00    +0.292 HD
ENDBRANCH   5  22
BRANCH   7  24
ATOM     24  O   UNL     1      -0.141  -8.641  -0.294  0.00  0.00    -0.461 OA
BRANCH  24  25
ATOM     25  C   UNL     1       1.241  -8.323  -0.581  0.00  0.00    +0.339 C 
ATOM     26  O   UNL     1       1.329  -7.460  -1.729  0.00  0.00    -0.331 OA
ATOM     27  C   UNL     1       1.049  -8.167  -2.954  0.00  0.00    +0.179 C 
ATOM     28  C   UNL     1       2.289  -9.011  -3.207  0.00  0.00    +0.177 C 
ATOM     29  C   UNL     1       2.343 -10.104  -2.133  0.00  0.00    +0.180 C 
ATOM     30  C   UNL     1       2.231  -9.517  -0.711  0.00  0.00    +0.214 C 
BRANCH  28  31
ATOM     31  O   UNL     1       3.483  -8.198  -3.098  0.00  0.00    -0.386 OA
ATOM     32  H   UNL     1       3.237  -7.411  -2.559  0.00  0.00    +0.210 HD
ENDBRANCH  28  31
BRANCH  29  33
ATOM     33  O   UNL     1       3.579 -10.811  -2.265  0.00  0.00    -0.386 OA
ATOM     34  H   UNL     1       4.268 -10.134  -2.437  0.00  0.00    +0.210 HD
ENDBRANCH  29  33
BRANCH  30  35
ATOM     35  O   UNL     1       2.013 -10.513   0.293  0.00  0.00    -0.383 OA
ATOM     36  H   UNL     1       1.602 -11.291  -0.122  0.00  0.00    +0.210 HD
ENDBRANCH  30  35
BRANCH  27  37
ATOM     37  C   UNL     1       0.785  -7.151  -4.070  0.00  0.00    +0.190 C 
BRANCH  37  38
ATOM     38  O   UNL     1      -0.458  -6.477  -3.858  0.00  0.00    -0.392 OA
ATOM     39  H   UNL     1      -1.154  -7.143  -3.723  0.00  0.00    +0.210 HD
ENDBRANCH  37  38
ENDBRANCH  27  37
ENDBRANCH  24  25
ENDBRANCH   7  24
BRANCH  11  40
ATOM     40  O   UNL     1      -3.204  -1.423  -0.130  0.00  0.00    -0.453 OA
BRANCH  40  41
ATOM     41  C   UNL     1      -3.551  -0.728  -1.347  0.00  0.00    +0.340 C 
ATOM     42  O   UNL     1      -3.026   0.614  -1.358  0.00  0.00    -0.330 OA
ATOM     43  C   UNL     1      -3.607   1.621  -0.498  0.00  0.00    +0.191 C 
ATOM     44  C   UNL     1      -5.036   1.372   0.066  0.00  0.00    +0.178 C 
ATOM     45  C   UNL     1      -5.541  -0.070  -0.084  0.00  0.00    +0.180 C 
ATOM     46  C   UNL     1      -5.080  -0.614  -1.450  0.00  0.00    +0.214 C 
BRANCH  46  47
ATOM     47  O   UNL     1      -5.710  -1.822  -1.850  0.00  0.00    -0.383 OA
ATOM     48  H   UNL     1      -5.224  -2.585  -1.483  0.00  0.00    +0.210 HD
ENDBRANCH  46  47
BRANCH  45  49
ATOM     49  O   UNL     1      -6.958  -0.130   0.090  0.00  0.00    -0.386 OA
ATOM     50  H   UNL     1      -7.253   0.762   0.350  0.00  0.00    +0.210 HD
ENDBRANCH  45  49
BRANCH  44  51
ATOM     51  O   UNL     1      -6.034   2.272  -0.436  0.00  0.00    -0.386 OA
ATOM     52  H   UNL     1      -6.310   1.982  -1.338  0.00  0.00    +0.210 HD
ENDBRANCH  44  51
BRANCH  43  53
ATOM     53  C   UNL     1      -3.425   3.001  -1.181  0.00  0.00    +0.266 C 
BRANCH  53  54
ATOM     54  O   UNL     1      -4.336   3.215  -2.277  0.00  0.00    -0.462 OA
BRANCH  54  55
ATOM     55  C   UNL     1      -3.990   2.736  -3.497  0.00  0.00    +0.318 C 
ATOM     56  O   UNL     1      -2.922   2.212  -3.776  0.00  0.00    -0.250 OA
BRANCH  55  57
ATOM     57  C   UNL     1      -5.050   3.026  -4.516  0.00  0.00    +0.240 C 
BRANCH  57  58
ATOM     58  C   UNL     1      -6.414   2.530  -4.152  0.00  0.00    +0.316 C 
ATOM     59  O   UNL     1      -6.721   2.007  -3.090  0.00  0.00    -0.250 OA
BRANCH  58  60
ATOM     60  O   UNL     1      -7.320   2.730  -5.140  0.00  0.00    -0.480 OA
ATOM     61  H   UNL     1      -6.972   3.145  -5.953  0.00  0.00    +0.295 HD
ENDBRANCH  58  60
ENDBRANCH  57  58
ENDBRANCH  55  57
ENDBRANCH  54  55
ENDBRANCH  53  54
ENDBRANCH  43  53
ENDBRANCH  40  41
ENDBRANCH  11  40
TORSDOF 22
