REMARK  Name = 
REMARK  22 active torsions:
REMARK  status: ('A' for Active; 'I' for Inactive)
REMARK    1  A    between atoms: C_1  and  C_2
REMARK    2  A    between atoms: C_3  and  O_53
REMARK    3  A    between atoms: C_4  and  O_52
REMARK    4  A    between atoms: C_5  and  O_51
REMARK    5  A    between atoms: C_6  and  O_8
REMARK    6  A    between atoms: O_8  and  C_9
REMARK    7  A    between atoms: C_10  and  O_50
REMARK    8  A    between atoms: C_11  and  O_49
REMARK    9  A    between atoms: C_12  and  C_48
REMARK   10  A    between atoms: C_14  and  O_15
REMARK   11  A    between atoms: O_15  and  C_16
REMARK   12  A    between atoms: C_16  and  C_17
REMARK   13  A    between atoms: C_18  and  O_47
REMARK   14  A    between atoms: C_19  and  O_46
REMARK   15  A    between atoms: C_20  and  O_45
REMARK   16  A    between atoms: C_21  and  O_23
REMARK   17  A    between atoms: O_23  and  C_24
REMARK   18  A    between atoms: C_25  and  C_37
REMARK   19  A    between atoms: C_29  and  O_36
REMARK   20  A    between atoms: C_31  and  O_35
REMARK   21  A    between atoms: C_39  and  O_44
REMARK   22  A    between atoms: C_40  and  O_43
REMARK                            x       y       z     vdW  Elec       q    Type
REMARK                         _______ _______ _______ _____ _____    ______ ____
ROOT
ATOM      1  C   UNL     1      -1.527   3.665  -2.151  0.00  0.00    +0.179 C 
ATOM      2  O   UNL     1      -2.436   2.555  -2.282  0.00  0.00    -0.331 OA
ATOM      3  C   UNL     1      -2.390   1.914  -3.571  0.00  0.00    +0.340 C 
ATOM      4  C   UNL     1      -2.797   2.948  -4.643  0.00  0.00    +0.214 C 
ATOM      5  C   UNL     1      -1.873   4.165  -4.589  0.00  0.00    +0.180 C 
ATOM      6  C   UNL     1      -1.849   4.758  -3.172  0.00  0.00    +0.177 C 
ENDROOT
BRANCH   6   7
ATOM      7  O   UNL     1      -0.919   5.834  -3.034  0.00  0.00    -0.386 OA
ATOM      8  H   UNL     1      -0.305   5.814  -3.789  0.00  0.00    +0.210 HD
ENDBRANCH   6   7
BRANCH   5   9
ATOM      9  O   UNL     1      -2.331   5.150  -5.524  0.00  0.00    -0.386 OA
ATOM     10  H   UNL     1      -3.310   5.083  -5.516  0.00  0.00    +0.210 HD
ENDBRANCH   5   9
BRANCH   4  11
ATOM     11  O   UNL     1      -4.153   3.410  -4.427  0.00  0.00    -0.383 OA
ATOM     12  H   UNL     1      -4.480   2.955  -3.623  0.00  0.00    +0.210 HD
ENDBRANCH   4  11
BRANCH   3  13
ATOM     13  O   UNL     1      -3.322   0.831  -3.510  0.00  0.00    -0.453 OA
BRANCH  13  14
ATOM     14  C   UNL     1      -3.572   0.071  -4.640  0.00  0.00    +0.214 A 
ATOM     15  C   UNL     1      -2.570  -0.030  -5.745  0.00  0.00    +0.238 A 
ATOM     16  O   UNL     1      -1.437   0.421  -5.607  0.00  0.00    -0.283 OA
ATOM     17  C   UNL     1      -2.996  -0.685  -6.987  0.00  0.00    +0.109 A 
ATOM     18  C   UNL     1      -4.224  -1.343  -6.986  0.00  0.00    +0.147 A 
ATOM     19  C   UNL     1      -4.641  -2.048  -8.113  0.00  0.00    +0.092 A 
ATOM     20  C   UNL     1      -3.827  -2.075  -9.247  0.00  0.00    +0.124 A 
ATOM     21  C   UNL     1      -2.616  -1.394  -9.272  0.00  0.00    +0.091 A 
ATOM     22  O   UNL     1      -5.066  -1.352  -5.900  0.00  0.00    -0.451 OA
ATOM     23  C   UNL     1      -2.205  -0.688  -8.144  0.00  0.00    +0.135 A 
ATOM     24  C   UNL     1      -4.728  -0.623  -4.766  0.00  0.00    +0.181 A 
BRANCH  24  25
ATOM     25  C   UNL     1      -5.771  -0.681  -3.691  0.00  0.00    +0.025 A 
ATOM     26  C   UNL     1      -7.127  -0.851  -4.027  0.00  0.00    +0.015 A 
ATOM     27  C   UNL     1      -8.123  -0.973  -3.042  0.00  0.00    +0.050 A 
ATOM     28  C   UNL     1      -7.761  -0.910  -1.709  0.00  0.00    +0.158 A 
ATOM     29  C   UNL     1      -6.436  -0.734  -1.343  0.00  0.00    +0.159 A 
ATOM     30  C   UNL     1      -5.445  -0.631  -2.319  0.00  0.00    +0.060 A 
BRANCH  29  31
ATOM     31  O   UNL     1      -6.146  -0.664  -0.009  0.00  0.00    -0.503 OA
ATOM     32  H   UNL     1      -5.197  -0.472   0.080  0.00  0.00    +0.292 HD
ENDBRANCH  29  31
BRANCH  28  33
ATOM     33  O   UNL     1      -8.721  -1.044  -0.745  0.00  0.00    -0.503 OA
ATOM     34  H   UNL     1      -8.231  -0.993   0.101  0.00  0.00    +0.292 HD
ENDBRANCH  28  33
ENDBRANCH  24  25
BRANCH  23  35
ATOM     35  O   UNL     1      -1.025  -0.001  -8.198  0.00  0.00    -0.506 OA
ATOM     36  H   UNL     1      -0.618  -0.091  -9.074  0.00  0.00    +0.292 HD
ENDBRANCH  23  35
BRANCH  20  37
ATOM     37  O   UNL     1      -4.165  -2.762 -10.374  0.00  0.00    -0.507 OA
ATOM     38  H   UNL     1      -4.996  -3.243 -10.213  0.00  0.00    +0.292 HD
ENDBRANCH  20  37
ENDBRANCH  13  14
ENDBRANCH   3  13
BRANCH   1  39
ATOM     39  C   UNL     1      -0.049   3.219  -2.182  0.00  0.00    +0.197 C 
BRANCH  39  40
ATOM     40  O   UNL     1       0.120   2.338  -1.079  0.00  0.00    -0.346 OA
BRANCH  40  42
ATOM     41  C   UNL     1       1.285   0.669   0.115  0.00  0.00    +0.208 C 
ATOM     42  C   UNL     1       1.418   1.768  -0.965  0.00  0.00    +0.282 C 
ATOM     43  O   UNL     1       2.415   2.749  -0.670  0.00  0.00    -0.343 OA
ATOM     44  C   UNL     1       2.336   3.390   0.609  0.00  0.00    +0.149 C 
ATOM     45  C   UNL     1       1.307   4.523   0.616  0.00  0.00    +0.041 C 
ATOM     46  C   UNL     1       2.176   2.379   1.754  0.00  0.00    +0.174 C 
ATOM     47  C   UNL     1       1.053   1.379   1.465  0.00  0.00    +0.179 C 
BRANCH  47  48
ATOM     48  O   UNL     1       0.901   0.463   2.561  0.00  0.00    -0.386 OA
ATOM     49  H   UNL     1       1.486   0.789   3.276  0.00  0.00    +0.210 HD
ENDBRANCH  47  48
BRANCH  46  50
ATOM     50  O   UNL     1       1.933   3.001   3.023  0.00  0.00    -0.387 OA
ATOM     51  H   UNL     1       1.027   3.368   3.014  0.00  0.00    +0.210 HD
ENDBRANCH  46  50
BRANCH  41  52
ATOM     52  O   UNL     1       2.409  -0.235   0.076  0.00  0.00    -0.338 OA
BRANCH  52  56
ATOM     53  C   UNL     1       3.790  -2.675   3.225  0.00  0.00    +0.041 C 
ATOM     54  C   UNL     1       3.542  -3.235   1.815  0.00  0.00    +0.149 C 
ATOM     55  O   UNL     1       3.466  -2.190   0.820  0.00  0.00    -0.343 OA
ATOM     56  C   UNL     1       2.314  -1.345   0.982  0.00  0.00    +0.282 C 
ATOM     57  C   UNL     1       1.042  -2.204   0.784  0.00  0.00    +0.201 C 
ATOM     58  C   UNL     1       1.017  -3.330   1.814  0.00  0.00    +0.179 C 
ATOM     59  C   UNL     1       2.310  -4.157   1.753  0.00  0.00    +0.174 C 
BRANCH  59  60
ATOM     60  O   UNL     1       2.365  -5.121   2.809  0.00  0.00    -0.387 OA
ATOM     61  H   UNL     1       1.543  -5.043   3.328  0.00  0.00    +0.210 HD
ENDBRANCH  59  60
BRANCH  58  62
ATOM     62  O   UNL     1      -0.114  -4.183   1.592  0.00  0.00    -0.386 OA
ATOM     63  H   UNL     1      -0.179  -4.287   0.620  0.00  0.00    +0.210 HD
ENDBRANCH  58  62
BRANCH  57  64
ATOM     64  O   UNL     1       1.003  -2.790  -0.538  0.00  0.00    -0.384 OA
ATOM     65  H   UNL     1       1.865  -2.586  -0.957  0.00  0.00    +0.210 HD
ENDBRANCH  57  64
ENDBRANCH  52  56
ENDBRANCH  41  52
ENDBRANCH  40  42
ENDBRANCH  39  40
ENDBRANCH   1  39
TORSDOF 20
