REMARK  Name = 
REMARK  17 active torsions:
REMARK  status: ('A' for Active; 'I' for Inactive)
REMARK    1  A    between atoms: C_1  and  C_2
REMARK    2  A    between atoms: C_3  and  O_43
REMARK    3  A    between atoms: C_4  and  O_42
REMARK    4  A    between atoms: C_5  and  O_41
REMARK    5  A    between atoms: C_6  and  O_8
REMARK    6  A    between atoms: O_8  and  C_9
REMARK    7  A    between atoms: C_10  and  O_40
REMARK    8  A    between atoms: C_11  and  O_39
REMARK    9  A    between atoms: C_12  and  C_37
REMARK   10  A    between atoms: C_14  and  C_15
REMARK   11  A    between atoms: C_16  and  O_36
REMARK   12  A    between atoms: C_18  and  O_35
REMARK   13  A    between atoms: C_22  and  C_27
REMARK   14  A    between atoms: C_23  and  O_26
REMARK   15  A    between atoms: C_29  and  O_34
REMARK   16  A    between atoms: C_30  and  O_33
REMARK   17  A    between atoms: C_37  and  O_38
REMARK                            x       y       z     vdW  Elec       q    Type
REMARK                         _______ _______ _______ _____ _____    ______ ____
ROOT
ATOM      1  C   UNL     1       2.492   2.788  -3.190  0.00  0.00    +0.186 C 
ATOM      2  C   UNL     1       1.176   2.411  -3.950  0.00  0.00    +0.187 C 
ATOM      3  O   UNL     1       1.427   2.430  -5.373  0.00  0.00    -0.361 OA
ATOM      4  C   UNL     1       1.961   3.616  -5.977  0.00  0.00    +0.175 C 
ATOM      5  C   UNL     1       3.151   4.215  -5.210  0.00  0.00    +0.176 C 
ATOM      6  C   UNL     1       2.960   4.169  -3.693  0.00  0.00    +0.177 C 
ENDROOT
BRANCH   2   7
ATOM      7  C   UNL     1      -0.126   3.161  -3.549  0.00  0.00    +0.068 A 
ATOM      8  C   UNL     1      -1.289   3.129  -4.367  0.00  0.00    +0.152 A 
ATOM      9  O   UNL     1      -1.278   2.324  -5.488  0.00  0.00    -0.450 OA
ATOM     10  C   UNL     1      -2.360   2.348  -6.353  0.00  0.00    +0.181 A 
ATOM     11  C   UNL     1      -3.476   3.086  -6.186  0.00  0.00    +0.208 A 
ATOM     12  C   UNL     1      -3.567   3.943  -4.983  0.00  0.00    +0.238 A 
ATOM     13  O   UNL     1      -4.561   4.647  -4.809  0.00  0.00    -0.283 OA
ATOM     14  C   UNL     1      -2.424   3.910  -4.047  0.00  0.00    +0.110 A 
ATOM     15  C   UNL     1      -2.446   4.656  -2.863  0.00  0.00    +0.135 A 
ATOM     16  C   UNL     1      -1.368   4.625  -2.002  0.00  0.00    +0.092 A 
ATOM     17  C   UNL     1      -0.235   3.893  -2.345  0.00  0.00    +0.130 A 
BRANCH  10  18
ATOM     18  C   UNL     1      -2.240   1.468  -7.519  0.00  0.00    +0.025 A 
ATOM     19  C   UNL     1      -1.912   2.004  -8.784  0.00  0.00    +0.015 A 
ATOM     20  C   UNL     1      -1.998   1.212  -9.930  0.00  0.00    +0.050 A 
ATOM     21  C   UNL     1      -2.399  -0.111  -9.812  0.00  0.00    +0.158 A 
ATOM     22  C   UNL     1      -2.706  -0.655  -8.567  0.00  0.00    +0.159 A 
ATOM     23  C   UNL     1      -2.625   0.123  -7.417  0.00  0.00    +0.060 A 
BRANCH  22  24
ATOM     24  O   UNL     1      -3.125  -1.957  -8.531  0.00  0.00    -0.503 OA
ATOM     25  H   UNL     1      -3.322  -2.193  -7.609  0.00  0.00    +0.292 HD
ENDBRANCH  22  24
BRANCH  21  26
ATOM     26  O   UNL     1      -2.519  -0.873 -10.936  0.00  0.00    -0.503 OA
ATOM     27  H   UNL     1      -2.809  -1.752 -10.618  0.00  0.00    +0.292 HD
ENDBRANCH  21  26
ENDBRANCH  10  18
BRANCH  15  28
ATOM     28  O   UNL     1      -3.528   5.412  -2.512  0.00  0.00    -0.506 OA
ATOM     29  H   UNL     1      -3.368   5.906  -1.694  0.00  0.00    +0.292 HD
ENDBRANCH  15  28
BRANCH  17  30
ATOM     30  O   UNL     1       0.761   3.908  -1.415  0.00  0.00    -0.506 OA
ATOM     31  H   UNL     1       0.869   4.807  -1.057  0.00  0.00    +0.292 HD
ENDBRANCH  17  30
BRANCH  11  32
ATOM     32  O   UNL     1      -4.553   3.097  -7.060  0.00  0.00    -0.501 OA
ATOM     33  H   UNL     1      -4.376   2.518  -7.811  0.00  0.00    +0.292 HD
ENDBRANCH  11  32
ENDBRANCH   2   7
BRANCH   6  34
ATOM     34  O   UNL     1       4.144   4.648  -3.033  0.00  0.00    -0.386 OA
ATOM     35  H   UNL     1       4.885   4.599  -3.672  0.00  0.00    +0.210 HD
ENDBRANCH   6  34
BRANCH   5  36
ATOM     36  O   UNL     1       3.422   5.569  -5.620  0.00  0.00    -0.386 OA
ATOM     37  H   UNL     1       3.217   6.170  -4.879  0.00  0.00    +0.210 HD
ENDBRANCH   5  36
BRANCH   4  38
ATOM     38  C   UNL     1       0.854   4.619  -6.359  0.00  0.00    +0.190 C 
BRANCH  38  39
ATOM     39  O   UNL     1       1.296   5.665  -7.217  0.00  0.00    -0.392 OA
ATOM     40  H   UNL     1       2.136   6.009  -6.854  0.00  0.00    +0.210 HD
ENDBRANCH  38  39
ENDBRANCH   4  38
BRANCH   1  41
ATOM     41  O   UNL     1       3.485   1.739  -3.246  0.00  0.00    -0.340 OA
BRANCH  41  45
ATOM     42  C   UNL     1       7.548   2.009  -2.302  0.00  0.00    +0.041 C 
ATOM     43  C   UNL     1       6.667   0.923  -1.665  0.00  0.00    +0.149 C 
ATOM     44  O   UNL     1       5.429   0.753  -2.383  0.00  0.00    -0.343 OA
ATOM     45  C   UNL     1       4.568   1.900  -2.304  0.00  0.00    +0.282 C 
ATOM     46  C   UNL     1       4.165   2.107  -0.811  0.00  0.00    +0.201 C 
ATOM     47  C   UNL     1       5.426   2.315   0.035  0.00  0.00    +0.179 C 
ATOM     48  C   UNL     1       6.419   1.163  -0.164  0.00  0.00    +0.174 C 
BRANCH  48  49
ATOM     49  O   UNL     1       7.660   1.423   0.500  0.00  0.00    -0.387 OA
ATOM     50  H   UNL     1       7.570   2.262   0.989  0.00  0.00    +0.210 HD
ENDBRANCH  48  49
BRANCH  47  51
ATOM     51  O   UNL     1       5.086   2.430   1.424  0.00  0.00    -0.386 OA
ATOM     52  H   UNL     1       4.395   1.754   1.586  0.00  0.00    +0.210 HD
ENDBRANCH  47  51
BRANCH  46  53
ATOM     53  O   UNL     1       3.444   0.978  -0.276  0.00  0.00    -0.384 OA
ATOM     54  H   UNL     1       3.431   0.293  -0.973  0.00  0.00    +0.210 HD
ENDBRANCH  46  53
ENDBRANCH  41  45
ENDBRANCH   1  41
TORSDOF 16
