REMARK  Name = 
REMARK  24 active torsions:
REMARK  status: ('A' for Active; 'I' for Inactive)
REMARK    1  A    between atoms: C_3  and  O_44
REMARK    2  A    between atoms: C_4  and  O_43
REMARK    3  A    between atoms: C_6  and  C_7
REMARK    4  A    between atoms: C_8  and  O_31
REMARK    5  A    between atoms: C_12  and  O_30
REMARK    6  A    between atoms: C_14  and  O_18
REMARK    7  A    between atoms: O_18  and  C_19
REMARK    8  A    between atoms: C_20  and  O_29
REMARK    9  A    between atoms: C_21  and  O_28
REMARK   10  A    between atoms: C_22  and  O_27
REMARK   11  A    between atoms: C_23  and  C_25
REMARK   12  A    between atoms: C_25  and  O_26
REMARK   13  A    between atoms: O_31  and  C_32
REMARK   14  A    between atoms: C_33  and  O_42
REMARK   15  A    between atoms: C_34  and  O_41
REMARK   16  A    between atoms: C_35  and  O_40
REMARK   17  A    between atoms: C_36  and  C_38
REMARK   18  A    between atoms: C_38  and  O_39
REMARK   19  A    between atoms: O_44  and  C_45
REMARK   20  A    between atoms: C_46  and  O_55
REMARK   21  A    between atoms: C_47  and  O_54
REMARK   22  A    between atoms: C_48  and  O_53
REMARK   23  A    between atoms: C_49  and  C_51
REMARK   24  A    between atoms: C_51  and  O_52
REMARK                            x       y       z     vdW  Elec       q    Type
REMARK                         _______ _______ _______ _____ _____    ______ ____
ROOT
ATOM      1  C   UNL     1      -1.188  -2.676   0.266  0.00  0.00    +0.181 A 
ATOM      2  O   UNL     1      -0.497  -3.861   0.438  0.00  0.00    -0.451 OA
ATOM      3  C   UNL     1      -1.147  -5.041   0.144  0.00  0.00    +0.147 A 
ATOM      4  C   UNL     1      -2.479  -5.108  -0.238  0.00  0.00    +0.109 A 
ATOM      5  C   UNL     1      -3.041  -6.381  -0.485  0.00  0.00    +0.135 A 
ATOM      6  C   UNL     1      -2.262  -7.543  -0.441  0.00  0.00    +0.092 A 
ATOM      7  C   UNL     1      -0.906  -7.455  -0.144  0.00  0.00    +0.131 A 
ATOM      8  C   UNL     1      -3.207  -3.836  -0.408  0.00  0.00    +0.238 A 
ATOM      9  O   UNL     1      -4.392  -3.837  -0.719  0.00  0.00    -0.283 OA
ATOM     10  C   UNL     1      -0.375  -6.209   0.227  0.00  0.00    +0.093 A 
ATOM     11  C   UNL     1      -2.447  -2.562  -0.177  0.00  0.00    +0.214 A 
ENDROOT
BRANCH   1  13
ATOM     12  C   UNL     1      -0.787  -0.717   1.759  0.00  0.00    +0.015 A 
ATOM     13  C   UNL     1      -0.441  -1.445   0.610  0.00  0.00    +0.025 A 
ATOM     14  C   UNL     1       0.476  -0.886  -0.280  0.00  0.00    +0.060 A 
ATOM     15  C   UNL     1       0.938   0.422  -0.084  0.00  0.00    +0.159 A 
ATOM     16  C   UNL     1       0.472   1.215   0.975  0.00  0.00    +0.165 A 
ATOM     17  C   UNL     1      -0.334   0.599   1.935  0.00  0.00    +0.050 A 
BRANCH  15  18
ATOM     18  O   UNL     1       1.846   0.910  -0.981  0.00  0.00    -0.503 OA
ATOM     19  H   UNL     1       2.160   1.753  -0.603  0.00  0.00    +0.292 HD
ENDBRANCH  15  18
BRANCH  16  20
ATOM     20  O   UNL     1       0.836   2.554   1.000  0.00  0.00    -0.457 OA
BRANCH  20  21
ATOM     21  C   UNL     1      -0.195   3.446   1.506  0.00  0.00    +0.339 C 
ATOM     22  O   UNL     1      -0.457   4.534   0.597  0.00  0.00    -0.331 OA
ATOM     23  C   UNL     1       0.105   5.817   0.895  0.00  0.00    +0.179 C 
ATOM     24  C   UNL     1      -0.223   6.234   2.333  0.00  0.00    +0.177 C 
ATOM     25  C   UNL     1       0.481   5.263   3.256  0.00  0.00    +0.180 C 
ATOM     26  C   UNL     1       0.004   3.832   3.006  0.00  0.00    +0.214 C 
BRANCH  26  27
ATOM     27  O   UNL     1       0.865   2.921   3.710  0.00  0.00    -0.383 OA
ATOM     28  H   UNL     1       1.246   3.417   4.460  0.00  0.00    +0.210 HD
ENDBRANCH  26  27
BRANCH  25  29
ATOM     29  O   UNL     1       0.186   5.605   4.624  0.00  0.00    -0.386 OA
ATOM     30  H   UNL     1      -0.758   5.877   4.622  0.00  0.00    +0.210 HD
ENDBRANCH  25  29
BRANCH  24  31
ATOM     31  O   UNL     1      -1.628   6.152   2.634  0.00  0.00    -0.386 OA
ATOM     32  H   UNL     1      -2.105   6.360   1.800  0.00  0.00    +0.210 HD
ENDBRANCH  24  31
BRANCH  23  33
ATOM     33  C   UNL     1      -0.485   6.837  -0.091  0.00  0.00    +0.190 C 
BRANCH  33  34
ATOM     34  O   UNL     1      -1.912   6.865   0.028  0.00  0.00    -0.392 OA
ATOM     35  H   UNL     1      -2.224   6.075  -0.459  0.00  0.00    +0.210 HD
ENDBRANCH  33  34
ENDBRANCH  23  33
ENDBRANCH  20  21
ENDBRANCH  16  20
ENDBRANCH   1  13
BRANCH   5  36
ATOM     36  O   UNL     1      -4.366  -6.562  -0.802  0.00  0.00    -0.506 OA
ATOM     37  H   UNL     1      -4.823  -5.688  -0.766  0.00  0.00    +0.292 HD
ENDBRANCH   5  36
BRANCH  11  38
ATOM     38  O   UNL     1      -3.099  -1.331  -0.166  0.00  0.00    -0.453 OA
BRANCH  38  39
ATOM     39  C   UNL     1      -3.471  -0.721  -1.410  0.00  0.00    +0.340 C 
ATOM     40  O   UNL     1      -2.931   0.611  -1.533  0.00  0.00    -0.331 OA
ATOM     41  C   UNL     1      -3.488   1.662  -0.705  0.00  0.00    +0.179 C 
ATOM     42  C   UNL     1      -4.893   1.448  -0.072  0.00  0.00    +0.177 C 
ATOM     43  C   UNL     1      -5.434   0.013  -0.139  0.00  0.00    +0.180 C 
ATOM     44  C   UNL     1      -5.000  -0.596  -1.483  0.00  0.00    +0.214 C 
BRANCH  44  45
ATOM     45  O   UNL     1      -5.668  -1.808  -1.809  0.00  0.00    -0.383 OA
ATOM     46  H   UNL     1      -5.199  -2.566  -1.405  0.00  0.00    +0.210 HD
ENDBRANCH  44  45
BRANCH  43  47
ATOM     47  O   UNL     1      -6.861   0.042  -0.010  0.00  0.00    -0.386 OA
ATOM     48  H   UNL     1      -7.082   0.731   0.644  0.00  0.00    +0.210 HD
ENDBRANCH  43  47
BRANCH  42  49
ATOM     49  O   UNL     1      -5.879   2.324  -0.661  0.00  0.00    -0.386 OA
ATOM     50  H   UNL     1      -6.444   1.788  -1.255  0.00  0.00    +0.210 HD
ENDBRANCH  42  49
BRANCH  41  51
ATOM     51  C   UNL     1      -3.484   2.957  -1.560  0.00  0.00    +0.190 C 
BRANCH  51  52
ATOM     52  O   UNL     1      -2.186   3.252  -2.070  0.00  0.00    -0.392 OA
ATOM     53  H   UNL     1      -1.756   2.391  -2.232  0.00  0.00    +0.210 HD
ENDBRANCH  51  52
ENDBRANCH  41  51
ENDBRANCH  38  39
ENDBRANCH  11  38
BRANCH   7  54
ATOM     54  O   UNL     1      -0.150  -8.615  -0.281  0.00  0.00    -0.461 OA
BRANCH  54  55
ATOM     55  C   UNL     1       1.251  -8.364  -0.521  0.00  0.00    +0.339 C 
ATOM     56  O   UNL     1       1.428  -7.513  -1.668  0.00  0.00    -0.331 OA
ATOM     57  C   UNL     1       1.128  -8.204  -2.895  0.00  0.00    +0.179 C 
ATOM     58  C   UNL     1       2.310  -9.147  -3.126  0.00  0.00    +0.177 C 
ATOM     59  C   UNL     1       2.268 -10.217  -2.033  0.00  0.00    +0.180 C 
ATOM     60  C   UNL     1       2.163  -9.621  -0.623  0.00  0.00    +0.214 C 
BRANCH  60  61
ATOM     61  O   UNL     1       1.810 -10.611   0.348  0.00  0.00    -0.383 OA
ATOM     62  H   UNL     1       1.882 -11.486  -0.076  0.00  0.00    +0.210 HD
ENDBRANCH  60  61
BRANCH  59  63
ATOM     63  O   UNL     1       3.474 -11.006  -2.121  0.00  0.00    -0.386 OA
ATOM     64  H   UNL     1       4.197 -10.374  -2.319  0.00  0.00    +0.210 HD
ENDBRANCH  59  63
BRANCH  58  65
ATOM     65  O   UNL     1       3.559  -8.426  -3.022  0.00  0.00    -0.386 OA
ATOM     66  H   UNL     1       3.372  -7.617  -2.494  0.00  0.00    +0.210 HD
ENDBRANCH  58  65
BRANCH  57  67
ATOM     67  C   UNL     1       0.953  -7.177  -4.018  0.00  0.00    +0.190 C 
BRANCH  67  68
ATOM     68  O   UNL     1      -0.263  -6.444  -3.845  0.00  0.00    -0.392 OA
ATOM     69  H   UNL     1      -1.004  -7.075  -3.843  0.00  0.00    +0.210 HD
ENDBRANCH  67  68
ENDBRANCH  57  67
ENDBRANCH  54  55
ENDBRANCH   7  54
TORSDOF 24
