REMARK  Name = 
REMARK  16 active torsions:
REMARK  status: ('A' for Active; 'I' for Inactive)
REMARK    1  A    between atoms: C_2  and  O_42
REMARK    2  A    between atoms: C_3  and  O_41
REMARK    3  A    between atoms: C_4  and  O_40
REMARK    4  A    between atoms: C_5  and  O_7
REMARK    5  A    between atoms: O_7  and  C_8
REMARK    6  A    between atoms: C_10  and  O_39
REMARK    7  A    between atoms: C_15  and  C_31
REMARK    8  A    between atoms: C_16  and  O_19
REMARK    9  A    between atoms: O_19  and  C_20
REMARK   10  A    between atoms: C_21  and  O_30
REMARK   11  A    between atoms: C_22  and  O_29
REMARK   12  A    between atoms: C_23  and  O_28
REMARK   13  A    between atoms: C_24  and  C_26
REMARK   14  A    between atoms: C_26  and  O_27
REMARK   15  A    between atoms: C_33  and  O_38
REMARK   16  A    between atoms: C_34  and  O_37
REMARK                            x       y       z     vdW  Elec       q    Type
REMARK                         _______ _______ _______ _____ _____    ______ ____
ROOT
ATOM      1  C   UNL     1       2.656  -2.530   0.011  0.00  0.00    +0.131 A 
ATOM      2  C   UNL     1       3.610  -1.568  -0.330  0.00  0.00    +0.093 A 
ATOM      3  C   UNL     1       4.867  -1.971  -0.790  0.00  0.00    +0.147 A 
ATOM      4  O   UNL     1       5.747  -0.987  -1.171  0.00  0.00    -0.451 OA
ATOM      5  C   UNL     1       7.083  -1.332  -1.387  0.00  0.00    +0.181 A 
ATOM      6  C   UNL     1       7.525  -2.610  -1.436  0.00  0.00    +0.214 A 
ATOM      7  C   UNL     1       6.478  -3.671  -1.472  0.00  0.00    +0.238 A 
ATOM      8  O   UNL     1       6.658  -4.743  -2.034  0.00  0.00    -0.283 OA
ATOM      9  C   UNL     1       5.178  -3.323  -0.885  0.00  0.00    +0.109 A 
ATOM     10  C   UNL     1       4.249  -4.281  -0.475  0.00  0.00    +0.135 A 
ATOM     11  C   UNL     1       2.988  -3.885  -0.035  0.00  0.00    +0.092 A 
ENDROOT
BRANCH   5  12
ATOM     12  C   UNL     1       7.955  -0.132  -1.588  0.00  0.00    +0.025 A 
ATOM     13  C   UNL     1       7.706   1.048  -0.864  0.00  0.00    +0.015 A 
ATOM     14  C   UNL     1       8.431   2.226  -1.105  0.00  0.00    +0.050 A 
ATOM     15  C   UNL     1       9.420   2.226  -2.073  0.00  0.00    +0.158 A 
ATOM     16  C   UNL     1       9.688   1.075  -2.804  0.00  0.00    +0.159 A 
ATOM     17  C   UNL     1       8.957  -0.094  -2.580  0.00  0.00    +0.060 A 
BRANCH  15  18
ATOM     18  O   UNL     1      10.118   3.375  -2.314  0.00  0.00    -0.503 OA
ATOM     19  H   UNL     1      10.738   3.146  -3.036  0.00  0.00    +0.292 HD
ENDBRANCH  15  18
BRANCH  16  20
ATOM     20  O   UNL     1      10.672   1.144  -3.751  0.00  0.00    -0.503 OA
ATOM     21  H   UNL     1      10.755   0.266  -4.175  0.00  0.00    +0.292 HD
ENDBRANCH  16  20
ENDBRANCH   5  12
BRANCH  10  22
ATOM     22  O   UNL     1       4.558  -5.610  -0.504  0.00  0.00    -0.506 OA
ATOM     23  H   UNL     1       3.767  -6.153  -0.353  0.00  0.00    +0.292 HD
ENDBRANCH  10  22
BRANCH   6  24
ATOM     24  O   UNL     1       8.872  -2.898  -1.467  0.00  0.00    -0.453 OA
BRANCH  24  25
ATOM     25  C   UNL     1       9.341  -4.211  -1.821  0.00  0.00    +0.340 C 
ATOM     26  O   UNL     1       9.154  -5.207  -0.798  0.00  0.00    -0.331 OA
ATOM     27  C   UNL     1       9.832  -4.972   0.448  0.00  0.00    +0.179 C 
ATOM     28  C   UNL     1      11.339  -4.769   0.210  0.00  0.00    +0.177 C 
ATOM     29  C   UNL     1      11.549  -3.663  -0.826  0.00  0.00    +0.180 C 
ATOM     30  C   UNL     1      10.840  -4.042  -2.135  0.00  0.00    +0.214 C 
BRANCH  28  31
ATOM     31  O   UNL     1      11.966  -5.969  -0.281  0.00  0.00    -0.386 OA
ATOM     32  H   UNL     1      11.295  -6.492  -0.762  0.00  0.00    +0.210 HD
ENDBRANCH  28  31
BRANCH  29  33
ATOM     33  O   UNL     1      12.940  -3.449  -1.088  0.00  0.00    -0.386 OA
ATOM     34  H   UNL     1      13.331  -4.334  -1.226  0.00  0.00    +0.210 HD
ENDBRANCH  29  33
BRANCH  30  35
ATOM     35  O   UNL     1      11.056  -3.036  -3.139  0.00  0.00    -0.383 OA
ATOM     36  H   UNL     1      11.695  -2.405  -2.754  0.00  0.00    +0.210 HD
ENDBRANCH  30  35
BRANCH  27  37
ATOM     37  C   UNL     1       9.601  -6.189   1.373  0.00  0.00    +0.190 C 
BRANCH  37  38
ATOM     38  O   UNL     1       8.242  -6.361   1.769  0.00  0.00    -0.392 OA
ATOM     39  H   UNL     1       7.733  -5.574   1.516  0.00  0.00    +0.210 HD
ENDBRANCH  37  38
ENDBRANCH  27  37
ENDBRANCH  24  25
ENDBRANCH   6  24
BRANCH   1  40
ATOM     40  O   UNL     1       1.379  -2.275   0.427  0.00  0.00    -0.461 OA
BRANCH  40  43
ATOM     41  C   UNL     1       0.411   1.211   0.279  0.00  0.00    +0.198 C 
ATOM     42  O   UNL     1       0.989   0.004   0.772  0.00  0.00    -0.337 OA
ATOM     43  C   UNL     1       0.762  -1.100  -0.110  0.00  0.00    +0.339 C 
ATOM     44  C   UNL     1      -0.757  -1.372  -0.199  0.00  0.00    +0.214 C 
ATOM     45  C   UNL     1      -1.456  -0.122  -0.737  0.00  0.00    +0.180 C 
ATOM     46  C   UNL     1      -1.105   1.109   0.115  0.00  0.00    +0.171 C 
BRANCH  46  47
ATOM     47  O   UNL     1      -1.573   2.310  -0.501  0.00  0.00    -0.387 OA
ATOM     48  H   UNL     1      -2.238   2.059  -1.169  0.00  0.00    +0.210 HD
ENDBRANCH  46  47
BRANCH  45  49
ATOM     49  O   UNL     1      -2.877  -0.305  -0.740  0.00  0.00    -0.386 OA
ATOM     50  H   UNL     1      -3.085  -0.783   0.091  0.00  0.00    +0.210 HD
ENDBRANCH  45  49
BRANCH  44  51
ATOM     51  O   UNL     1      -1.332  -1.667   1.093  0.00  0.00    -0.383 OA
ATOM     52  H   UNL     1      -0.616  -1.554   1.751  0.00  0.00    +0.210 HD
ENDBRANCH  44  51
ENDBRANCH  40  43
ENDBRANCH   1  40
TORSDOF 16
