REMARK  Name = 
REMARK  18 active torsions:
REMARK  status: ('A' for Active; 'I' for Inactive)
REMARK    1  A    between atoms: C_1  and  C_2
REMARK    2  A    between atoms: C_3  and  O_45
REMARK    3  A    between atoms: C_4  and  O_44
REMARK    4  A    between atoms: C_5  and  O_43
REMARK    5  A    between atoms: C_6  and  O_8
REMARK    6  A    between atoms: O_8  and  C_9
REMARK    7  A    between atoms: C_11  and  O_42
REMARK    8  A    between atoms: C_16  and  C_34
REMARK    9  A    between atoms: C_17  and  O_20
REMARK   10  A    between atoms: O_20  and  C_21
REMARK   11  A    between atoms: C_22  and  O_33
REMARK   12  A    between atoms: C_23  and  O_32
REMARK   13  A    between atoms: C_24  and  O_28
REMARK   14  A    between atoms: C_25  and  C_27
REMARK   15  A    between atoms: O_28  and  C_29
REMARK   16  A    between atoms: C_29  and  C_31
REMARK   17  A    between atoms: C_36  and  O_41
REMARK   18  A    between atoms: C_37  and  O_40
REMARK                            x       y       z     vdW  Elec       q    Type
REMARK                         _______ _______ _______ _____ _____    ______ ____
ROOT
ATOM      1  C   UNL     1       2.601   2.816  -3.148  0.00  0.00    +0.131 A 
ATOM      2  C   UNL     1       1.367   3.341  -2.739  0.00  0.00    +0.093 A 
ATOM      3  C   UNL     1       1.183   4.733  -2.651  0.00  0.00    +0.147 A 
ATOM      4  O   UNL     1      -0.039   5.212  -2.232  0.00  0.00    -0.451 OA
ATOM      5  C   UNL     1      -0.308   6.594  -2.293  0.00  0.00    +0.181 A 
ATOM      6  C   UNL     1       0.659   7.516  -2.538  0.00  0.00    +0.214 A 
ATOM      7  C   UNL     1       2.060   7.005  -2.707  0.00  0.00    +0.238 A 
ATOM      8  O   UNL     1       3.053   7.713  -2.593  0.00  0.00    -0.283 OA
ATOM      9  C   UNL     1       2.236   5.578  -2.965  0.00  0.00    +0.109 A 
ATOM     10  C   UNL     1       3.447   5.055  -3.434  0.00  0.00    +0.135 A 
ATOM     11  C   UNL     1       3.629   3.680  -3.518  0.00  0.00    +0.092 A 
ENDROOT
BRANCH   5  12
ATOM     12  C   UNL     1      -1.767   6.919  -2.033  0.00  0.00    +0.025 A 
ATOM     13  C   UNL     1      -2.288   8.234  -2.014  0.00  0.00    +0.015 A 
ATOM     14  C   UNL     1      -3.638   8.518  -1.782  0.00  0.00    +0.050 A 
ATOM     15  C   UNL     1      -4.516   7.487  -1.557  0.00  0.00    +0.158 A 
ATOM     16  C   UNL     1      -4.056   6.174  -1.556  0.00  0.00    +0.159 A 
ATOM     17  C   UNL     1      -2.705   5.885  -1.790  0.00  0.00    +0.060 A 
BRANCH  15  18
ATOM     18  O   UNL     1      -5.825   7.768  -1.344  0.00  0.00    -0.503 OA
ATOM     19  H   UNL     1      -6.253   6.898  -1.221  0.00  0.00    +0.292 HD
ENDBRANCH  15  18
BRANCH  16  20
ATOM     20  O   UNL     1      -4.983   5.198  -1.311  0.00  0.00    -0.503 OA
ATOM     21  H   UNL     1      -4.526   4.343  -1.266  0.00  0.00    +0.292 HD
ENDBRANCH  16  20
ENDBRANCH   5  12
BRANCH  10  22
ATOM     22  O   UNL     1       4.459   5.874  -3.849  0.00  0.00    -0.506 OA
ATOM     23  H   UNL     1       5.295   5.382  -3.895  0.00  0.00    +0.292 HD
ENDBRANCH  10  22
BRANCH   1  24
ATOM     24  O   UNL     1       2.968   1.500  -3.236  0.00  0.00    -0.461 OA
BRANCH  24  28
ATOM     25  C   UNL     1      -0.676  -0.155  -1.720  0.00  0.00    +0.041 C 
ATOM     26  C   UNL     1       0.699  -0.401  -1.092  0.00  0.00    +0.150 C 
ATOM     27  O   UNL     1       1.647   0.586  -1.517  0.00  0.00    -0.334 OA
ATOM     28  C   UNL     1       2.019   0.492  -2.896  0.00  0.00    +0.339 C 
ATOM     29  C   UNL     1       2.692  -0.880  -3.143  0.00  0.00    +0.214 C 
ATOM     30  C   UNL     1       1.711  -1.995  -2.772  0.00  0.00    +0.180 C 
ATOM     31  C   UNL     1       1.227  -1.826  -1.321  0.00  0.00    +0.174 C 
BRANCH  29  32
ATOM     32  O   UNL     1       3.874  -1.060  -2.331  0.00  0.00    -0.383 OA
ATOM     33  H   UNL     1       3.897  -0.319  -1.693  0.00  0.00    +0.210 HD
ENDBRANCH  29  32
BRANCH  30  34
ATOM     34  O   UNL     1       2.330  -3.279  -2.919  0.00  0.00    -0.386 OA
ATOM     35  H   UNL     1       3.236  -3.182  -2.558  0.00  0.00    +0.210 HD
ENDBRANCH  30  34
BRANCH  31  36
ATOM     36  O   UNL     1       0.212  -2.774  -0.985  0.00  0.00    -0.387 OA
ATOM     37  H   UNL     1       0.120  -3.392  -1.733  0.00  0.00    +0.210 HD
ENDBRANCH  31  36
ENDBRANCH  24  28
ENDBRANCH   1  24
BRANCH   6  38
ATOM     38  O   UNL     1       0.372   8.877  -2.633  0.00  0.00    -0.453 OA
BRANCH  38  39
ATOM     39  C   UNL     1       1.436   9.822  -2.475  0.00  0.00    +0.340 C 
ATOM     40  O   UNL     1       1.997   9.747  -1.164  0.00  0.00    -0.333 OA
ATOM     41  C   UNL     1       1.179  10.288  -0.125  0.00  0.00    +0.163 C 
ATOM     42  C   UNL     1       1.877   9.979   1.192  0.00  0.00    +0.042 C 
ATOM     43  C   UNL     1       0.991  11.789  -0.368  0.00  0.00    +0.236 C 
ATOM     44  C   UNL     1       0.209  11.936  -1.678  0.00  0.00    +0.192 C 
ATOM     45  C   UNL     1       0.958  11.254  -2.834  0.00  0.00    +0.215 C 
BRANCH  44  46
ATOM     46  O   UNL     1      -0.014  13.325  -1.966  0.00  0.00    -0.385 OA
ATOM     47  H   UNL     1       0.832  13.706  -2.264  0.00  0.00    +0.210 HD
ENDBRANCH  44  46
BRANCH  45  48
ATOM     48  O   UNL     1       0.171  11.277  -4.034  0.00  0.00    -0.383 OA
ATOM     49  H   UNL     1      -0.648  10.780  -3.858  0.00  0.00    +0.210 HD
ENDBRANCH  45  48
BRANCH  43  50
ATOM     50  O   UNL     1       2.292  12.406  -0.562  0.00  0.00    -0.456 OA
BRANCH  50  51
ATOM     51  C   UNL     1       2.701  13.335   0.333  0.00  0.00    +0.304 C 
ATOM     52  C   UNL     1       4.095  13.786   0.011  0.00  0.00    +0.136 C 
ATOM     53  O   UNL     1       2.057  13.727   1.295  0.00  0.00    -0.251 OA
ENDBRANCH  50  51
ENDBRANCH  43  50
ENDBRANCH  38  39
ENDBRANCH   6  38
TORSDOF 15
