REMARK  Name = 
REMARK  28 active torsions:
REMARK  status: ('A' for Active; 'I' for Inactive)
REMARK    1  A    between atoms: C_1  and  C_2
REMARK    2  A    between atoms: C_3  and  O_64
REMARK    3  A    between atoms: C_4  and  O_63
REMARK    4  A    between atoms: C_5  and  O_62
REMARK    5  A    between atoms: C_6  and  O_8
REMARK    6  A    between atoms: O_8  and  C_9
REMARK    7  A    between atoms: C_9  and  C_10
REMARK    8  A    between atoms: C_11  and  O_61
REMARK    9  A    between atoms: C_12  and  O_60
REMARK   10  A    between atoms: C_13  and  O_59
REMARK   11  A    between atoms: C_14  and  O_16
REMARK   12  A    between atoms: O_16  and  C_17
REMARK   13  A    between atoms: C_19  and  O_58
REMARK   14  A    between atoms: C_24  and  C_50
REMARK   15  A    between atoms: C_25  and  O_28
REMARK   16  A    between atoms: O_28  and  C_29
REMARK   17  A    between atoms: C_30  and  O_49
REMARK   18  A    between atoms: C_31  and  O_48
REMARK   19  A    between atoms: C_32  and  O_36
REMARK   20  A    between atoms: C_33  and  C_35
REMARK   21  A    between atoms: O_36  and  C_37
REMARK   22  A    between atoms: C_38  and  O_47
REMARK   23  A    between atoms: C_39  and  O_46
REMARK   24  A    between atoms: C_40  and  O_45
REMARK   25  A    between atoms: C_41  and  C_43
REMARK   26  A    between atoms: C_43  and  O_44
REMARK   27  A    between atoms: C_52  and  O_57
REMARK   28  A    between atoms: C_53  and  O_56
REMARK                            x       y       z     vdW  Elec       q    Type
REMARK                         _______ _______ _______ _____ _____    ______ ____
ROOT
ATOM      1  C   UNL     1       4.091   6.976  -0.983  0.00  0.00    +0.131 A 
ATOM      2  C   UNL     1       4.699   8.071  -0.339  0.00  0.00    +0.093 A 
ATOM      3  C   UNL     1       5.373   7.892   0.878  0.00  0.00    +0.147 A 
ATOM      4  O   UNL     1       5.964   8.968   1.515  0.00  0.00    -0.451 OA
ATOM      5  C   UNL     1       6.787   8.713   2.637  0.00  0.00    +0.181 A 
ATOM      6  C   UNL     1       6.853   7.509   3.262  0.00  0.00    +0.214 A 
ATOM      7  C   UNL     1       5.837   6.525   2.830  0.00  0.00    +0.238 A 
ATOM      8  O   UNL     1       5.288   5.763   3.616  0.00  0.00    -0.283 OA
ATOM      9  C   UNL     1       5.395   6.624   1.444  0.00  0.00    +0.109 A 
ATOM     10  C   UNL     1       4.914   5.514   0.753  0.00  0.00    +0.135 A 
ATOM     11  C   UNL     1       4.280   5.683  -0.468  0.00  0.00    +0.092 A 
ENDROOT
BRANCH   5  12
ATOM     12  C   UNL     1       7.533   9.908   3.136  0.00  0.00    +0.025 A 
ATOM     13  C   UNL     1       8.091  10.871   2.266  0.00  0.00    +0.015 A 
ATOM     14  C   UNL     1       8.781  11.981   2.770  0.00  0.00    +0.050 A 
ATOM     15  C   UNL     1       8.920  12.148   4.137  0.00  0.00    +0.158 A 
ATOM     16  C   UNL     1       8.365  11.227   5.012  0.00  0.00    +0.159 A 
ATOM     17  C   UNL     1       7.663  10.129   4.525  0.00  0.00    +0.060 A 
BRANCH  16  18
ATOM     18  O   UNL     1       8.534  11.435   6.354  0.00  0.00    -0.503 OA
ATOM     19  H   UNL     1       8.078  10.718   6.830  0.00  0.00    +0.292 HD
ENDBRANCH  16  18
BRANCH  15  20
ATOM     20  O   UNL     1       9.602  13.223   4.631  0.00  0.00    -0.503 OA
ATOM     21  H   UNL     1       9.558  13.121   5.608  0.00  0.00    +0.292 HD
ENDBRANCH  15  20
ENDBRANCH   5  12
BRANCH  10  22
ATOM     22  O   UNL     1       5.075   4.265   1.263  0.00  0.00    -0.506 OA
ATOM     23  H   UNL     1       4.771   3.581   0.644  0.00  0.00    +0.292 HD
ENDBRANCH  10  22
BRANCH   6  24
ATOM     24  O   UNL     1       7.701   7.242   4.334  0.00  0.00    -0.453 OA
BRANCH  24  25
ATOM     25  C   UNL     1       8.018   5.862   4.627  0.00  0.00    +0.339 C 
ATOM     26  O   UNL     1       8.502   5.729   5.979  0.00  0.00    -0.334 OA
ATOM     27  C   UNL     1       9.739   6.400   6.232  0.00  0.00    +0.151 C 
ATOM     28  C   UNL     1      10.044   6.242   7.718  0.00  0.00    +0.041 C 
ATOM     29  C   UNL     1      10.898   5.924   5.309  0.00  0.00    +0.181 C 
ATOM     30  C   UNL     1      10.396   6.016   3.849  0.00  0.00    +0.180 C 
ATOM     31  C   UNL     1       9.067   5.281   3.661  0.00  0.00    +0.214 C 
BRANCH  31  32
ATOM     32  O   UNL     1       8.675   5.358   2.280  0.00  0.00    -0.383 OA
ATOM     33  H   UNL     1       9.054   6.178   1.911  0.00  0.00    +0.210 HD
ENDBRANCH  31  32
BRANCH  30  34
ATOM     34  O   UNL     1      11.332   5.585   2.857  0.00  0.00    -0.386 OA
ATOM     35  H   UNL     1      11.027   4.719   2.520  0.00  0.00    +0.210 HD
ENDBRANCH  30  34
BRANCH  29  36
ATOM     36  O   UNL     1      11.425   4.637   5.717  0.00  0.00    -0.340 OA
BRANCH  36  37
ATOM     37  C   UNL     1      12.637   4.213   5.064  0.00  0.00    +0.282 C 
ATOM     38  O   UNL     1      12.881   2.804   5.286  0.00  0.00    -0.341 OA
ATOM     39  C   UNL     1      13.415   2.459   6.573  0.00  0.00    +0.178 C 
ATOM     40  C   UNL     1      14.747   3.189   6.795  0.00  0.00    +0.177 C 
ATOM     41  C   UNL     1      14.488   4.693   6.720  0.00  0.00    +0.179 C 
ATOM     42  C   UNL     1      13.913   5.053   5.349  0.00  0.00    +0.201 C 
BRANCH  42  43
ATOM     43  O   UNL     1      13.752   6.467   5.227  0.00  0.00    -0.384 OA
ATOM     44  H   UNL     1      13.763   6.842   6.127  0.00  0.00    +0.210 HD
ENDBRANCH  42  43
BRANCH  41  45
ATOM     45  O   UNL     1      15.698   5.428   6.940  0.00  0.00    -0.386 OA
ATOM     46  H   UNL     1      16.348   5.096   6.290  0.00  0.00    +0.210 HD
ENDBRANCH  41  45
BRANCH  40  47
ATOM     47  O   UNL     1      15.713   2.824   5.789  0.00  0.00    -0.386 OA
ATOM     48  H   UNL     1      15.229   2.621   4.964  0.00  0.00    +0.210 HD
ENDBRANCH  40  47
BRANCH  39  49
ATOM     49  C   UNL     1      13.604   0.933   6.617  0.00  0.00    +0.190 C 
BRANCH  49  50
ATOM     50  O   UNL     1      14.114   0.501   7.872  0.00  0.00    -0.392 OA
ATOM     51  H   UNL     1      15.084   0.593   7.844  0.00  0.00    +0.210 HD
ENDBRANCH  49  50
ENDBRANCH  39  49
ENDBRANCH  36  37
ENDBRANCH  29  36
ENDBRANCH  24  25
ENDBRANCH   6  24
BRANCH   1  52
ATOM     52  O   UNL     1       3.341   7.218  -2.104  0.00  0.00    -0.461 OA
BRANCH  52  55
ATOM     53  C   UNL     1       1.724   4.172  -3.470  0.00  0.00    +0.179 C 
ATOM     54  O   UNL     1       2.730   5.153  -3.126  0.00  0.00    -0.331 OA
ATOM     55  C   UNL     1       2.259   6.275  -2.355  0.00  0.00    +0.339 C 
ATOM     56  C   UNL     1       1.137   7.005  -3.127  0.00  0.00    +0.214 C 
ATOM     57  C   UNL     1       0.008   6.015  -3.457  0.00  0.00    +0.180 C 
ATOM     58  C   UNL     1       0.574   4.832  -4.262  0.00  0.00    +0.177 C 
BRANCH  57  59
ATOM     59  O   UNL     1      -1.020   6.680  -4.195  0.00  0.00    -0.386 OA
ATOM     60  H   UNL     1      -0.568   7.157  -4.919  0.00  0.00    +0.210 HD
ENDBRANCH  57  59
BRANCH  56  61
ATOM     61  O   UNL     1       1.610   7.556  -4.374  0.00  0.00    -0.383 OA
ATOM     62  H   UNL     1       2.512   7.208  -4.522  0.00  0.00    +0.210 HD
ENDBRANCH  56  61
BRANCH  58  63
ATOM     63  O   UNL     1      -0.438   3.908  -4.653  0.00  0.00    -0.386 OA
ATOM     64  H   UNL     1      -1.011   3.722  -3.891  0.00  0.00    +0.210 HD
ENDBRANCH  58  63
BRANCH  53  65
ATOM     65  C   UNL     1       1.286   3.355  -2.232  0.00  0.00    +0.197 C 
BRANCH  65  66
ATOM     66  O   UNL     1       0.427   2.269  -2.583  0.00  0.00    -0.346 OA
BRANCH  66  70
ATOM     67  C   UNL     1       0.293   1.086   1.542  0.00  0.00    +0.041 C 
ATOM     68  C   UNL     1       0.800   0.202   0.399  0.00  0.00    +0.149 C 
ATOM     69  O   UNL     1       1.116   0.985  -0.759  0.00  0.00    -0.343 OA
ATOM     70  C   UNL     1      -0.016   1.531  -1.437  0.00  0.00    +0.282 C 
ATOM     71  C   UNL     1      -0.957   0.395  -1.902  0.00  0.00    +0.201 C 
ATOM     72  C   UNL     1      -1.388  -0.436  -0.690  0.00  0.00    +0.179 C 
ATOM     73  C   UNL     1      -0.150  -0.959   0.061  0.00  0.00    +0.174 C 
BRANCH  71  74
ATOM     74  O   UNL     1      -0.301  -0.505  -2.822  0.00  0.00    -0.384 OA
ATOM     75  H   UNL     1       0.613  -0.176  -2.932  0.00  0.00    +0.210 HD
ENDBRANCH  71  74
BRANCH  72  76
ATOM     76  O   UNL     1      -2.198  -1.544  -1.103  0.00  0.00    -0.386 OA
ATOM     77  H   UNL     1      -1.774  -1.894  -1.915  0.00  0.00    +0.210 HD
ENDBRANCH  72  76
BRANCH  73  78
ATOM     78  O   UNL     1      -0.502  -1.656   1.258  0.00  0.00    -0.387 OA
ATOM     79  H   UNL     1      -1.474  -1.696   1.308  0.00  0.00    +0.210 HD
ENDBRANCH  73  78
ENDBRANCH  66  70
ENDBRANCH  65  66
ENDBRANCH  53  65
ENDBRANCH  52  55
ENDBRANCH   1  52
TORSDOF 26
