REMARK  Name = 
REMARK  21 active torsions:
REMARK  status: ('A' for Active; 'I' for Inactive)
REMARK    1  A    between atoms: C_1  and  C_2
REMARK    2  A    between atoms: C_3  and  O_54
REMARK    3  A    between atoms: C_4  and  O_53
REMARK    4  A    between atoms: C_5  and  O_30
REMARK    5  A    between atoms: C_6  and  O_8
REMARK    6  A    between atoms: O_8  and  C_9
REMARK    7  A    between atoms: C_10  and  C_22
REMARK    8  A    between atoms: C_14  and  O_21
REMARK    9  A    between atoms: C_16  and  O_20
REMARK   10  A    between atoms: C_24  and  O_29
REMARK   11  A    between atoms: C_25  and  O_28
REMARK   12  A    between atoms: O_30  and  C_31
REMARK   13  A    between atoms: C_32  and  O_52
REMARK   14  A    between atoms: C_33  and  O_51
REMARK   15  A    between atoms: C_34  and  O_50
REMARK   16  A    between atoms: C_35  and  C_37
REMARK   17  A    between atoms: C_37  and  O_38
REMARK   18  A    between atoms: O_38  and  C_39
REMARK   19  A    between atoms: C_39  and  C_41
REMARK   20  A    between atoms: C_42  and  C_43
REMARK   21  A    between atoms: C_46  and  O_49
REMARK                            x       y       z     vdW  Elec       q    Type
REMARK                         _______ _______ _______ _____ _____    ______ ____
ROOT
ATOM      1  C   UNL     1       0.511   0.228   0.624  0.00  0.00    +0.041 C 
ATOM      2  C   UNL     1       2.031   0.116   0.474  0.00  0.00    +0.150 C 
ATOM      3  O   UNL     1       2.686   1.114  -0.313  0.00  0.00    -0.334 OA
ATOM      4  C   UNL     1       2.872   0.943  -1.744  0.00  0.00    +0.340 C 
ATOM      5  C   UNL     1       3.028  -0.559  -2.297  0.00  0.00    +0.221 C 
ATOM      6  C   UNL     1       2.049  -1.412  -1.469  0.00  0.00    +0.180 C 
ATOM      7  C   UNL     1       2.421  -1.269   0.025  0.00  0.00    +0.174 C 
ENDROOT
BRANCH   6   8
ATOM      8  O   UNL     1       1.863  -2.768  -1.878  0.00  0.00    -0.386 OA
ATOM      9  H   UNL     1       2.666  -3.085  -2.328  0.00  0.00    +0.210 HD
ENDBRANCH   6   8
BRANCH   7  10
ATOM     10  O   UNL     1       1.852  -2.261   0.870  0.00  0.00    -0.387 OA
ATOM     11  H   UNL     1       1.230  -2.782   0.336  0.00  0.00    +0.210 HD
ENDBRANCH   7  10
BRANCH   5  12
ATOM     12  O   UNL     1       4.402  -1.032  -2.218  0.00  0.00    -0.337 OA
BRANCH  12  13
ATOM     13  C   UNL     1       4.740  -2.230  -2.964  0.00  0.00    +0.282 C 
ATOM     14  O   UNL     1       4.262  -3.421  -2.302  0.00  0.00    -0.339 OA
ATOM     15  C   UNL     1       4.719  -3.471  -0.932  0.00  0.00    +0.190 C 
ATOM     16  C   UNL     1       6.231  -3.554  -0.781  0.00  0.00    +0.178 C 
ATOM     17  C   UNL     1       6.895  -2.484  -1.685  0.00  0.00    +0.179 C 
ATOM     18  C   UNL     1       6.268  -2.409  -3.090  0.00  0.00    +0.201 C 
BRANCH  17  19
ATOM     19  O   UNL     1       8.299  -2.751  -1.816  0.00  0.00    -0.386 OA
ATOM     20  H   UNL     1       8.594  -3.131  -0.966  0.00  0.00    +0.210 HD
ENDBRANCH  17  19
BRANCH  16  21
ATOM     21  O   UNL     1       6.737  -4.858  -1.038  0.00  0.00    -0.386 OA
ATOM     22  H   UNL     1       7.186  -4.857  -1.900  0.00  0.00    +0.210 HD
ENDBRANCH  16  21
BRANCH  18  23
ATOM     23  O   UNL     1       6.860  -1.352  -3.852  0.00  0.00    -0.384 OA
ATOM     24  H   UNL     1       7.794  -1.309  -3.572  0.00  0.00    +0.210 HD
ENDBRANCH  18  23
BRANCH  15  25
ATOM     25  C   UNL     1       3.800  -4.333  -0.062  0.00  0.00    +0.266 C 
BRANCH  25  26
ATOM     26  O   UNL     1       4.069  -5.719   0.037  0.00  0.00    -0.459 OA
BRANCH  26  27
ATOM     27  C   UNL     1       4.585  -6.034   1.243  0.00  0.00    +0.332 C 
ATOM     28  O   UNL     1       5.202  -5.280   1.996  0.00  0.00    -0.246 OA
BRANCH  27  29
ATOM     29  C   UNL     1       4.279  -7.413   1.629  0.00  0.00    +0.092 C 
ATOM     30  C   UNL     1       3.297  -8.179   1.153  0.00  0.00    +0.015 C 
BRANCH  30  31
ATOM     31  C   UNL     1       3.171  -9.579   1.608  0.00  0.00    -0.025 A 
ATOM     32  C   UNL     1       4.326 -10.319   1.921  0.00  0.00    +0.011 A 
ATOM     33  C   UNL     1       4.239 -11.632   2.360  0.00  0.00    +0.046 A 
ATOM     34  C   UNL     1       3.000 -12.233   2.466  0.00  0.00    +0.117 A 
ATOM     35  C   UNL     1       1.836 -11.540   2.120  0.00  0.00    +0.046 A 
ATOM     36  C   UNL     1       1.924 -10.211   1.688  0.00  0.00    +0.011 A 
BRANCH  34  37
ATOM     37  O   UNL     1       2.953 -13.518   2.913  0.00  0.00    -0.507 OA
ATOM     38  H   UNL     1       2.029 -13.780   3.020  0.00  0.00    +0.292 HD
ENDBRANCH  34  37
ENDBRANCH  30  31
ENDBRANCH  27  29
ENDBRANCH  26  27
ENDBRANCH  25  26
ENDBRANCH  15  25
ENDBRANCH  12  13
ENDBRANCH   5  12
BRANCH   4  39
ATOM     39  O   UNL     1       4.041   1.756  -2.090  0.00  0.00    -0.453 OA
BRANCH  39  40
ATOM     40  C   UNL     1       3.897   2.786  -3.009  0.00  0.00    +0.214 A 
ATOM     41  C   UNL     1       2.938   2.588  -4.162  0.00  0.00    +0.238 A 
ATOM     42  O   UNL     1       2.452   1.483  -4.379  0.00  0.00    -0.283 OA
ATOM     43  C   UNL     1       2.643   3.719  -5.042  0.00  0.00    +0.109 A 
ATOM     44  C   UNL     1       3.448   4.840  -4.916  0.00  0.00    +0.147 A 
ATOM     45  C   UNL     1       3.258   5.946  -5.756  0.00  0.00    +0.092 A 
ATOM     46  C   UNL     1       2.242   5.922  -6.708  0.00  0.00    +0.124 A 
ATOM     47  C   UNL     1       1.422   4.810  -6.842  0.00  0.00    +0.091 A 
ATOM     48  O   UNL     1       4.467   4.923  -4.000  0.00  0.00    -0.451 OA
ATOM     49  C   UNL     1       1.623   3.708  -6.009  0.00  0.00    +0.135 A 
ATOM     50  C   UNL     1       4.667   3.925  -3.036  0.00  0.00    +0.181 A 
BRANCH  50  51
ATOM     51  C   UNL     1       5.849   4.317  -2.152  0.00  0.00    +0.025 A 
ATOM     52  C   UNL     1       6.644   5.432  -2.555  0.00  0.00    +0.015 A 
ATOM     53  C   UNL     1       7.786   5.866  -1.857  0.00  0.00    +0.050 A 
ATOM     54  C   UNL     1       8.150   5.220  -0.697  0.00  0.00    +0.158 A 
ATOM     55  C   UNL     1       7.380   4.157  -0.231  0.00  0.00    +0.159 A 
ATOM     56  C   UNL     1       6.240   3.700  -0.939  0.00  0.00    +0.060 A 
BRANCH  55  57
ATOM     57  O   UNL     1       7.793   3.590   0.946  0.00  0.00    -0.503 OA
ATOM     58  H   UNL     1       7.140   2.921   1.210  0.00  0.00    +0.292 HD
ENDBRANCH  55  57
BRANCH  54  59
ATOM     59  O   UNL     1       9.253   5.654  -0.022  0.00  0.00    -0.503 OA
ATOM     60  H   UNL     1       9.309   5.086   0.771  0.00  0.00    +0.292 HD
ENDBRANCH  54  59
ENDBRANCH  50  51
BRANCH  49  61
ATOM     61  O   UNL     1       0.788   2.634  -6.149  0.00  0.00    -0.506 OA
ATOM     62  H   UNL     1       0.231   2.745  -6.936  0.00  0.00    +0.292 HD
ENDBRANCH  49  61
BRANCH  46  63
ATOM     63  O   UNL     1       2.000   6.976  -7.537  0.00  0.00    -0.507 OA
ATOM     64  H   UNL     1       2.591   7.713  -7.311  0.00  0.00    +0.292 HD
ENDBRANCH  46  63
ENDBRANCH  39  40
ENDBRANCH   4  39
TORSDOF 20
