REMARK  Name = 
REMARK  18 active torsions:
REMARK  status: ('A' for Active; 'I' for Inactive)
REMARK    1  A    between atoms: C_1  and  C_2
REMARK    2  A    between atoms: C_3  and  O_44
REMARK    3  A    between atoms: C_4  and  O_43
REMARK    4  A    between atoms: C_5  and  O_42
REMARK    5  A    between atoms: C_6  and  O_8
REMARK    6  A    between atoms: O_8  and  C_9
REMARK    7  A    between atoms: C_10  and  O_41
REMARK    8  A    between atoms: C_11  and  O_40
REMARK    9  A    between atoms: C_12  and  C_38
REMARK   10  A    between atoms: C_14  and  O_15
REMARK   11  A    between atoms: O_15  and  C_16
REMARK   12  A    between atoms: C_17  and  O_36
REMARK   13  A    between atoms: C_19  and  C_22
REMARK   14  A    between atoms: C_23  and  O_35
REMARK   15  A    between atoms: C_27  and  O_34
REMARK   16  A    between atoms: C_29  and  O_33
REMARK   17  A    between atoms: O_36  and  C_37
REMARK   18  A    between atoms: C_38  and  O_39
REMARK                            x       y       z     vdW  Elec       q    Type
REMARK                         _______ _______ _______ _____ _____    ______ ____
ROOT
ATOM      1  C   UNL     1       2.447   2.961  -3.166  0.00  0.00    +0.221 C 
ATOM      2  C   UNL     1       1.326   2.328  -4.054  0.00  0.00    +0.340 C 
ATOM      3  O   UNL     1       1.610   2.459  -5.466  0.00  0.00    -0.331 OA
ATOM      4  C   UNL     1       1.969   3.761  -5.947  0.00  0.00    +0.179 C 
ATOM      5  C   UNL     1       3.178   4.302  -5.175  0.00  0.00    +0.177 C 
ATOM      6  C   UNL     1       2.848   4.346  -3.690  0.00  0.00    +0.180 C 
ENDROOT
BRANCH   6   7
ATOM      7  O   UNL     1       3.918   4.943  -2.944  0.00  0.00    -0.386 OA
ATOM      8  H   UNL     1       4.663   5.083  -3.564  0.00  0.00    +0.210 HD
ENDBRANCH   6   7
BRANCH   5   9
ATOM      9  O   UNL     1       3.591   5.598  -5.620  0.00  0.00    -0.386 OA
ATOM     10  H   UNL     1       3.119   6.278  -5.102  0.00  0.00    +0.210 HD
ENDBRANCH   5   9
BRANCH   4  11
ATOM     11  C   UNL     1       0.783   4.751  -5.995  0.00  0.00    +0.190 C 
BRANCH  11  12
ATOM     12  O   UNL     1      -0.293   4.278  -6.798  0.00  0.00    -0.392 OA
ATOM     13  H   UNL     1       0.058   3.641  -7.442  0.00  0.00    +0.210 HD
ENDBRANCH  11  12
ENDBRANCH   4  11
BRANCH   2  14
ATOM     14  O   UNL     1       0.022   2.845  -3.759  0.00  0.00    -0.457 OA
BRANCH  14  15
ATOM     15  C   UNL     1      -0.655   2.313  -2.684  0.00  0.00    +0.165 A 
ATOM     16  C   UNL     1      -0.017   1.800  -1.553  0.00  0.00    +0.050 A 
ATOM     17  C   UNL     1      -0.734   1.480  -0.406  0.00  0.00    +0.015 A 
ATOM     18  C   UNL     1      -2.125   1.561  -0.382  0.00  0.00    +0.025 A 
ATOM     19  C   UNL     1      -2.779   1.959  -1.561  0.00  0.00    +0.061 A 
ATOM     20  C   UNL     1      -2.061   2.370  -2.697  0.00  0.00    +0.162 A 
BRANCH  18  21
ATOM     21  C   UNL     1      -2.836   1.191   0.872  0.00  0.00    +0.181 A 
ATOM     22  O   UNL     1      -2.133   0.250   1.618  0.00  0.00    -0.451 OA
ATOM     23  C   UNL     1      -2.651  -0.173   2.809  0.00  0.00    +0.147 A 
ATOM     24  C   UNL     1      -3.860   0.291   3.312  0.00  0.00    +0.109 A 
ATOM     25  C   UNL     1      -4.345  -0.205   4.527  0.00  0.00    +0.135 A 
ATOM     26  C   UNL     1      -3.624  -1.164   5.232  0.00  0.00    +0.091 A 
ATOM     27  C   UNL     1      -2.409  -1.610   4.721  0.00  0.00    +0.124 A 
ATOM     28  C   UNL     1      -4.578   1.325   2.557  0.00  0.00    +0.238 A 
ATOM     29  O   UNL     1      -5.609   1.812   3.011  0.00  0.00    -0.283 OA
ATOM     30  C   UNL     1      -1.914  -1.120   3.517  0.00  0.00    +0.092 A 
ATOM     31  C   UNL     1      -3.989   1.759   1.266  0.00  0.00    +0.208 A 
BRANCH  31  32
ATOM     32  O   UNL     1      -4.660   2.724   0.555  0.00  0.00    -0.501 OA
ATOM     33  H   UNL     1      -4.244   3.572   0.778  0.00  0.00    +0.292 HD
ENDBRANCH  31  32
BRANCH  27  34
ATOM     34  O   UNL     1      -1.664  -2.541   5.382  0.00  0.00    -0.507 OA
ATOM     35  H   UNL     1      -2.134  -2.805   6.187  0.00  0.00    +0.292 HD
ENDBRANCH  27  34
BRANCH  25  36
ATOM     36  O   UNL     1      -5.521   0.219   5.086  0.00  0.00    -0.506 OA
ATOM     37  H   UNL     1      -5.915   0.902   4.496  0.00  0.00    +0.292 HD
ENDBRANCH  25  36
ENDBRANCH  18  21
BRANCH  20  38
ATOM     38  O   UNL     1      -2.651   2.823  -3.852  0.00  0.00    -0.491 OA
ATOM     39  C   UNL     1      -4.074   2.795  -3.918  0.00  0.00    +0.277 C 
ENDBRANCH  20  38
ENDBRANCH  14  15
ENDBRANCH   2  14
BRANCH   1  40
ATOM     40  O   UNL     1       3.523   1.999  -3.045  0.00  0.00    -0.337 OA
BRANCH  40  44
ATOM     41  C   UNL     1       7.487   2.824  -2.015  0.00  0.00    +0.041 C 
ATOM     42  C   UNL     1       6.723   1.676  -1.337  0.00  0.00    +0.149 C 
ATOM     43  O   UNL     1       5.547   1.297  -2.086  0.00  0.00    -0.343 OA
ATOM     44  C   UNL     1       4.541   2.326  -2.094  0.00  0.00    +0.282 C 
ATOM     45  C   UNL     1       4.028   2.500  -0.647  0.00  0.00    +0.201 C 
ATOM     46  C   UNL     1       5.195   2.954   0.229  0.00  0.00    +0.179 C 
ATOM     47  C   UNL     1       6.376   1.975   0.135  0.00  0.00    +0.174 C 
BRANCH  47  48
ATOM     48  O   UNL     1       7.527   2.484   0.816  0.00  0.00    -0.387 OA
ATOM     49  H   UNL     1       7.285   3.340   1.217  0.00  0.00    +0.210 HD
ENDBRANCH  47  48
BRANCH  46  50
ATOM     50  O   UNL     1       4.777   3.081   1.594  0.00  0.00    -0.386 OA
ATOM     51  H   UNL     1       4.219   2.299   1.779  0.00  0.00    +0.210 HD
ENDBRANCH  46  50
BRANCH  45  52
ATOM     52  O   UNL     1       3.488   1.268  -0.122  0.00  0.00    -0.384 OA
ATOM     53  H   UNL     1       3.810   0.549  -0.705  0.00  0.00    +0.210 HD
ENDBRANCH  45  52
ENDBRANCH  40  44
ENDBRANCH   1  40
TORSDOF 16
