REMARK  Name = 
REMARK  24 active torsions:
REMARK  status: ('A' for Active; 'I' for Inactive)
REMARK    1  A    between atoms: C_1  and  O_2
REMARK    2  A    between atoms: O_2  and  C_3
REMARK    3  A    between atoms: C_4  and  O_57
REMARK    4  A    between atoms: C_7  and  C_9
REMARK    5  A    between atoms: C_10  and  C_11
REMARK    6  A    between atoms: C_11  and  O_13
REMARK    7  A    between atoms: O_13  and  C_14
REMARK    8  A    between atoms: C_14  and  C_15
REMARK    9  A    between atoms: C_16  and  O_56
REMARK   10  A    between atoms: C_17  and  O_55
REMARK   11  A    between atoms: C_18  and  O_54
REMARK   12  A    between atoms: C_19  and  O_21
REMARK   13  A    between atoms: O_21  and  C_22
REMARK   14  A    between atoms: C_23  and  O_53
REMARK   15  A    between atoms: C_24  and  O_52
REMARK   16  A    between atoms: C_25  and  C_50
REMARK   17  A    between atoms: C_27  and  O_28
REMARK   18  A    between atoms: O_28  and  C_29
REMARK   19  A    between atoms: C_30  and  C_42
REMARK   20  A    between atoms: C_34  and  O_41
REMARK   21  A    between atoms: C_36  and  O_40
REMARK   22  A    between atoms: C_44  and  O_49
REMARK   23  A    between atoms: C_45  and  O_48
REMARK   24  A    between atoms: C_50  and  O_51
REMARK                            x       y       z     vdW  Elec       q    Type
REMARK                         _______ _______ _______ _____ _____    ______ ____
ROOT
ATOM      1  C   UNL     1       7.463  -5.958  -4.926  0.00  0.00    +0.221 C 
ATOM      2  C   UNL     1       6.837  -7.353  -4.512  0.00  0.00    +0.340 C 
ATOM      3  O   UNL     1       7.764  -8.411  -4.782  0.00  0.00    -0.331 OA
ATOM      4  C   UNL     1       8.208  -8.580  -6.128  0.00  0.00    +0.179 C 
ATOM      5  C   UNL     1       8.748  -7.269  -6.713  0.00  0.00    +0.177 C 
ATOM      6  C   UNL     1       7.782  -6.102  -6.441  0.00  0.00    +0.180 C 
ENDROOT
BRANCH   6   7
ATOM      7  O   UNL     1       8.348  -4.912  -6.998  0.00  0.00    -0.386 OA
ATOM      8  H   UNL     1       9.029  -4.605  -6.371  0.00  0.00    +0.210 HD
ENDBRANCH   6   7
BRANCH   5   9
ATOM      9  O   UNL     1       8.961  -7.406  -8.121  0.00  0.00    -0.386 OA
ATOM     10  H   UNL     1       8.991  -6.486  -8.478  0.00  0.00    +0.210 HD
ENDBRANCH   5   9
BRANCH   4  11
ATOM     11  C   UNL     1       7.132  -9.224  -7.010  0.00  0.00    +0.190 C 
BRANCH  11  12
ATOM     12  O   UNL     1       7.587  -9.652  -8.284  0.00  0.00    -0.392 OA
ATOM     13  H   UNL     1       8.134  -8.916  -8.634  0.00  0.00    +0.210 HD
ENDBRANCH  11  12
ENDBRANCH   4  11
BRANCH   2  14
ATOM     14  O   UNL     1       5.540  -7.499  -5.133  0.00  0.00    -0.453 OA
BRANCH  14  15
ATOM     15  C   UNL     1       4.771  -8.653  -4.984  0.00  0.00    +0.214 A 
ATOM     16  C   UNL     1       5.186  -9.859  -4.176  0.00  0.00    +0.238 A 
ATOM     17  O   UNL     1       5.839  -9.761  -3.149  0.00  0.00    -0.283 OA
ATOM     18  C   UNL     1       4.743 -11.167  -4.760  0.00  0.00    +0.109 A 
ATOM     19  C   UNL     1       3.576 -11.137  -5.526  0.00  0.00    +0.147 A 
ATOM     20  C   UNL     1       3.082 -12.257  -6.192  0.00  0.00    +0.092 A 
ATOM     21  C   UNL     1       3.787 -13.444  -6.095  0.00  0.00    +0.124 A 
ATOM     22  C   UNL     1       4.955 -13.516  -5.339  0.00  0.00    +0.091 A 
ATOM     23  O   UNL     1       2.878  -9.976  -5.711  0.00  0.00    -0.451 OA
ATOM     24  C   UNL     1       5.438 -12.376  -4.675  0.00  0.00    +0.135 A 
ATOM     25  C   UNL     1       3.662  -8.846  -5.736  0.00  0.00    +0.181 A 
BRANCH  25  26
ATOM     26  C   UNL     1       3.310  -7.965  -6.848  0.00  0.00    +0.025 A 
ATOM     27  C   UNL     1       4.018  -8.134  -8.050  0.00  0.00    +0.015 A 
ATOM     28  C   UNL     1       4.084  -7.096  -8.967  0.00  0.00    +0.050 A 
ATOM     29  C   UNL     1       3.352  -5.955  -8.711  0.00  0.00    +0.158 A 
ATOM     30  C   UNL     1       2.418  -5.920  -7.675  0.00  0.00    +0.159 A 
ATOM     31  C   UNL     1       2.399  -6.920  -6.715  0.00  0.00    +0.060 A 
BRANCH  30  32
ATOM     32  O   UNL     1       1.584  -4.841  -7.592  0.00  0.00    -0.503 OA
ATOM     33  H   UNL     1       0.779  -5.134  -7.128  0.00  0.00    +0.292 HD
ENDBRANCH  30  32
BRANCH  29  34
ATOM     34  O   UNL     1       3.608  -4.831  -9.440  0.00  0.00    -0.503 OA
ATOM     35  H   UNL     1       3.261  -4.109  -8.881  0.00  0.00    +0.292 HD
ENDBRANCH  29  34
ENDBRANCH  25  26
BRANCH  24  36
ATOM     36  O   UNL     1       6.621 -12.459  -4.000  0.00  0.00    -0.506 OA
ATOM     37  H   UNL     1       6.972 -13.364  -4.059  0.00  0.00    +0.292 HD
ENDBRANCH  24  36
BRANCH  21  38
ATOM     38  O   UNL     1       3.358 -14.560  -6.748  0.00  0.00    -0.507 OA
ATOM     39  H   UNL     1       2.560 -14.354  -7.251  0.00  0.00    +0.292 HD
ENDBRANCH  21  38
ENDBRANCH  14  15
ENDBRANCH   2  14
BRANCH   1  40
ATOM     40  O   UNL     1       8.702  -5.553  -4.256  0.00  0.00    -0.337 OA
BRANCH  40  43
ATOM     41  C   UNL     1      10.283  -3.983  -1.302  0.00  0.00    +0.190 C 
ATOM     42  O   UNL     1       9.877  -4.266  -2.667  0.00  0.00    -0.339 OA
ATOM     43  C   UNL     1       8.612  -4.922  -2.936  0.00  0.00    +0.282 C 
ATOM     44  C   UNL     1       8.325  -6.026  -1.909  0.00  0.00    +0.201 C 
ATOM     45  C   UNL     1       8.556  -5.568  -0.486  0.00  0.00    +0.179 C 
ATOM     46  C   UNL     1      10.010  -5.143  -0.332  0.00  0.00    +0.178 C 
BRANCH  46  47
ATOM     47  O   UNL     1      10.260  -4.773   1.030  0.00  0.00    -0.386 OA
ATOM     48  H   UNL     1       9.547  -5.180   1.565  0.00  0.00    +0.210 HD
ENDBRANCH  46  47
BRANCH  45  49
ATOM     49  O   UNL     1       8.285  -6.635   0.433  0.00  0.00    -0.386 OA
ATOM     50  H   UNL     1       8.613  -7.450  -0.007  0.00  0.00    +0.210 HD
ENDBRANCH  45  49
BRANCH  44  51
ATOM     51  O   UNL     1       9.179  -7.166  -2.138  0.00  0.00    -0.384 OA
ATOM     52  H   UNL     1       9.619  -7.025  -3.003  0.00  0.00    +0.210 HD
ENDBRANCH  44  51
BRANCH  41  53
ATOM     53  C   UNL     1       9.754  -2.669  -0.680  0.00  0.00    +0.266 C 
BRANCH  53  54
ATOM     54  O   UNL     1      10.262  -1.497  -1.332  0.00  0.00    -0.459 OA
BRANCH  54  55
ATOM     55  C   UNL     1       9.375  -0.846  -2.121  0.00  0.00    +0.332 C 
ATOM     56  O   UNL     1       8.305  -1.268  -2.493  0.00  0.00    -0.246 OA
BRANCH  55  58
ATOM     57  C   UNL     1       9.234   1.345  -3.154  0.00  0.00    +0.015 C 
ATOM     58  C   UNL     1       9.896   0.513  -2.342  0.00  0.00    +0.092 C 
BRANCH  57  61
ATOM     59  C   UNL     1      10.829   4.811  -3.147  0.00  0.00    +0.162 A 
ATOM     60  C   UNL     1      10.586   3.475  -2.806  0.00  0.00    +0.057 A 
ATOM     61  C   UNL     1       9.573   2.747  -3.459  0.00  0.00    -0.021 A 
ATOM     62  C   UNL     1       8.811   3.391  -4.449  0.00  0.00    +0.012 A 
ATOM     63  C   UNL     1       9.038   4.724  -4.778  0.00  0.00    +0.050 A 
ATOM     64  C   UNL     1      10.040   5.423  -4.123  0.00  0.00    +0.158 A 
BRANCH  64  65
ATOM     65  O   UNL     1      10.251   6.726  -4.472  0.00  0.00    -0.503 OA
ATOM     66  H   UNL     1      10.992   7.024  -3.912  0.00  0.00    +0.292 HD
ENDBRANCH  64  65
BRANCH  59  68
ATOM     67  C   UNL     1      12.882   4.947  -1.967  0.00  0.00    +0.277 C 
ATOM     68  O   UNL     1      11.785   5.619  -2.579  0.00  0.00    -0.491 OA
ENDBRANCH  59  68
ENDBRANCH  57  61
ENDBRANCH  55  58
ENDBRANCH  54  55
ENDBRANCH  53  54
ENDBRANCH  41  53
ENDBRANCH  40  43
ENDBRANCH   1  40
TORSDOF 23
