REMARK  Name = 
REMARK  24 active torsions:
REMARK  status: ('A' for Active; 'I' for Inactive)
REMARK    1  A    between atoms: C_3  and  O_70
REMARK    2  A    between atoms: C_4  and  O_69
REMARK    3  A    between atoms: C_6  and  C_7
REMARK    4  A    between atoms: C_8  and  O_52
REMARK    5  A    between atoms: C_12  and  O_51
REMARK    6  A    between atoms: C_14  and  O_18
REMARK    7  A    between atoms: O_18  and  C_19
REMARK    8  A    between atoms: C_21  and  O_50
REMARK    9  A    between atoms: C_23  and  O_49
REMARK   10  A    between atoms: C_25  and  O_48
REMARK   11  A    between atoms: C_27  and  C_30
REMARK   12  A    between atoms: C_30  and  O_31
REMARK   13  A    between atoms: O_31  and  C_32
REMARK   14  A    between atoms: C_34  and  O_47
REMARK   15  A    between atoms: C_36  and  O_46
REMARK   16  A    between atoms: C_38  and  O_45
REMARK   17  A    between atoms: C_40  and  C_43
REMARK   18  A    between atoms: C_43  and  O_44
REMARK   19  A    between atoms: O_52  and  C_53
REMARK   20  A    between atoms: C_55  and  O_68
REMARK   21  A    between atoms: C_57  and  O_67
REMARK   22  A    between atoms: C_59  and  O_66
REMARK   23  A    between atoms: C_61  and  C_64
REMARK   24  A    between atoms: C_64  and  O_65
REMARK                            x       y       z     vdW  Elec       q    Type
REMARK                         _______ _______ _______ _____ _____    ______ ____
ROOT
ATOM      1  C   UNL     1      -2.601  -0.746   2.256  0.00  0.00    +0.181 A 
ATOM      2  O   UNL     1      -2.675  -0.807   3.630  0.00  0.00    -0.451 OA
ATOM      3  C   UNL     1      -2.713   0.359   4.341  0.00  0.00    +0.147 A 
ATOM      4  C   UNL     1      -2.778   1.610   3.773  0.00  0.00    +0.109 A 
ATOM      5  C   UNL     1      -2.885   2.733   4.605  0.00  0.00    +0.135 A 
ATOM      6  C   UNL     1      -2.808   2.598   6.001  0.00  0.00    +0.092 A 
ATOM      7  C   UNL     1      -2.696   1.327   6.572  0.00  0.00    +0.131 A 
ATOM      8  C   UNL     1      -2.751   1.685   2.312  0.00  0.00    +0.238 A 
ATOM      9  O   UNL     1      -2.939   2.771   1.768  0.00  0.00    -0.283 OA
ATOM     10  C   UNL     1      -2.699   0.220   5.720  0.00  0.00    +0.093 A 
ATOM     11  C   UNL     1      -2.539   0.409   1.548  0.00  0.00    +0.214 A 
ENDROOT
BRANCH   1  13
ATOM     12  C   UNL     1      -4.137  -2.520   1.495  0.00  0.00    +0.015 A 
ATOM     13  C   UNL     1      -2.808  -2.088   1.681  0.00  0.00    +0.025 A 
ATOM     14  C   UNL     1      -1.765  -2.978   1.401  0.00  0.00    +0.060 A 
ATOM     15  C   UNL     1      -2.057  -4.209   0.820  0.00  0.00    +0.159 A 
ATOM     16  C   UNL     1      -3.368  -4.571   0.526  0.00  0.00    +0.158 A 
ATOM     17  C   UNL     1      -4.421  -3.756   0.909  0.00  0.00    +0.050 A 
BRANCH  16  18
ATOM     18  O   UNL     1      -3.576  -5.738  -0.154  0.00  0.00    -0.503 OA
ATOM     19  H   UNL     1      -4.453  -5.681  -0.575  0.00  0.00    +0.292 HD
ENDBRANCH  16  18
BRANCH  15  20
ATOM     20  O   UNL     1      -1.039  -5.069   0.526  0.00  0.00    -0.503 OA
ATOM     21  H   UNL     1      -1.477  -5.869   0.173  0.00  0.00    +0.292 HD
ENDBRANCH  15  20
ENDBRANCH   1  13
BRANCH   5  22
ATOM     22  O   UNL     1      -3.085   3.994   4.107  0.00  0.00    -0.506 OA
ATOM     23  H   UNL     1      -3.162   3.926   3.126  0.00  0.00    +0.292 HD
ENDBRANCH   5  22
BRANCH  11  24
ATOM     24  O   UNL     1      -2.482   0.567   0.193  0.00  0.00    -0.453 OA
BRANCH  24  25
ATOM     25  C   UNL     1      -1.508  -0.082  -0.617  0.00  0.00    +0.340 C 
ATOM     26  O   UNL     1      -1.519   0.647  -1.857  0.00  0.00    -0.331 OA
ATOM     27  C   UNL     1      -0.687   0.139  -2.914  0.00  0.00    +0.179 C 
ATOM     28  C   UNL     1       0.762  -0.132  -2.466  0.00  0.00    +0.177 C 
ATOM     29  C   UNL     1       0.854  -0.831  -1.095  0.00  0.00    +0.180 C 
ATOM     30  C   UNL     1      -0.058  -0.129  -0.071  0.00  0.00    +0.214 C 
BRANCH  30  31
ATOM     31  O   UNL     1       0.446   1.192   0.201  0.00  0.00    -0.383 OA
ATOM     32  H   UNL     1       0.312   1.717  -0.617  0.00  0.00    +0.210 HD
ENDBRANCH  30  31
BRANCH  29  33
ATOM     33  O   UNL     1       0.591  -2.227  -1.183  0.00  0.00    -0.386 OA
ATOM     34  H   UNL     1      -0.167  -2.391  -1.796  0.00  0.00    +0.210 HD
ENDBRANCH  29  33
BRANCH  28  35
ATOM     35  O   UNL     1       1.427   1.146  -2.391  0.00  0.00    -0.386 OA
ATOM     36  H   UNL     1       2.302   1.012  -1.982  0.00  0.00    +0.210 HD
ENDBRANCH  28  35
BRANCH  27  37
ATOM     37  C   UNL     1      -1.373  -1.023  -3.637  0.00  0.00    +0.190 C 
BRANCH  37  38
ATOM     38  O   UNL     1      -1.485  -2.179  -2.812  0.00  0.00    -0.392 OA
ATOM     39  H   UNL     1      -2.428  -2.246  -2.563  0.00  0.00    +0.210 HD
ENDBRANCH  37  38
ENDBRANCH  27  37
ENDBRANCH  24  25
ENDBRANCH  11  24
BRANCH   7  40
ATOM     40  O   UNL     1      -2.541   1.233   7.939  0.00  0.00    -0.461 OA
BRANCH  40  41
ATOM     41  C   UNL     1      -3.254   0.136   8.542  0.00  0.00    +0.339 C 
ATOM     42  O   UNL     1      -3.738   0.462   9.856  0.00  0.00    -0.331 OA
ATOM     43  C   UNL     1      -2.926   0.123  10.984  0.00  0.00    +0.179 C 
ATOM     44  C   UNL     1      -2.470  -1.349  10.944  0.00  0.00    +0.177 C 
ATOM     45  C   UNL     1      -1.694  -1.639   9.672  0.00  0.00    +0.180 C 
ATOM     46  C   UNL     1      -2.518  -1.238   8.455  0.00  0.00    +0.214 C 
BRANCH  46  47
ATOM     47  O   UNL     1      -3.500  -2.267   8.198  0.00  0.00    -0.383 OA
ATOM     48  H   UNL     1      -4.197  -2.159   8.879  0.00  0.00    +0.210 HD
ENDBRANCH  46  47
BRANCH  45  49
ATOM     49  O   UNL     1      -0.431  -0.980   9.644  0.00  0.00    -0.386 OA
ATOM     50  H   UNL     1       0.016  -1.091  10.500  0.00  0.00    +0.210 HD
ENDBRANCH  45  49
BRANCH  44  51
ATOM     51  O   UNL     1      -3.627  -2.201  11.000  0.00  0.00    -0.386 OA
ATOM     52  H   UNL     1      -3.328  -3.129  10.954  0.00  0.00    +0.210 HD
ENDBRANCH  44  51
BRANCH  43  53
ATOM     53  C   UNL     1      -1.769   1.129  11.201  0.00  0.00    +0.197 C 
BRANCH  53  54
ATOM     54  O   UNL     1      -2.145   2.498  11.462  0.00  0.00    -0.346 OA
BRANCH  54  55
ATOM     55  C   UNL     1      -3.039   2.703  12.560  0.00  0.00    +0.282 C 
ATOM     56  O   UNL     1      -3.515   4.053  12.561  0.00  0.00    -0.341 OA
ATOM     57  C   UNL     1      -2.687   5.089  13.085  0.00  0.00    +0.178 C 
ATOM     58  C   UNL     1      -1.820   4.708  14.308  0.00  0.00    +0.177 C 
ATOM     59  C   UNL     1      -1.309   3.260  14.296  0.00  0.00    +0.179 C 
ATOM     60  C   UNL     1      -2.446   2.303  13.927  0.00  0.00    +0.201 C 
BRANCH  60  61
ATOM     61  O   UNL     1      -3.461   2.294  14.941  0.00  0.00    -0.384 OA
ATOM     62  H   UNL     1      -3.669   3.232  15.146  0.00  0.00    +0.210 HD
ENDBRANCH  60  61
BRANCH  59  63
ATOM     63  O   UNL     1      -0.171   3.066  13.460  0.00  0.00    -0.386 OA
ATOM     64  H   UNL     1      -0.424   3.274  12.536  0.00  0.00    +0.210 HD
ENDBRANCH  59  63
BRANCH  58  65
ATOM     65  O   UNL     1      -2.667   4.857  15.472  0.00  0.00    -0.386 OA
ATOM     66  H   UNL     1      -2.076   5.009  16.232  0.00  0.00    +0.210 HD
ENDBRANCH  58  65
BRANCH  57  67
ATOM     67  C   UNL     1      -1.887   5.804  11.995  0.00  0.00    +0.190 C 
BRANCH  67  68
ATOM     68  O   UNL     1      -0.860   4.970  11.479  0.00  0.00    -0.392 OA
ATOM     69  H   UNL     1      -1.322   4.322  10.927  0.00  0.00    +0.210 HD
ENDBRANCH  67  68
ENDBRANCH  57  67
ENDBRANCH  54  55
ENDBRANCH  53  54
ENDBRANCH  43  53
ENDBRANCH  40  41
ENDBRANCH   7  40
TORSDOF 24
