REMARK  Name = 
REMARK  12 active torsions:
REMARK  status: ('A' for Active; 'I' for Inactive)
REMARK    1  A    between atoms: C_2  and  O_21
REMARK    2  A    between atoms: C_3  and  C_13
REMARK    3  A    between atoms: C_7  and  O_12
REMARK    4  A    between atoms: C_9  and  O_11
REMARK    5  A    between atoms: C_15  and  O_20
REMARK    6  A    between atoms: C_16  and  O_19
REMARK    7  A    between atoms: C_24  and  O_43
REMARK    8  A    between atoms: C_25  and  O_42
REMARK    9  A    between atoms: C_27  and  C_28
REMARK   10  A    between atoms: C_29  and  O_41
REMARK   11  A    between atoms: C_33  and  O_40
REMARK   12  A    between atoms: C_35  and  O_39
REMARK                            x       y       z     vdW  Elec       q    Type
REMARK                         _______ _______ _______ _____ _____    ______ ____
ROOT
ATOM      1  C   UNL     1      -1.386   1.613   1.203  0.00  0.00    +0.078 C 
ATOM      2  C   UNL     1       0.188   0.890   0.558  0.00  0.00    +0.038 A 
ATOM      3  C   UNL     1       0.276  -0.393  -1.051  0.00  0.00    +0.132 A 
ATOM      4  C   UNL     1       1.605  -1.634  -1.055  0.00  0.00    +0.091 A 
ATOM      5  C   UNL     1       2.808  -1.548   0.309  0.00  0.00    +0.124 A 
ATOM      6  C   UNL     1       2.757  -0.322   1.653  0.00  0.00    +0.091 A 
ATOM      7  O   UNL     1      -1.470  -0.961  -1.478  0.00  0.00    -0.481 OA
ATOM      8  C   UNL     1      -2.944  -0.467  -0.298  0.00  0.00    +0.232 C 
ATOM      9  C   UNL     1       1.473   0.891   1.788  0.00  0.00    +0.127 A 
ATOM     10  C   UNL     1      -2.961   1.200   0.417  0.00  0.00    +0.164 C 
ENDROOT
BRANCH   8  11
ATOM     11  C   UNL     1      -4.280  -1.291   0.145  0.00  0.00    -0.001 A 
ATOM     12  C   UNL     1      -4.279  -2.097   1.355  0.00  0.00    +0.011 A 
ATOM     13  C   UNL     1      -5.454  -2.483   1.998  0.00  0.00    +0.049 A 
ATOM     14  C   UNL     1      -6.642  -2.023   1.477  0.00  0.00    +0.158 A 
ATOM     15  C   UNL     1      -6.669  -1.325   0.265  0.00  0.00    +0.159 A 
ATOM     16  C   UNL     1      -5.503  -0.988  -0.431  0.00  0.00    +0.056 A 
BRANCH  14  17
ATOM     17  O   UNL     1      -7.782  -2.169   2.215  0.00  0.00    -0.503 OA
ATOM     18  H   UNL     1      -8.422  -1.570   1.783  0.00  0.00    +0.292 HD
ENDBRANCH  14  17
BRANCH  15  19
ATOM     19  O   UNL     1      -7.893  -0.892  -0.172  0.00  0.00    -0.503 OA
ATOM     20  H   UNL     1      -7.731  -0.329  -0.947  0.00  0.00    +0.292 HD
ENDBRANCH  15  19
ENDBRANCH   8  11
BRANCH   5  21
ATOM     21  O   UNL     1       3.918  -2.358   0.334  0.00  0.00    -0.507 OA
ATOM     22  H   UNL     1       3.988  -2.753  -0.547  0.00  0.00    +0.292 HD
ENDBRANCH   5  21
BRANCH   9  23
ATOM     23  O   UNL     1       1.863   2.180   2.166  0.00  0.00    -0.506 OA
ATOM     24  H   UNL     1       2.159   2.579   1.321  0.00  0.00    +0.292 HD
ENDBRANCH   9  23
BRANCH  10  25
ATOM     25  O   UNL     1      -4.140   1.443   1.171  0.00  0.00    -0.387 OA
ATOM     26  H   UNL     1      -3.923   1.879   2.004  0.00  0.00    +0.210 HD
ENDBRANCH  10  25
TORSDOF 6
REMARK  Name = 
REMARK  12 active torsions:
REMARK  status: ('A' for Active; 'I' for Inactive)
REMARK    1  A    between atoms: C_2  and  O_21
REMARK    2  A    between atoms: C_3  and  C_13
REMARK    3  A    between atoms: C_7  and  O_12
REMARK    4  A    between atoms: C_9  and  O_11
REMARK    5  A    between atoms: C_15  and  O_20
REMARK    6  A    between atoms: C_16  and  O_19
REMARK    7  A    between atoms: C_24  and  O_43
REMARK    8  A    between atoms: C_25  and  O_42
REMARK    9  A    between atoms: C_27  and  C_28
REMARK   10  A    between atoms: C_29  and  O_41
REMARK   11  A    between atoms: C_33  and  O_40
REMARK   12  A    between atoms: C_35  and  O_39
REMARK                            x       y       z     vdW  Elec       q    Type
REMARK                         _______ _______ _______ _____ _____    ______ ____
ROOT
ATOM      1  C   UNL     1      -1.429  -2.618  -0.053  0.00  0.00    +0.181 A 
ATOM      2  O   UNL     1      -0.667  -3.757   0.504  0.00  0.00    -0.451 OA
ATOM      3  C   UNL     1      -1.077  -5.092   0.162  0.00  0.00    +0.147 A 
ATOM      4  C   UNL     1      -2.313  -5.389  -0.417  0.00  0.00    +0.109 A 
ATOM      5  C   UNL     1      -2.853  -6.682  -0.605  0.00  0.00    +0.135 A 
ATOM      6  C   UNL     1      -2.085  -7.778  -0.328  0.00  0.00    +0.091 A 
ATOM      7  C   UNL     1      -0.782  -7.541   0.096  0.00  0.00    +0.124 A 
ATOM      8  C   UNL     1      -2.960  -4.347  -1.123  0.00  0.00    +0.238 A 
ATOM      9  O   UNL     1      -3.899  -4.602  -1.881  0.00  0.00    -0.283 OA
ATOM     10  C   UNL     1      -0.276  -6.227   0.367  0.00  0.00    +0.092 A 
ATOM     11  C   UNL     1      -2.400  -3.007  -1.008  0.00  0.00    +0.208 A 
ENDROOT
BRANCH   1  13
ATOM     12  C   UNL     1      -1.237   0.740  -0.776  0.00  0.00    +0.015 A 
ATOM     13  C   UNL     1      -0.876  -0.841   0.396  0.00  0.00    +0.025 A 
ATOM     14  C   UNL     1       0.809  -0.900   0.747  0.00  0.00    +0.060 A 
ATOM     15  C   UNL     1       1.923   0.407  -0.280  0.00  0.00    +0.159 A 
ATOM     16  C   UNL     1       1.358   1.712  -1.199  0.00  0.00    +0.158 A 
ATOM     17  C   UNL     1      -0.133   1.893  -1.445  0.00  0.00    +0.050 A 
BRANCH  15  18
ATOM     18  O   UNL     1       3.354   0.516  -0.456  0.00  0.00    -0.503 OA
ATOM     19  H   UNL     1       3.525   1.356  -0.921  0.00  0.00    +0.292 HD
ENDBRANCH  15  18
BRANCH  16  20
ATOM     20  O   UNL     1       2.270   2.714  -1.400  0.00  0.00    -0.503 OA
ATOM     21  H   UNL     1       1.779   3.547  -1.269  0.00  0.00    +0.292 HD
ENDBRANCH  16  20
ENDBRANCH   1  13
BRANCH   5  22
ATOM     22  O   UNL     1      -4.105  -6.929  -1.113  0.00  0.00    -0.506 OA
ATOM     23  H   UNL     1      -4.453  -6.085  -1.492  0.00  0.00    +0.292 HD
ENDBRANCH   5  22
BRANCH   7  24
ATOM     24  O   UNL     1       0.041  -8.626   0.246  0.00  0.00    -0.507 OA
ATOM     25  H   UNL     1      -0.461  -9.425  -0.008  0.00  0.00    +0.292 HD
ENDBRANCH   7  24
BRANCH  11  26
ATOM     26  O   UNL     1      -3.068  -2.267  -1.993  0.00  0.00    -0.501 OA
ATOM     27  H   UNL     1      -2.455  -1.576  -2.289  0.00  0.00    +0.292 HD
ENDBRANCH  11  26
TORSDOF 6
