REMARK  Name = 
REMARK  17 active torsions:
REMARK  status: ('A' for Active; 'I' for Inactive)
REMARK    1  A    between atoms: C_1  and  C_2
REMARK    2  A    between atoms: C_4  and  O_53
REMARK    3  A    between atoms: C_6  and  O_52
REMARK    4  A    between atoms: C_8  and  O_51
REMARK    5  A    between atoms: C_10  and  O_13
REMARK    6  A    between atoms: O_13  and  C_14
REMARK    7  A    between atoms: C_16  and  O_50
REMARK    8  A    between atoms: C_21  and  C_42
REMARK    9  A    between atoms: C_22  and  O_25
REMARK   10  A    between atoms: O_25  and  C_26
REMARK   11  A    between atoms: C_28  and  O_41
REMARK   12  A    between atoms: C_30  and  O_40
REMARK   13  A    between atoms: C_32  and  O_39
REMARK   14  A    between atoms: C_34  and  C_37
REMARK   15  A    between atoms: C_37  and  O_38
REMARK   16  A    between atoms: C_44  and  O_49
REMARK   17  A    between atoms: C_45  and  O_48
REMARK                            x       y       z     vdW  Elec       q    Type
REMARK                         _______ _______ _______ _____ _____    ______ ____
ROOT
ATOM      1  C   UNL     1       0.258   2.701  -4.675  0.00  0.00    +0.131 A 
ATOM      2  C   UNL     1      -0.269   3.666  -3.825  0.00  0.00    +0.093 A 
ATOM      3  C   UNL     1       0.292   4.945  -3.775  0.00  0.00    +0.147 A 
ATOM      4  O   UNL     1      -0.295   5.800  -2.890  0.00  0.00    -0.451 OA
ATOM      5  C   UNL     1       0.298   7.018  -2.620  0.00  0.00    +0.181 A 
ATOM      6  C   UNL     1       1.356   7.524  -3.296  0.00  0.00    +0.214 A 
ATOM      7  C   UNL     1       1.901   6.672  -4.422  0.00  0.00    +0.238 A 
ATOM      8  O   UNL     1       2.751   7.126  -5.180  0.00  0.00    -0.283 OA
ATOM      9  C   UNL     1       1.369   5.297  -4.574  0.00  0.00    +0.109 A 
ATOM     10  C   UNL     1       1.878   4.334  -5.460  0.00  0.00    +0.135 A 
ATOM     11  C   UNL     1       1.325   3.049  -5.507  0.00  0.00    +0.092 A 
ENDROOT
BRANCH   5  12
ATOM     12  C   UNL     1      -0.411   7.612  -1.478  0.00  0.00    +0.025 A 
ATOM     13  C   UNL     1      -1.622   8.292  -1.706  0.00  0.00    +0.015 A 
ATOM     14  C   UNL     1      -2.411   8.704  -0.633  0.00  0.00    +0.050 A 
ATOM     15  C   UNL     1      -2.001   8.407   0.658  0.00  0.00    +0.158 A 
ATOM     16  C   UNL     1      -0.781   7.779   0.897  0.00  0.00    +0.159 A 
ATOM     17  C   UNL     1       0.024   7.377  -0.164  0.00  0.00    +0.060 A 
BRANCH  15  18
ATOM     18  O   UNL     1      -2.833   8.705   1.698  0.00  0.00    -0.503 OA
ATOM     19  H   UNL     1      -2.442   8.248   2.469  0.00  0.00    +0.292 HD
ENDBRANCH  15  18
BRANCH  16  20
ATOM     20  O   UNL     1      -0.428   7.556   2.199  0.00  0.00    -0.503 OA
ATOM     21  H   UNL     1       0.516   7.319   2.223  0.00  0.00    +0.292 HD
ENDBRANCH  16  20
ENDBRANCH   5  12
BRANCH  10  22
ATOM     22  O   UNL     1       2.929   4.619  -6.282  0.00  0.00    -0.506 OA
ATOM     23  H   UNL     1       3.130   3.863  -6.854  0.00  0.00    +0.292 HD
ENDBRANCH  10  22
BRANCH   6  24
ATOM     24  O   UNL     1       2.026   8.714  -3.105  0.00  0.00    -0.453 OA
BRANCH  24  25
ATOM     25  C   UNL     1       1.439   9.887  -2.535  0.00  0.00    +0.340 C 
ATOM     26  O   UNL     1       2.467  10.678  -1.931  0.00  0.00    -0.331 OA
ATOM     27  C   UNL     1       2.024  11.892  -1.289  0.00  0.00    +0.179 C 
ATOM     28  C   UNL     1       1.240  12.789  -2.272  0.00  0.00    +0.177 C 
ATOM     29  C   UNL     1       0.141  12.002  -3.018  0.00  0.00    +0.180 C 
ATOM     30  C   UNL     1       0.713  10.710  -3.625  0.00  0.00    +0.214 C 
BRANCH  28  31
ATOM     31  O   UNL     1       2.180  13.328  -3.215  0.00  0.00    -0.386 OA
ATOM     32  H   UNL     1       1.682  13.808  -3.901  0.00  0.00    +0.210 HD
ENDBRANCH  28  31
BRANCH  29  33
ATOM     33  O   UNL     1      -0.987  11.785  -2.165  0.00  0.00    -0.386 OA
ATOM     34  H   UNL     1      -0.993  10.879  -1.817  0.00  0.00    +0.210 HD
ENDBRANCH  29  33
BRANCH  30  35
ATOM     35  O   UNL     1       1.601  11.070  -4.697  0.00  0.00    -0.383 OA
ATOM     36  H   UNL     1       2.429  11.392  -4.280  0.00  0.00    +0.210 HD
ENDBRANCH  30  35
BRANCH  27  37
ATOM     37  C   UNL     1       1.246  11.673   0.026  0.00  0.00    +0.190 C 
BRANCH  37  38
ATOM     38  O   UNL     1       1.966  10.846   0.935  0.00  0.00    -0.392 OA
ATOM     39  H   UNL     1       1.465  10.846   1.770  0.00  0.00    +0.210 HD
ENDBRANCH  37  38
ENDBRANCH  27  37
ENDBRANCH  24  25
ENDBRANCH   6  24
BRANCH   1  40
ATOM     40  O   UNL     1      -0.161   1.403  -4.767  0.00  0.00    -0.461 OA
BRANCH  40  44
ATOM     41  C   UNL     1      -2.973   1.605  -1.455  0.00  0.00    +0.041 C 
ATOM     42  C   UNL     1      -1.806   0.630  -1.574  0.00  0.00    +0.150 C 
ATOM     43  O   UNL     1      -0.834   1.058  -2.533  0.00  0.00    -0.334 OA
ATOM     44  C   UNL     1      -1.235   0.981  -3.907  0.00  0.00    +0.339 C 
ATOM     45  C   UNL     1      -1.606  -0.470  -4.293  0.00  0.00    +0.214 C 
ATOM     46  C   UNL     1      -2.605  -1.082  -3.296  0.00  0.00    +0.180 C 
ATOM     47  C   UNL     1      -2.188  -0.832  -1.842  0.00  0.00    +0.174 C 
BRANCH  47  48
ATOM     48  O   UNL     1      -1.037  -1.649  -1.561  0.00  0.00    -0.387 OA
ATOM     49  H   UNL     1      -0.240  -1.149  -1.824  0.00  0.00    +0.210 HD
ENDBRANCH  47  48
BRANCH  46  50
ATOM     50  O   UNL     1      -3.939  -0.626  -3.568  0.00  0.00    -0.386 OA
ATOM     51  H   UNL     1      -3.952   0.335  -3.701  0.00  0.00    +0.210 HD
ENDBRANCH  46  50
BRANCH  45  52
ATOM     52  O   UNL     1      -2.160  -0.522  -5.619  0.00  0.00    -0.383 OA
ATOM     53  H   UNL     1      -3.108  -0.743  -5.535  0.00  0.00    +0.210 HD
ENDBRANCH  45  52
ENDBRANCH  40  44
ENDBRANCH   1  40
TORSDOF 16
