REMARK  Name = 
REMARK  24 active torsions:
REMARK  status: ('A' for Active; 'I' for Inactive)
REMARK    1  A    between atoms: C_3  and  O_55
REMARK    2  A    between atoms: C_4  and  O_54
REMARK    3  A    between atoms: C_6  and  C_7
REMARK    4  A    between atoms: C_8  and  O_20
REMARK    5  A    between atoms: C_12  and  O_19
REMARK    6  A    between atoms: C_14  and  O_18
REMARK    7  A    between atoms: O_20  and  C_21
REMARK    8  A    between atoms: C_22  and  O_53
REMARK    9  A    between atoms: C_23  and  O_52
REMARK   10  A    between atoms: C_24  and  O_51
REMARK   11  A    between atoms: C_25  and  C_27
REMARK   12  A    between atoms: C_27  and  O_28
REMARK   13  A    between atoms: O_28  and  C_29
REMARK   14  A    between atoms: C_30  and  O_50
REMARK   15  A    between atoms: C_31  and  O_49
REMARK   16  A    between atoms: C_32  and  O_48
REMARK   17  A    between atoms: C_33  and  C_35
REMARK   18  A    between atoms: C_35  and  O_36
REMARK   19  A    between atoms: O_36  and  C_37
REMARK   20  A    between atoms: C_38  and  O_47
REMARK   21  A    between atoms: C_39  and  O_46
REMARK   22  A    between atoms: C_40  and  O_45
REMARK   23  A    between atoms: C_41  and  C_43
REMARK   24  A    between atoms: C_43  and  O_44
REMARK                            x       y       z     vdW  Elec       q    Type
REMARK                         _______ _______ _______ _____ _____    ______ ____
ROOT
ATOM      1  C   UNL     1      -3.900  -0.590  -1.214  0.00  0.00    +0.340 C 
ATOM      2  O   UNL     1      -3.930   0.046  -2.516  0.00  0.00    -0.331 OA
ATOM      3  C   UNL     1      -3.065  -0.406  -3.589  0.00  0.00    +0.179 C 
ATOM      4  C   UNL     1      -1.904  -1.378  -3.247  0.00  0.00    +0.177 C 
ATOM      5  C   UNL     1      -1.975  -1.992  -1.845  0.00  0.00    +0.180 C 
ATOM      6  C   UNL     1      -2.443  -0.909  -0.870  0.00  0.00    +0.214 C 
ENDROOT
BRANCH   6   7
ATOM      7  O   UNL     1      -2.221  -1.241   0.496  0.00  0.00    -0.383 OA
ATOM      8  H   UNL     1      -3.065  -1.292   0.966  0.00  0.00    +0.210 HD
ENDBRANCH   6   7
BRANCH   5   9
ATOM      9  O   UNL     1      -0.662  -2.452  -1.490  0.00  0.00    -0.386 OA
ATOM     10  H   UNL     1      -0.260  -2.840  -2.288  0.00  0.00    +0.210 HD
ENDBRANCH   5   9
BRANCH   4  11
ATOM     11  O   UNL     1      -0.617  -0.735  -3.387  0.00  0.00    -0.386 OA
ATOM     12  H   UNL     1      -0.217  -0.645  -2.499  0.00  0.00    +0.210 HD
ENDBRANCH   4  11
BRANCH   3  13
ATOM     13  C   UNL     1      -2.524   0.866  -4.313  0.00  0.00    +0.197 C 
BRANCH  13  14
ATOM     14  O   UNL     1      -1.916   0.548  -5.577  0.00  0.00    -0.346 OA
BRANCH  14  15
ATOM     15  C   UNL     1      -1.261   1.687  -6.178  0.00  0.00    +0.282 C 
ATOM     16  O   UNL     1      -2.216   2.747  -6.413  0.00  0.00    -0.341 OA
ATOM     17  C   UNL     1      -3.232   2.281  -7.312  0.00  0.00    +0.178 C 
ATOM     18  C   UNL     1      -2.601   2.103  -8.699  0.00  0.00    +0.177 C 
ATOM     19  C   UNL     1      -1.612   0.937  -8.582  0.00  0.00    +0.179 C 
ATOM     20  C   UNL     1      -0.557   1.262  -7.512  0.00  0.00    +0.201 C 
BRANCH  20  21
ATOM     21  O   UNL     1       0.322   0.151  -7.308  0.00  0.00    -0.384 OA
ATOM     22  H   UNL     1      -0.238  -0.624  -7.116  0.00  0.00    +0.210 HD
ENDBRANCH  20  21
BRANCH  19  23
ATOM     23  O   UNL     1      -1.048   0.654  -9.863  0.00  0.00    -0.386 OA
ATOM     24  H   UNL     1      -0.874   1.513 -10.291  0.00  0.00    +0.210 HD
ENDBRANCH  19  23
BRANCH  18  25
ATOM     25  O   UNL     1      -1.909   3.274  -9.154  0.00  0.00    -0.386 OA
ATOM     26  H   UNL     1      -1.666   3.798  -8.349  0.00  0.00    +0.210 HD
ENDBRANCH  18  25
BRANCH  17  27
ATOM     27  C   UNL     1      -4.481   3.148  -7.329  0.00  0.00    +0.197 C 
BRANCH  27  28
ATOM     28  O   UNL     1      -5.429   2.595  -8.245  0.00  0.00    -0.346 OA
BRANCH  28  29
ATOM     29  C   UNL     1      -6.263   1.519  -7.773  0.00  0.00    +0.282 C 
ATOM     30  O   UNL     1      -5.596   0.280  -7.495  0.00  0.00    -0.341 OA
ATOM     31  C   UNL     1      -4.973  -0.366  -8.617  0.00  0.00    +0.178 C 
ATOM     32  C   UNL     1      -5.908  -0.542  -9.815  0.00  0.00    +0.177 C 
ATOM     33  C   UNL     1      -6.612   0.790 -10.133  0.00  0.00    +0.179 C 
ATOM     34  C   UNL     1      -7.328   1.307  -8.867  0.00  0.00    +0.201 C 
BRANCH  34  35
ATOM     35  O   UNL     1      -8.022   2.534  -9.116  0.00  0.00    -0.384 OA
ATOM     36  H   UNL     1      -7.338   3.194  -9.341  0.00  0.00    +0.210 HD
ENDBRANCH  34  35
BRANCH  33  37
ATOM     37  O   UNL     1      -7.533   0.613 -11.219  0.00  0.00    -0.386 OA
ATOM     38  H   UNL     1      -7.997  -0.231 -11.048  0.00  0.00    +0.210 HD
ENDBRANCH  33  37
BRANCH  32  39
ATOM     39  O   UNL     1      -6.892  -1.555  -9.571  0.00  0.00    -0.386 OA
ATOM     40  H   UNL     1      -7.104  -1.561  -8.620  0.00  0.00    +0.210 HD
ENDBRANCH  32  39
BRANCH  31  41
ATOM     41  C   UNL     1      -4.302  -1.664  -8.135  0.00  0.00    +0.190 C 
BRANCH  41  42
ATOM     42  O   UNL     1      -3.400  -2.185  -9.101  0.00  0.00    -0.392 OA
ATOM     43  H   UNL     1      -3.902  -2.473  -9.883  0.00  0.00    +0.210 HD
ENDBRANCH  41  42
ENDBRANCH  31  41
ENDBRANCH  28  29
ENDBRANCH  27  28
ENDBRANCH  17  27
ENDBRANCH  14  15
ENDBRANCH  13  14
ENDBRANCH   3  13
BRANCH   1  44
ATOM     44  O   UNL     1      -4.804  -1.725  -1.154  0.00  0.00    -0.453 OA
BRANCH  44  55
ATOM     45  C   UNL     1      -6.610  -1.539   0.524  0.00  0.00    +0.181 A 
ATOM     46  O   UNL     1      -7.331  -2.095   1.584  0.00  0.00    -0.451 OA
ATOM     47  C   UNL     1      -6.853  -3.161   2.292  0.00  0.00    +0.147 A 
ATOM     48  C   UNL     1      -5.681  -3.805   1.947  0.00  0.00    +0.109 A 
ATOM     49  C   UNL     1      -5.242  -4.872   2.751  0.00  0.00    +0.135 A 
ATOM     50  C   UNL     1      -5.972  -5.285   3.874  0.00  0.00    +0.091 A 
ATOM     51  C   UNL     1      -7.158  -4.635   4.187  0.00  0.00    +0.124 A 
ATOM     52  C   UNL     1      -4.965  -3.324   0.745  0.00  0.00    +0.238 A 
ATOM     53  O   UNL     1      -3.954  -3.918   0.381  0.00  0.00    -0.283 OA
ATOM     54  C   UNL     1      -7.605  -3.577   3.401  0.00  0.00    +0.092 A 
ATOM     55  C   UNL     1      -5.461  -2.080   0.034  0.00  0.00    +0.214 A 
BRANCH  45  57
ATOM     56  C   UNL     1      -6.871   0.517  -0.980  0.00  0.00    +0.015 A 
ATOM     57  C   UNL     1      -7.258  -0.246   0.126  0.00  0.00    +0.025 A 
ATOM     58  C   UNL     1      -8.219   0.330   0.988  0.00  0.00    +0.060 A 
ATOM     59  C   UNL     1      -8.592   1.659   0.851  0.00  0.00    +0.159 A 
ATOM     60  C   UNL     1      -8.010   2.452  -0.123  0.00  0.00    +0.158 A 
ATOM     61  C   UNL     1      -7.183   1.878  -1.073  0.00  0.00    +0.050 A 
BRANCH  60  62
ATOM     62  O   UNL     1      -8.267   3.791  -0.100  0.00  0.00    -0.503 OA
ATOM     63  H   UNL     1      -7.526   4.237  -0.546  0.00  0.00    +0.292 HD
ENDBRANCH  60  62
BRANCH  59  64
ATOM     64  O   UNL     1      -9.494   2.193   1.724  0.00  0.00    -0.503 OA
ATOM     65  H   UNL     1      -9.619   3.113   1.420  0.00  0.00    +0.292 HD
ENDBRANCH  59  64
ENDBRANCH  45  57
BRANCH  51  66
ATOM     66  O   UNL     1      -7.915  -4.999   5.262  0.00  0.00    -0.507 OA
ATOM     67  H   UNL     1      -7.488  -5.741   5.725  0.00  0.00    +0.292 HD
ENDBRANCH  51  66
BRANCH  49  68
ATOM     68  O   UNL     1      -4.088  -5.564   2.506  0.00  0.00    -0.506 OA
ATOM     69  H   UNL     1      -3.674  -5.200   1.690  0.00  0.00    +0.292 HD
ENDBRANCH  49  68
ENDBRANCH  44  55
ENDBRANCH   1  44
TORSDOF 24
