REMARK  Name = 
REMARK  8 active torsions:
REMARK  status: ('A' for Active; 'I' for Inactive)
REMARK    1  A    between atoms: C_4  and  O_29
REMARK    2  A    between atoms: C_6  and  C_7
REMARK    3  A    between atoms: C_8  and  O_24
REMARK    4  A    between atoms: C_12  and  O_23
REMARK    5  A    between atoms: C_14  and  O_18
REMARK    6  A    between atoms: O_18  and  S_19
REMARK    7  A    between atoms: O_24  and  S_25
REMARK    8  A    between atoms: O_29  and  S_30
REMARK                            x       y       z     vdW  Elec       q    Type
REMARK                         _______ _______ _______ _____ _____    ______ ____
ROOT
ATOM      1  C   UNL     1      -1.404  -2.534  -0.115  0.00  0.00    +0.184 A 
ATOM      2  O   UNL     1      -0.676  -3.724  -0.010  0.00  0.00    -0.451 OA
ATOM      3  C   UNL     1      -1.303  -4.924  -0.213  0.00  0.00    +0.147 A 
ATOM      4  C   UNL     1      -2.645  -5.006  -0.535  0.00  0.00    +0.109 A 
ATOM      5  C   UNL     1      -3.243  -6.266  -0.706  0.00  0.00    +0.135 A 
ATOM      6  C   UNL     1      -2.503  -7.438  -0.559  0.00  0.00    +0.095 A 
ATOM      7  C   UNL     1      -1.149  -7.364  -0.247  0.00  0.00    +0.162 A 
ATOM      8  C   UNL     1      -3.423  -3.768  -0.649  0.00  0.00    +0.241 A 
ATOM      9  O   UNL     1      -4.622  -3.914  -0.865  0.00  0.00    -0.283 OA
ATOM     10  C   UNL     1      -0.552  -6.102  -0.067  0.00  0.00    +0.095 A 
ATOM     11  C   UNL     1      -2.717  -2.464  -0.447  0.00  0.00    +0.244 A 
ENDROOT
BRANCH   1  13
ATOM     12  C   UNL     1       0.257  -0.884  -0.948  0.00  0.00    +0.011 A 
ATOM     13  C   UNL     1      -0.510  -1.365   0.113  0.00  0.00    +0.025 A 
ATOM     14  C   UNL     1      -0.252  -0.846   1.393  0.00  0.00    +0.059 A 
ATOM     15  C   UNL     1       0.802   0.082   1.611  0.00  0.00    +0.148 A 
ATOM     16  C   UNL     1       1.636   0.553   0.542  0.00  0.00    -0.062 A 
ATOM     17  O   UNL     1       2.627   1.361   0.662  0.00  0.00    -0.871 OA
ATOM     18  C   UNL     1       1.293   0.039  -0.725  0.00  0.00    -0.004 A 
BRANCH  15  19
ATOM     19  O   UNL     1       1.101   0.607   2.868  0.00  0.00    -0.361 OA
BRANCH  19  20
ATOM     20  S   UNL     1       0.603   0.019   4.307  0.00  0.00    +0.042 S 
ATOM     21  O   UNL     1      -0.798   0.430   4.443  0.00  0.00    -0.259 OA
ATOM     22  O   UNL     1       1.472   0.666   5.295  0.00  0.00    -0.336 OA
ATOM     23  O   UNL     1       0.787  -1.437   4.263  0.00  0.00    -0.336 OA
ENDBRANCH  19  20
ENDBRANCH  15  19
ENDBRANCH   1  13
BRANCH   5  24
ATOM     24  O   UNL     1      -4.577  -6.421  -1.003  0.00  0.00    -0.506 OA
ATOM     25  H   UNL     1      -4.957  -5.510  -1.063  0.00  0.00    +0.292 HD
ENDBRANCH   5  24
BRANCH   7  26
ATOM     26  O   UNL     1      -0.346  -8.460  -0.019  0.00  0.00    -0.360 OA
BRANCH  26  27
ATOM     27  S   UNL     1      -0.574  -9.922  -0.738  0.00  0.00    +0.042 S 
ATOM     28  O   UNL     1       0.558 -10.722  -0.263  0.00  0.00    -0.259 OA
ATOM     29  O   UNL     1      -0.533  -9.654  -2.175  0.00  0.00    -0.336 OA
ATOM     30  O   UNL     1      -1.861 -10.417  -0.250  0.00  0.00    -0.336 OA
ENDBRANCH  26  27
ENDBRANCH   7  26
BRANCH  11  31
ATOM     31  O   UNL     1      -3.384  -1.246  -0.565  0.00  0.00    -0.353 OA
BRANCH  31  32
ATOM     32  S   UNL     1      -4.788  -1.015  -1.389  0.00  0.00    +0.043 S 
ATOM     33  O   UNL     1      -4.861   0.436  -1.565  0.00  0.00    -0.259 OA
ATOM     34  O   UNL     1      -5.851  -1.521  -0.520  0.00  0.00    -0.336 OA
ATOM     35  O   UNL     1      -4.616  -1.723  -2.659  0.00  0.00    -0.336 OA
ENDBRANCH  31  32
ENDBRANCH  11  31
TORSDOF 8
