REMARK  Name = 
REMARK  9 active torsions:
REMARK  status: ('A' for Active; 'I' for Inactive)
REMARK    1  A    between atoms: C_1  and  N_2
REMARK    2  A    between atoms: N_9  and  C_14
REMARK    3  A    between atoms: N_12  and  C_13
REMARK    4  A    between atoms: C_17  and  O_36
REMARK    5  A    between atoms: C_18  and  O_35
REMARK    6  A    between atoms: C_20  and  C_21
REMARK    7  A    between atoms: C_22  and  O_34
REMARK    8  A    between atoms: C_26  and  O_33
REMARK    9  A    between atoms: C_28  and  O_32
REMARK                            x       y       z     vdW  Elec       q    Type
REMARK                         _______ _______ _______ _____ _____    ______ ____
ROOT
ATOM      1  C   UNL     1       1.459  -0.100   1.966  0.00  0.00    +0.150 C 
ATOM      2  N   UNL     1       2.739  -0.076   1.306  0.00  0.00    -0.328 N 
ATOM      3  C   UNL     1       3.459  -1.147   0.857  0.00  0.00    +0.151 A 
ATOM      4  C   UNL     1       3.148  -2.530   0.750  0.00  0.00    +0.282 A 
ATOM      5  N   UNL     1       4.222  -3.291   0.276  0.00  0.00    -0.262 N 
ATOM      6  C   UNL     1       4.018  -4.717   0.099  0.00  0.00    +0.157 C 
ATOM      7  C   UNL     1       5.529  -2.809   0.056  0.00  0.00    +0.333 A 
ATOM      8  N   UNL     1       5.730  -1.436   0.173  0.00  0.00    -0.280 N 
ATOM      9  C   UNL     1       7.051  -0.866  -0.012  0.00  0.00    +0.155 C 
ATOM     10  O   UNL     1       6.449  -3.582  -0.232  0.00  0.00    -0.246 OA
ATOM     11  O   UNL     1       2.045  -2.991   1.030  0.00  0.00    -0.265 OA
ATOM     12  C   UNL     1       4.677  -0.631   0.531  0.00  0.00    +0.168 A 
ATOM     13  N   UNL     1       4.702   0.728   0.636  0.00  0.00    -0.218 NA
ATOM     14  C   UNL     1       3.504   1.041   1.088  0.00  0.00    +0.202 A 
ENDROOT
TORSDOF 0
REMARK  Name = 
REMARK  9 active torsions:
REMARK  status: ('A' for Active; 'I' for Inactive)
REMARK    1  A    between atoms: C_1  and  N_2
REMARK    2  A    between atoms: N_9  and  C_14
REMARK    3  A    between atoms: N_12  and  C_13
REMARK    4  A    between atoms: C_17  and  O_36
REMARK    5  A    between atoms: C_18  and  O_35
REMARK    6  A    between atoms: C_20  and  C_21
REMARK    7  A    between atoms: C_22  and  O_34
REMARK    8  A    between atoms: C_26  and  O_33
REMARK    9  A    between atoms: C_28  and  O_32
REMARK                            x       y       z     vdW  Elec       q    Type
REMARK                         _______ _______ _______ _____ _____    ______ ____
ROOT
ATOM      1  C   UNL     1      -1.664  -2.453  -0.724  0.00  0.00    +0.181 A 
ATOM      2  O   UNL     1      -0.825  -3.526  -0.408  0.00  0.00    -0.451 OA
ATOM      3  C   UNL     1      -1.345  -4.799  -0.397  0.00  0.00    +0.147 A 
ATOM      4  C   UNL     1      -2.698  -5.057  -0.589  0.00  0.00    +0.109 A 
ATOM      5  C   UNL     1      -3.175  -6.374  -0.627  0.00  0.00    +0.135 A 
ATOM      6  C   UNL     1      -2.302  -7.443  -0.460  0.00  0.00    +0.091 A 
ATOM      7  C   UNL     1      -0.953  -7.183  -0.235  0.00  0.00    +0.124 A 
ATOM      8  C   UNL     1      -3.605  -3.927  -0.775  0.00  0.00    +0.238 A 
ATOM      9  O   UNL     1      -4.815  -4.124  -0.857  0.00  0.00    -0.283 OA
ATOM     10  C   UNL     1      -0.468  -5.871  -0.200  0.00  0.00    +0.092 A 
ATOM     11  C   UNL     1      -2.996  -2.583  -0.918  0.00  0.00    +0.208 A 
ENDROOT
BRANCH   1  13
ATOM     12  C   UNL     1       0.340  -1.091  -1.422  0.00  0.00    +0.015 A 
ATOM     13  C   UNL     1      -0.952  -1.148  -0.862  0.00  0.00    +0.025 A 
ATOM     14  C   UNL     1      -1.537   0.063  -0.447  0.00  0.00    +0.060 A 
ATOM     15  C   UNL     1      -0.898   1.275  -0.686  0.00  0.00    +0.159 A 
ATOM     16  C   UNL     1       0.367   1.315  -1.257  0.00  0.00    +0.158 A 
ATOM     17  C   UNL     1       1.002   0.134  -1.613  0.00  0.00    +0.050 A 
BRANCH  15  18
ATOM     18  O   UNL     1      -1.541   2.433  -0.354  0.00  0.00    -0.503 OA
ATOM     19  H   UNL     1      -0.961   3.149  -0.683  0.00  0.00    +0.292 HD
ENDBRANCH  15  18
BRANCH  16  20
ATOM     20  O   UNL     1       0.952   2.538  -1.418  0.00  0.00    -0.503 OA
ATOM     21  H   UNL     1       1.837   2.411  -1.805  0.00  0.00    +0.292 HD
ENDBRANCH  16  20
ENDBRANCH   1  13
BRANCH   5  22
ATOM     22  O   UNL     1      -4.492  -6.684  -0.843  0.00  0.00    -0.506 OA
ATOM     23  H   UNL     1      -4.996  -5.840  -0.914  0.00  0.00    +0.292 HD
ENDBRANCH   5  22
BRANCH   7  24
ATOM     24  O   UNL     1      -0.073  -8.212  -0.052  0.00  0.00    -0.507 OA
ATOM     25  H   UNL     1      -0.562  -9.056  -0.079  0.00  0.00    +0.292 HD
ENDBRANCH   7  24
BRANCH  11  26
ATOM     26  O   UNL     1      -3.865  -1.571  -1.287  0.00  0.00    -0.501 OA
ATOM     27  H   UNL     1      -3.367  -0.855  -1.711  0.00  0.00    +0.292 HD
ENDBRANCH  11  26
TORSDOF 6
