REMARK  Name = 
REMARK  8 active torsions:
REMARK  status: ('A' for Active; 'I' for Inactive)
REMARK    1  A    between atoms: C_1  and  C_2
REMARK    2  A    between atoms: C_2  and  O_3
REMARK    3  A    between atoms: C_6  and  O_25
REMARK    4  A    between atoms: C_7  and  O_24
REMARK    5  A    between atoms: C_9  and  C_10
REMARK    6  A    between atoms: C_11  and  O_23
REMARK    7  A    between atoms: C_15  and  O_22
REMARK    8  A    between atoms: C_17  and  O_21
REMARK                            x       y       z     vdW  Elec       q    Type
REMARK                         _______ _______ _______ _____ _____    ______ ____
ROOT
ATOM      1  C   UNL     1       1.277  -0.304   1.960  0.00  0.00    +0.034 C 
ATOM      2  C   UNL     1       2.721  -0.363   1.507  0.00  0.00    +0.152 C 
ENDROOT
BRANCH   2   3
ATOM      3  O   UNL     1       3.304   0.931   1.548  0.00  0.00    -0.395 OA
ATOM      4  H   UNL     1       2.702   1.538   1.083  0.00  0.00    +0.209 HD
ENDBRANCH   2   3
TORSDOF 1
REMARK  Name = 
REMARK  8 active torsions:
REMARK  status: ('A' for Active; 'I' for Inactive)
REMARK    1  A    between atoms: C_1  and  C_2
REMARK    2  A    between atoms: C_2  and  O_3
REMARK    3  A    between atoms: C_6  and  O_25
REMARK    4  A    between atoms: C_7  and  O_24
REMARK    5  A    between atoms: C_9  and  C_10
REMARK    6  A    between atoms: C_11  and  O_23
REMARK    7  A    between atoms: C_15  and  O_22
REMARK    8  A    between atoms: C_17  and  O_21
REMARK                            x       y       z     vdW  Elec       q    Type
REMARK                         _______ _______ _______ _____ _____    ______ ____
ROOT
ATOM      1  C   UNL     1      -1.582  -2.520  -0.763  0.00  0.00    +0.181 A 
ATOM      2  O   UNL     1      -0.751  -3.604  -0.458  0.00  0.00    -0.451 OA
ATOM      3  C   UNL     1      -1.292  -4.871  -0.426  0.00  0.00    +0.147 A 
ATOM      4  C   UNL     1      -2.648  -5.111  -0.611  0.00  0.00    +0.109 A 
ATOM      5  C   UNL     1      -3.151  -6.421  -0.612  0.00  0.00    +0.135 A 
ATOM      6  C   UNL     1      -2.300  -7.500  -0.410  0.00  0.00    +0.091 A 
ATOM      7  C   UNL     1      -0.944  -7.258  -0.202  0.00  0.00    +0.124 A 
ATOM      8  C   UNL     1      -3.539  -3.975  -0.821  0.00  0.00    +0.238 A 
ATOM      9  O   UNL     1      -4.749  -4.157  -0.925  0.00  0.00    -0.283 OA
ATOM     10  C   UNL     1      -0.433  -5.954  -0.210  0.00  0.00    +0.092 A 
ATOM     11  C   UNL     1      -2.916  -2.635  -0.956  0.00  0.00    +0.208 A 
ENDROOT
BRANCH   1  13
ATOM     12  C   UNL     1       0.429  -1.166  -1.468  0.00  0.00    +0.015 A 
ATOM     13  C   UNL     1      -0.859  -1.219  -0.899  0.00  0.00    +0.025 A 
ATOM     14  C   UNL     1      -1.437   0.000  -0.491  0.00  0.00    +0.060 A 
ATOM     15  C   UNL     1      -0.806   1.208  -0.756  0.00  0.00    +0.159 A 
ATOM     16  C   UNL     1       0.454   1.243  -1.339  0.00  0.00    +0.158 A 
ATOM     17  C   UNL     1       1.089   0.058  -1.681  0.00  0.00    +0.050 A 
BRANCH  15  18
ATOM     18  O   UNL     1      -1.448   2.370  -0.436  0.00  0.00    -0.503 OA
ATOM     19  H   UNL     1      -0.858   3.084  -0.750  0.00  0.00    +0.292 HD
ENDBRANCH  15  18
BRANCH  16  20
ATOM     20  O   UNL     1       1.033   2.466  -1.526  0.00  0.00    -0.503 OA
ATOM     21  H   UNL     1       1.895   2.342  -1.962  0.00  0.00    +0.292 HD
ENDBRANCH  16  20
ENDBRANCH   1  13
BRANCH   5  22
ATOM     22  O   UNL     1      -4.472  -6.718  -0.816  0.00  0.00    -0.506 OA
ATOM     23  H   UNL     1      -4.963  -5.869  -0.915  0.00  0.00    +0.292 HD
ENDBRANCH   5  22
BRANCH   7  24
ATOM     24  O   UNL     1      -0.080  -8.291   0.005  0.00  0.00    -0.507 OA
ATOM     25  H   UNL     1      -0.573  -9.131   0.003  0.00  0.00    +0.292 HD
ENDBRANCH   7  24
BRANCH  11  26
ATOM     26  O   UNL     1      -3.778  -1.616  -1.319  0.00  0.00    -0.501 OA
ATOM     27  H   UNL     1      -3.278  -0.893  -1.727  0.00  0.00    +0.292 HD
ENDBRANCH  11  26
TORSDOF 6
