REMARK  Name = 
REMARK  21 active torsions:
REMARK  status: ('A' for Active; 'I' for Inactive)
REMARK    1  A    between atoms: C_1  and  C_2
REMARK    2  A    between atoms: C_3  and  O_54
REMARK    3  A    between atoms: C_4  and  O_53
REMARK    4  A    between atoms: C_5  and  O_30
REMARK    5  A    between atoms: C_6  and  O_8
REMARK    6  A    between atoms: O_8  and  C_9
REMARK    7  A    between atoms: C_10  and  C_22
REMARK    8  A    between atoms: C_14  and  O_21
REMARK    9  A    between atoms: C_16  and  O_20
REMARK   10  A    between atoms: C_24  and  O_29
REMARK   11  A    between atoms: C_25  and  O_28
REMARK   12  A    between atoms: O_30  and  C_31
REMARK   13  A    between atoms: C_32  and  O_52
REMARK   14  A    between atoms: C_33  and  O_51
REMARK   15  A    between atoms: C_34  and  O_50
REMARK   16  A    between atoms: C_35  and  C_37
REMARK   17  A    between atoms: C_37  and  O_38
REMARK   18  A    between atoms: O_38  and  C_39
REMARK   19  A    between atoms: C_39  and  C_41
REMARK   20  A    between atoms: C_42  and  C_43
REMARK   21  A    between atoms: C_46  and  O_49
REMARK                            x       y       z     vdW  Elec       q    Type
REMARK                         _______ _______ _______ _____ _____    ______ ____
ROOT
ATOM      1  C   UNL     1       0.509   0.347   0.594  0.00  0.00    +0.041 C 
ATOM      2  C   UNL     1       2.030   0.228   0.456  0.00  0.00    +0.150 C 
ATOM      3  O   UNL     1       2.686   1.222  -0.333  0.00  0.00    -0.334 OA
ATOM      4  C   UNL     1       2.882   1.048  -1.762  0.00  0.00    +0.340 C 
ATOM      5  C   UNL     1       3.040  -0.458  -2.307  0.00  0.00    +0.221 C 
ATOM      6  C   UNL     1       2.057  -1.310  -1.479  0.00  0.00    +0.180 C 
ATOM      7  C   UNL     1       2.423  -1.162   0.013  0.00  0.00    +0.174 C 
ENDROOT
BRANCH   6   8
ATOM      8  O   UNL     1       1.866  -2.656  -1.874  0.00  0.00    -0.386 OA
ATOM      9  H   UNL     1       2.662  -2.990  -2.341  0.00  0.00    +0.210 HD
ENDBRANCH   6   8
BRANCH   7  10
ATOM     10  O   UNL     1       1.852  -2.146   0.863  0.00  0.00    -0.387 OA
ATOM     11  H   UNL     1       1.262  -2.683   0.307  0.00  0.00    +0.210 HD
ENDBRANCH   7  10
BRANCH   5  12
ATOM     12  O   UNL     1       4.415  -0.924  -2.220  0.00  0.00    -0.337 OA
BRANCH  12  13
ATOM     13  C   UNL     1       4.757  -2.122  -2.963  0.00  0.00    +0.282 C 
ATOM     14  O   UNL     1       4.280  -3.309  -2.295  0.00  0.00    -0.339 OA
ATOM     15  C   UNL     1       4.744  -3.352  -0.927  0.00  0.00    +0.190 C 
ATOM     16  C   UNL     1       6.257  -3.446  -0.785  0.00  0.00    +0.178 C 
ATOM     17  C   UNL     1       6.916  -2.370  -1.685  0.00  0.00    +0.179 C 
ATOM     18  C   UNL     1       6.287  -2.295  -3.089  0.00  0.00    +0.201 C 
BRANCH  17  19
ATOM     19  O   UNL     1       8.321  -2.627  -1.817  0.00  0.00    -0.386 OA
ATOM     20  H   UNL     1       8.612  -3.038  -0.980  0.00  0.00    +0.210 HD
ENDBRANCH  17  19
BRANCH  16  21
ATOM     21  O   UNL     1       6.763  -4.748  -1.054  0.00  0.00    -0.386 OA
ATOM     22  H   UNL     1       7.146  -4.760  -1.949  0.00  0.00    +0.210 HD
ENDBRANCH  16  21
BRANCH  18  23
ATOM     23  O   UNL     1       6.873  -1.235  -3.850  0.00  0.00    -0.384 OA
ATOM     24  H   UNL     1       7.803  -1.176  -3.556  0.00  0.00    +0.210 HD
ENDBRANCH  18  23
BRANCH  15  25
ATOM     25  C   UNL     1       3.832  -4.216  -0.054  0.00  0.00    +0.266 C 
BRANCH  25  26
ATOM     26  O   UNL     1       4.122  -5.599   0.016  0.00  0.00    -0.459 OA
BRANCH  26  27
ATOM     27  C   UNL     1       4.682  -5.937   1.197  0.00  0.00    +0.332 C 
ATOM     28  O   UNL     1       5.256  -5.190   1.976  0.00  0.00    -0.246 OA
BRANCH  27  29
ATOM     29  C   UNL     1       4.482  -7.361   1.483  0.00  0.00    +0.092 C 
ATOM     30  C   UNL     1       3.497  -8.118   0.981  0.00  0.00    +0.015 C 
BRANCH  30  31
ATOM     31  C   UNL     1       3.432  -9.552   1.286  0.00  0.00    -0.025 A 
ATOM     32  C   UNL     1       4.618 -10.281   1.457  0.00  0.00    +0.011 A 
ATOM     33  C   UNL     1       4.582 -11.639   1.761  0.00  0.00    +0.046 A 
ATOM     34  C   UNL     1       3.360 -12.283   1.860  0.00  0.00    +0.117 A 
ATOM     35  C   UNL     1       2.168 -11.592   1.654  0.00  0.00    +0.046 A 
ATOM     36  C   UNL     1       2.205 -10.222   1.361  0.00  0.00    +0.011 A 
BRANCH  34  37
ATOM     37  O   UNL     1       3.373 -13.600   2.161  0.00  0.00    -0.507 OA
ATOM     38  H   UNL     1       2.460 -13.921   2.246  0.00  0.00    +0.292 HD
ENDBRANCH  34  37
ENDBRANCH  30  31
ENDBRANCH  27  29
ENDBRANCH  26  27
ENDBRANCH  25  26
ENDBRANCH  15  25
ENDBRANCH  12  13
ENDBRANCH   5  12
BRANCH   4  39
ATOM     39  O   UNL     1       4.054   1.859  -2.099  0.00  0.00    -0.453 OA
BRANCH  39  40
ATOM     40  C   UNL     1       3.901   2.909  -3.008  0.00  0.00    +0.214 A 
ATOM     41  C   UNL     1       2.981   2.698  -4.180  0.00  0.00    +0.238 A 
ATOM     42  O   UNL     1       2.536   1.582  -4.430  0.00  0.00    -0.283 OA
ATOM     43  C   UNL     1       2.674   3.845  -5.046  0.00  0.00    +0.109 A 
ATOM     44  C   UNL     1       3.449   4.979  -4.885  0.00  0.00    +0.147 A 
ATOM     45  C   UNL     1       3.258   6.098  -5.710  0.00  0.00    +0.092 A 
ATOM     46  C   UNL     1       2.264   6.067  -6.683  0.00  0.00    +0.124 A 
ATOM     47  C   UNL     1       1.470   4.942  -6.852  0.00  0.00    +0.091 A 
ATOM     48  O   UNL     1       4.432   5.067  -3.947  0.00  0.00    -0.451 OA
ATOM     49  C   UNL     1       1.675   3.831  -6.031  0.00  0.00    +0.135 A 
ATOM     50  C   UNL     1       4.635   4.058  -2.999  0.00  0.00    +0.181 A 
BRANCH  50  51
ATOM     51  C   UNL     1       5.786   4.464  -2.081  0.00  0.00    +0.025 A 
ATOM     52  C   UNL     1       6.596   5.579  -2.466  0.00  0.00    +0.015 A 
ATOM     53  C   UNL     1       7.714   6.021  -1.742  0.00  0.00    +0.050 A 
ATOM     54  C   UNL     1       8.055   5.357  -0.590  0.00  0.00    +0.158 A 
ATOM     55  C   UNL     1       7.276   4.295  -0.136  0.00  0.00    +0.159 A 
ATOM     56  C   UNL     1       6.158   3.837  -0.878  0.00  0.00    +0.060 A 
BRANCH  55  57
ATOM     57  O   UNL     1       7.669   3.711   1.041  0.00  0.00    -0.503 OA
ATOM     58  H   UNL     1       6.992   3.056   1.289  0.00  0.00    +0.292 HD
ENDBRANCH  55  57
BRANCH  54  59
ATOM     59  O   UNL     1       9.147   5.780   0.125  0.00  0.00    -0.503 OA
ATOM     60  H   UNL     1       9.202   5.176   0.891  0.00  0.00    +0.292 HD
ENDBRANCH  54  59
ENDBRANCH  50  51
BRANCH  49  61
ATOM     61  O   UNL     1       0.868   2.739  -6.202  0.00  0.00    -0.506 OA
ATOM     62  H   UNL     1       0.338   2.836  -7.011  0.00  0.00    +0.292 HD
ENDBRANCH  49  61
BRANCH  46  63
ATOM     63  O   UNL     1       2.019   7.131  -7.499  0.00  0.00    -0.507 OA
ATOM     64  H   UNL     1       2.582   7.880  -7.239  0.00  0.00    +0.292 HD
ENDBRANCH  46  63
ENDBRANCH  39  40
ENDBRANCH   4  39
TORSDOF 20
