REMARK  Name = 
REMARK  18 active torsions:
REMARK  status: ('A' for Active; 'I' for Inactive)
REMARK    1  A    between atoms: C_3  and  O_53
REMARK    2  A    between atoms: C_4  and  O_52
REMARK    3  A    between atoms: C_6  and  C_7
REMARK    4  A    between atoms: C_8  and  O_20
REMARK    5  A    between atoms: C_12  and  O_19
REMARK    6  A    between atoms: C_14  and  O_18
REMARK    7  A    between atoms: O_20  and  C_21
REMARK    8  A    between atoms: C_23  and  O_51
REMARK    9  A    between atoms: C_25  and  O_50
REMARK   10  A    between atoms: C_27  and  O_49
REMARK   11  A    between atoms: C_29  and  C_32
REMARK   12  A    between atoms: C_32  and  O_33
REMARK   13  A    between atoms: O_33  and  C_34
REMARK   14  A    between atoms: C_36  and  O_48
REMARK   15  A    between atoms: C_38  and  O_47
REMARK   16  A    between atoms: C_39  and  O_46
REMARK   17  A    between atoms: C_41  and  C_44
REMARK   18  A    between atoms: C_44  and  O_45
REMARK                            x       y       z     vdW  Elec       q    Type
REMARK                         _______ _______ _______ _____ _____    ______ ____
ROOT
ATOM      1  C   UNL     1      -2.073  -0.875  -1.029  0.00  0.00    +0.340 C 
ATOM      2  O   UNL     1      -2.958  -0.067  -1.826  0.00  0.00    -0.331 OA
ATOM      3  C   UNL     1      -3.101  -0.257  -3.258  0.00  0.00    +0.179 C 
ATOM      4  C   UNL     1      -2.261  -1.312  -4.013  0.00  0.00    +0.177 C 
ATOM      5  C   UNL     1      -1.640  -2.287  -3.045  0.00  0.00    +0.180 C 
ATOM      6  C   UNL     1      -0.987  -1.445  -1.945  0.00  0.00    +0.214 C 
ENDROOT
BRANCH   6   7
ATOM      7  O   UNL     1      -0.160  -0.387  -2.490  0.00  0.00    -0.383 OA
ATOM      8  H   UNL     1      -0.506   0.471  -2.172  0.00  0.00    +0.210 HD
ENDBRANCH   6   7
BRANCH   5   9
ATOM      9  O   UNL     1      -2.626  -3.223  -2.594  0.00  0.00    -0.386 OA
ATOM     10  H   UNL     1      -3.256  -2.791  -1.986  0.00  0.00    +0.210 HD
ENDBRANCH   5   9
BRANCH   4  11
ATOM     11  O   UNL     1      -1.237  -0.650  -4.780  0.00  0.00    -0.386 OA
ATOM     12  H   UNL     1      -0.463  -0.494  -4.170  0.00  0.00    +0.210 HD
ENDBRANCH   4  11
BRANCH   3  13
ATOM     13  C   UNL     1      -4.598  -0.461  -3.533  0.00  0.00    +0.197 C 
BRANCH  13  14
ATOM     14  O   UNL     1      -5.399   0.638  -3.082  0.00  0.00    -0.346 OA
BRANCH  14  15
ATOM     15  C   UNL     1      -5.105   1.900  -3.683  0.00  0.00    +0.282 C 
ATOM     16  O   UNL     1      -5.816   2.957  -3.028  0.00  0.00    -0.341 OA
ATOM     17  C   UNL     1      -7.242   2.947  -3.170  0.00  0.00    +0.178 C 
ATOM     18  C   UNL     1      -7.688   2.807  -4.637  0.00  0.00    +0.177 C 
ATOM     19  C   UNL     1      -6.906   1.726  -5.393  0.00  0.00    +0.179 C 
ATOM     20  C   UNL     1      -5.398   1.908  -5.192  0.00  0.00    +0.201 C 
BRANCH  20  21
ATOM     21  O   UNL     1      -4.962   3.128  -5.815  0.00  0.00    -0.384 OA
ATOM     22  H   UNL     1      -5.438   3.856  -5.356  0.00  0.00    +0.210 HD
ENDBRANCH  20  21
BRANCH  19  23
ATOM     23  O   UNL     1      -7.211   1.819  -6.796  0.00  0.00    -0.386 OA
ATOM     24  H   UNL     1      -6.484   2.345  -7.192  0.00  0.00    +0.210 HD
ENDBRANCH  19  23
BRANCH  18  25
ATOM     25  O   UNL     1      -7.450   4.060  -5.312  0.00  0.00    -0.386 OA
ATOM     26  H   UNL     1      -7.814   3.935  -6.212  0.00  0.00    +0.210 HD
ENDBRANCH  18  25
BRANCH  17  27
ATOM     27  C   UNL     1      -7.899   1.944  -2.210  0.00  0.00    +0.190 C 
BRANCH  27  28
ATOM     28  O   UNL     1      -9.313   2.097  -2.209  0.00  0.00    -0.392 OA
ATOM     29  H   UNL     1      -9.693   1.340  -2.688  0.00  0.00    +0.210 HD
ENDBRANCH  27  28
ENDBRANCH  17  27
ENDBRANCH  14  15
ENDBRANCH  13  14
ENDBRANCH   3  13
BRANCH   1  30
ATOM     30  O   UNL     1      -2.813  -1.865  -0.258  0.00  0.00    -0.453 OA
BRANCH  30  41
ATOM     31  C   UNL     1      -2.726  -2.648   2.100  0.00  0.00    +0.181 A 
ATOM     32  O   UNL     1      -1.922  -2.960   3.240  0.00  0.00    -0.451 OA
ATOM     33  C   UNL     1      -0.575  -2.652   3.222  0.00  0.00    +0.147 A 
ATOM     34  C   UNL     1       0.039  -2.319   2.030  0.00  0.00    +0.109 A 
ATOM     35  C   UNL     1       1.404  -2.015   1.942  0.00  0.00    +0.135 A 
ATOM     36  C   UNL     1       2.185  -2.101   3.067  0.00  0.00    +0.091 A 
ATOM     37  C   UNL     1       1.596  -2.540   4.256  0.00  0.00    +0.124 A 
ATOM     38  C   UNL     1      -0.748  -2.641   0.887  0.00  0.00    +0.238 A 
ATOM     39  O   UNL     1      -0.246  -3.352   0.026  0.00  0.00    -0.283 OA
ATOM     40  C   UNL     1       0.214  -2.781   4.352  0.00  0.00    +0.092 A 
ATOM     41  C   UNL     1      -2.181  -2.262   0.917  0.00  0.00    +0.214 A 
BRANCH  31  43
ATOM     42  C   UNL     1      -4.608  -3.257   3.660  0.00  0.00    +0.015 A 
ATOM     43  C   UNL     1      -4.177  -2.949   2.346  0.00  0.00    +0.025 A 
ATOM     44  C   UNL     1      -5.113  -3.129   1.313  0.00  0.00    +0.060 A 
ATOM     45  C   UNL     1      -6.380  -3.647   1.585  0.00  0.00    +0.159 A 
ATOM     46  C   UNL     1      -6.752  -4.001   2.878  0.00  0.00    +0.158 A 
ATOM     47  C   UNL     1      -5.880  -3.786   3.928  0.00  0.00    +0.050 A 
BRANCH  46  48
ATOM     48  O   UNL     1      -7.976  -4.585   3.054  0.00  0.00    -0.503 OA
ATOM     49  H   UNL     1      -8.003  -4.963   3.950  0.00  0.00    +0.292 HD
ENDBRANCH  46  48
BRANCH  45  50
ATOM     50  O   UNL     1      -7.254  -3.851   0.548  0.00  0.00    -0.503 OA
ATOM     51  H   UNL     1      -8.050  -4.235   0.976  0.00  0.00    +0.292 HD
ENDBRANCH  45  50
ENDBRANCH  31  43
BRANCH  37  52
ATOM     52  O   UNL     1       2.368  -2.797   5.355  0.00  0.00    -0.507 OA
ATOM     53  H   UNL     1       3.300  -2.822   5.068  0.00  0.00    +0.292 HD
ENDBRANCH  37  52
BRANCH  35  54
ATOM     54  O   UNL     1       2.009  -1.653   0.773  0.00  0.00    -0.506 OA
ATOM     55  H   UNL     1       1.493  -2.000   0.019  0.00  0.00    +0.292 HD
ENDBRANCH  35  54
ENDBRANCH  30  41
ENDBRANCH   1  30
TORSDOF 18
