REMARK  Name = 
REMARK  16 active torsions:
REMARK  status: ('A' for Active; 'I' for Inactive)
REMARK    1  A    between atoms: C_3  and  O_49
REMARK    2  A    between atoms: C_6  and  C_7
REMARK    3  A    between atoms: C_8  and  C_9
REMARK    4  A    between atoms: C_9  and  O_11
REMARK    5  A    between atoms: O_11  and  C_12
REMARK    6  A    between atoms: C_14  and  C_47
REMARK    7  A    between atoms: C_17  and  O_25
REMARK    8  A    between atoms: C_19  and  O_24
REMARK    9  A    between atoms: C_21  and  O_23
REMARK   10  A    between atoms: O_25  and  C_26
REMARK   11  A    between atoms: C_27  and  C_39
REMARK   12  A    between atoms: C_31  and  O_38
REMARK   13  A    between atoms: C_33  and  O_37
REMARK   14  A    between atoms: C_41  and  O_46
REMARK   15  A    between atoms: C_42  and  O_45
REMARK   16  A    between atoms: C_47  and  O_48
REMARK                            x       y       z     vdW  Elec       q    Type
REMARK                         _______ _______ _______ _____ _____    ______ ____
ROOT
ATOM      1  C   UNL     1      -7.101   2.076  -0.601  0.00  0.00    +0.239 C 
ATOM      2  C   UNL     1      -6.971   0.673  -1.228  0.00  0.00    +0.192 C 
ATOM      3  C   UNL     1      -6.535   0.661  -2.697  0.00  0.00    +0.215 C 
ATOM      4  C   UNL     1      -7.232   1.777  -3.502  0.00  0.00    +0.340 C 
ATOM      5  O   UNL     1      -7.053   3.075  -2.915  0.00  0.00    -0.330 OA
ATOM      6  C   UNL     1      -7.581   3.185  -1.581  0.00  0.00    +0.191 C 
ENDROOT
BRANCH   3   7
ATOM      7  O   UNL     1      -6.852  -0.625  -3.271  0.00  0.00    -0.383 OA
ATOM      8  H   UNL     1      -6.251  -0.740  -4.028  0.00  0.00    +0.210 HD
ENDBRANCH   3   7
BRANCH   2   9
ATOM      9  O   UNL     1      -6.000  -0.091  -0.469  0.00  0.00    -0.385 OA
ATOM     10  H   UNL     1      -6.107   0.136   0.470  0.00  0.00    +0.210 HD
ENDBRANCH   2   9
BRANCH   4  11
ATOM     11  O   UNL     1      -6.935   1.697  -4.934  0.00  0.00    -0.453 OA
BRANCH  11  12
ATOM     12  C   UNL     1      -5.656   1.744  -5.458  0.00  0.00    +0.214 A 
ATOM     13  C   UNL     1      -4.595   2.487  -4.708  0.00  0.00    +0.238 A 
ATOM     14  O   UNL     1      -4.643   2.679  -3.499  0.00  0.00    -0.283 OA
ATOM     15  C   UNL     1      -3.381   2.861  -5.416  0.00  0.00    +0.109 A 
ATOM     16  C   UNL     1      -3.084   2.155  -6.571  0.00  0.00    +0.147 A 
ATOM     17  C   UNL     1      -1.823   2.318  -7.158  0.00  0.00    +0.092 A 
ATOM     18  C   UNL     1      -0.902   3.193  -6.570  0.00  0.00    +0.124 A 
ATOM     19  C   UNL     1      -1.218   3.936  -5.445  0.00  0.00    +0.091 A 
ATOM     20  O   UNL     1      -3.966   1.270  -7.142  0.00  0.00    -0.451 OA
ATOM     21  C   UNL     1      -2.469   3.778  -4.869  0.00  0.00    +0.135 A 
ATOM     22  C   UNL     1      -5.278   1.149  -6.635  0.00  0.00    +0.181 A 
BRANCH  22  23
ATOM     23  C   UNL     1      -6.135   0.255  -7.537  0.00  0.00    +0.025 A 
ATOM     24  C   UNL     1      -7.443  -0.139  -7.192  0.00  0.00    +0.015 A 
ATOM     25  C   UNL     1      -8.227  -0.973  -8.011  0.00  0.00    +0.050 A 
ATOM     26  C   UNL     1      -7.710  -1.466  -9.188  0.00  0.00    +0.158 A 
ATOM     27  C   UNL     1      -6.415  -1.130  -9.573  0.00  0.00    +0.159 A 
ATOM     28  C   UNL     1      -5.639  -0.274  -8.767  0.00  0.00    +0.060 A 
BRANCH  27  29
ATOM     29  O   UNL     1      -5.962  -1.677 -10.744  0.00  0.00    -0.503 OA
ATOM     30  H   UNL     1      -5.037  -1.414 -10.882  0.00  0.00    +0.292 HD
ENDBRANCH  27  29
BRANCH  26  31
ATOM     31  O   UNL     1      -8.472  -2.303  -9.955  0.00  0.00    -0.503 OA
ATOM     32  H   UNL     1      -7.893  -2.580 -10.691  0.00  0.00    +0.292 HD
ENDBRANCH  26  31
ENDBRANCH  22  23
BRANCH  21  33
ATOM     33  O   UNL     1      -2.816   4.553  -3.806  0.00  0.00    -0.506 OA
ATOM     34  H   UNL     1      -2.036   4.986  -3.428  0.00  0.00    +0.292 HD
ENDBRANCH  21  33
BRANCH  18  35
ATOM     35  O   UNL     1       0.357   3.357  -7.063  0.00  0.00    -0.507 OA
ATOM     36  H   UNL     1       0.477   2.771  -7.827  0.00  0.00    +0.292 HD
ENDBRANCH  18  35
ENDBRANCH  11  12
ENDBRANCH   4  11
BRANCH   1  37
ATOM     37  O   UNL     1      -7.896   1.986   0.646  0.00  0.00    -0.453 OA
BRANCH  37  38
ATOM     38  C   UNL     1      -9.223   1.734   0.520  0.00  0.00    +0.332 C 
ATOM     39  O   UNL     1      -9.810   1.594  -0.548  0.00  0.00    -0.246 OA
BRANCH  38  41
ATOM     40  C   UNL     1      -9.557   1.701   3.052  0.00  0.00    +0.015 C 
ATOM     41  C   UNL     1      -9.974   1.571   1.783  0.00  0.00    +0.092 C 
BRANCH  40  43
ATOM     42  C   UNL     1     -10.323   2.104   5.407  0.00  0.00    +0.011 A 
ATOM     43  C   UNL     1     -10.438   1.388   4.205  0.00  0.00    -0.025 A 
ATOM     44  C   UNL     1     -11.355   0.323   4.160  0.00  0.00    +0.011 A 
ATOM     45  C   UNL     1     -12.144  -0.002   5.270  0.00  0.00    +0.046 A 
ATOM     46  C   UNL     1     -12.013   0.722   6.445  0.00  0.00    +0.117 A 
ATOM     47  C   UNL     1     -11.111   1.776   6.525  0.00  0.00    +0.046 A 
BRANCH  46  48
ATOM     48  O   UNL     1     -12.787   0.352   7.505  0.00  0.00    -0.507 OA
ATOM     49  H   UNL     1     -12.537   0.881   8.280  0.00  0.00    +0.292 HD
ENDBRANCH  46  48
ENDBRANCH  40  43
ENDBRANCH  38  41
ENDBRANCH  37  38
ENDBRANCH   1  37
BRANCH   6  50
ATOM     50  C   UNL     1      -7.204   4.570  -1.003  0.00  0.00    +0.191 C 
BRANCH  50  51
ATOM     51  O   UNL     1      -7.909   4.854   0.205  0.00  0.00    -0.392 OA
ATOM     52  H   UNL     1      -8.857   4.885  -0.012  0.00  0.00    +0.210 HD
ENDBRANCH  50  51
ENDBRANCH   6  50
TORSDOF 16
