REMARK  Name = 
REMARK  22 active torsions:
REMARK  status: ('A' for Active; 'I' for Inactive)
REMARK    1  A    between atoms: C_1  and  O_2
REMARK    2  A    between atoms: O_2  and  C_3
REMARK    3  A    between atoms: C_4  and  O_62
REMARK    4  A    between atoms: C_7  and  C_9
REMARK    5  A    between atoms: C_10  and  C_11
REMARK    6  A    between atoms: C_11  and  O_13
REMARK    7  A    between atoms: O_13  and  C_14
REMARK    8  A    between atoms: C_14  and  C_15
REMARK    9  A    between atoms: C_17  and  O_61
REMARK   10  A    between atoms: C_19  and  O_49
REMARK   11  A    between atoms: C_21  and  O_48
REMARK   12  A    between atoms: C_23  and  O_26
REMARK   13  A    between atoms: O_26  and  C_27
REMARK   14  A    between atoms: C_28  and  C_40
REMARK   15  A    between atoms: C_32  and  O_39
REMARK   16  A    between atoms: C_34  and  O_38
REMARK   17  A    between atoms: C_42  and  O_47
REMARK   18  A    between atoms: C_43  and  O_46
REMARK   19  A    between atoms: O_49  and  C_50
REMARK   20  A    between atoms: C_50  and  C_52
REMARK   21  A    between atoms: C_53  and  C_54
REMARK   22  A    between atoms: C_57  and  O_60
REMARK                            x       y       z     vdW  Elec       q    Type
REMARK                         _______ _______ _______ _____ _____    ______ ____
ROOT
ATOM      1  C   UNL     1       4.591  -7.852  -4.278  0.00  0.00    +0.192 C 
ATOM      2  O   UNL     1       5.269  -8.977  -4.856  0.00  0.00    -0.330 OA
ATOM      3  C   UNL     1       4.952  -9.154  -6.244  0.00  0.00    +0.341 C 
ATOM      4  C   UNL     1       3.443  -9.439  -6.407  0.00  0.00    +0.226 C 
ATOM      5  C   UNL     1       2.657  -8.271  -5.816  0.00  0.00    +0.242 C 
ATOM      6  C   UNL     1       3.060  -8.045  -4.353  0.00  0.00    +0.190 C 
ENDROOT
BRANCH   6   7
ATOM      7  O   UNL     1       2.351  -6.906  -3.859  0.00  0.00    -0.385 OA
ATOM      8  H   UNL     1       2.581  -6.803  -2.918  0.00  0.00    +0.210 HD
ENDBRANCH   6   7
BRANCH   4   9
ATOM      9  O   UNL     1       3.070  -9.664  -7.776  0.00  0.00    -0.382 OA
ATOM     10  H   UNL     1       3.171  -8.826  -8.265  0.00  0.00    +0.210 HD
ENDBRANCH   4   9
BRANCH   1  11
ATOM     11  C   UNL     1       5.084  -7.705  -2.830  0.00  0.00    +0.266 C 
BRANCH  11  12
ATOM     12  O   UNL     1       4.464  -6.604  -2.146  0.00  0.00    -0.459 OA
BRANCH  12  13
ATOM     13  C   UNL     1       5.040  -5.392  -2.368  0.00  0.00    +0.332 C 
ATOM     14  O   UNL     1       5.999  -5.165  -3.082  0.00  0.00    -0.246 OA
BRANCH  13  16
ATOM     15  C   UNL     1       4.604  -3.088  -1.672  0.00  0.00    +0.015 C 
ATOM     16  C   UNL     1       4.278  -4.388  -1.602  0.00  0.00    +0.092 C 
BRANCH  15  19
ATOM     17  C   UNL     1       2.529  -1.222   0.899  0.00  0.00    +0.162 A 
ATOM     18  C   UNL     1       3.226  -2.248   0.258  0.00  0.00    +0.057 A 
ATOM     19  C   UNL     1       3.875  -2.021  -0.967  0.00  0.00    -0.021 A 
ATOM     20  C   UNL     1       3.851  -0.731  -1.517  0.00  0.00    +0.012 A 
ATOM     21  C   UNL     1       3.143   0.297  -0.889  0.00  0.00    +0.050 A 
ATOM     22  C   UNL     1       2.476   0.038   0.300  0.00  0.00    +0.158 A 
BRANCH  22  23
ATOM     23  O   UNL     1       1.774   1.055   0.886  0.00  0.00    -0.503 OA
ATOM     24  H   UNL     1       1.364   0.659   1.679  0.00  0.00    +0.292 HD
ENDBRANCH  22  23
BRANCH  17  26
ATOM     25  C   UNL     1       2.326  -2.391   2.940  0.00  0.00    +0.277 C 
ATOM     26  O   UNL     1       1.850  -1.355   2.084  0.00  0.00    -0.491 OA
ENDBRANCH  17  26
ENDBRANCH  15  19
ENDBRANCH  13  16
ENDBRANCH  12  13
ENDBRANCH  11  12
ENDBRANCH   1  11
BRANCH   5  27
ATOM     27  O   UNL     1       1.244  -8.562  -5.887  0.00  0.00    -0.453 OA
BRANCH  27  28
ATOM     28  C   UNL     1       0.546  -7.795  -6.763  0.00  0.00    +0.332 C 
ATOM     29  O   UNL     1       0.993  -6.917  -7.483  0.00  0.00    -0.246 OA
BRANCH  28  30
ATOM     30  C   UNL     1      -0.868  -8.204  -6.714  0.00  0.00    +0.092 C 
ATOM     31  C   UNL     1      -1.779  -7.503  -7.407  0.00  0.00    +0.015 C 
BRANCH  31  32
ATOM     32  C   UNL     1      -3.207  -7.846  -7.450  0.00  0.00    -0.025 A 
ATOM     33  C   UNL     1      -3.933  -7.594  -8.623  0.00  0.00    +0.011 A 
ATOM     34  C   UNL     1      -5.290  -7.914  -8.699  0.00  0.00    +0.046 A 
ATOM     35  C   UNL     1      -5.928  -8.473  -7.600  0.00  0.00    +0.117 A 
ATOM     36  C   UNL     1      -5.238  -8.695  -6.414  0.00  0.00    +0.046 A 
ATOM     37  C   UNL     1      -3.881  -8.372  -6.338  0.00  0.00    +0.011 A 
BRANCH  35  38
ATOM     38  O   UNL     1      -7.246  -8.798  -7.724  0.00  0.00    -0.507 OA
ATOM     39  H   UNL     1      -7.523  -9.270  -6.922  0.00  0.00    +0.292 HD
ENDBRANCH  35  38
ENDBRANCH  31  32
ENDBRANCH  28  30
ENDBRANCH  27  28
ENDBRANCH   5  27
BRANCH   3  40
ATOM     40  O   UNL     1       5.620 -10.310  -6.748  0.00  0.00    -0.453 OA
BRANCH  40  41
ATOM     41  C   UNL     1       6.893 -10.201  -7.270  0.00  0.00    +0.214 A 
ATOM     42  C   UNL     1       7.270  -9.045  -8.135  0.00  0.00    +0.238 A 
ATOM     43  O   UNL     1       6.415  -8.272  -8.557  0.00  0.00    -0.283 OA
ATOM     44  C   UNL     1       8.685  -8.934  -8.527  0.00  0.00    +0.109 A 
ATOM     45  C   UNL     1       9.510 -10.033  -8.291  0.00  0.00    +0.147 A 
ATOM     46  C   UNL     1      10.847 -10.011  -8.704  0.00  0.00    +0.092 A 
ATOM     47  C   UNL     1      11.344  -8.882  -9.352  0.00  0.00    +0.124 A 
ATOM     48  C   UNL     1      10.537  -7.775  -9.584  0.00  0.00    +0.091 A 
ATOM     49  O   UNL     1       9.069 -11.183  -7.678  0.00  0.00    -0.451 OA
ATOM     50  C   UNL     1       9.207  -7.799  -9.167  0.00  0.00    +0.135 A 
ATOM     51  C   UNL     1       7.774 -11.223  -7.169  0.00  0.00    +0.181 A 
BRANCH  51  52
ATOM     52  C   UNL     1       7.430 -12.519  -6.505  0.00  0.00    +0.025 A 
ATOM     53  C   UNL     1       8.407 -13.261  -5.812  0.00  0.00    +0.015 A 
ATOM     54  C   UNL     1       8.083 -14.467  -5.171  0.00  0.00    +0.050 A 
ATOM     55  C   UNL     1       6.777 -14.931  -5.205  0.00  0.00    +0.158 A 
ATOM     56  C   UNL     1       5.802 -14.230  -5.898  0.00  0.00    +0.159 A 
ATOM     57  C   UNL     1       6.127 -13.058  -6.571  0.00  0.00    +0.060 A 
BRANCH  56  58
ATOM     58  O   UNL     1       4.525 -14.723  -5.885  0.00  0.00    -0.503 OA
ATOM     59  H   UNL     1       3.950 -14.078  -6.336  0.00  0.00    +0.292 HD
ENDBRANCH  56  58
BRANCH  55  60
ATOM     60  O   UNL     1       6.451 -16.085  -4.552  0.00  0.00    -0.503 OA
ATOM     61  H   UNL     1       5.493 -16.194  -4.715  0.00  0.00    +0.292 HD
ENDBRANCH  55  60
ENDBRANCH  51  52
BRANCH  50  62
ATOM     62  O   UNL     1       8.434  -6.693  -9.377  0.00  0.00    -0.506 OA
ATOM     63  H   UNL     1       8.908  -6.050  -9.929  0.00  0.00    +0.292 HD
ENDBRANCH  50  62
BRANCH  47  64
ATOM     64  O   UNL     1      12.635  -8.812  -9.785  0.00  0.00    -0.507 OA
ATOM     65  H   UNL     1      13.091  -9.645  -9.577  0.00  0.00    +0.292 HD
ENDBRANCH  47  64
ENDBRANCH  40  41
ENDBRANCH   3  40
TORSDOF 21
