REMARK  Name = 
REMARK  23 active torsions:
REMARK  status: ('A' for Active; 'I' for Inactive)
REMARK    1  A    between atoms: C_1  and  C_2
REMARK    2  A    between atoms: C_4  and  O_69
REMARK    3  A    between atoms: C_6  and  O_68
REMARK    4  A    between atoms: C_8  and  O_67
REMARK    5  A    between atoms: C_10  and  O_13
REMARK    6  A    between atoms: O_13  and  C_14
REMARK    7  A    between atoms: C_16  and  O_66
REMARK    8  A    between atoms: C_21  and  C_58
REMARK    9  A    between atoms: C_22  and  O_25
REMARK   10  A    between atoms: O_25  and  C_26
REMARK   11  A    between atoms: C_28  and  O_57
REMARK   12  A    between atoms: C_30  and  O_56
REMARK   13  A    between atoms: C_32  and  O_55
REMARK   14  A    between atoms: C_34  and  C_37
REMARK   15  A    between atoms: C_37  and  O_38
REMARK   16  A    between atoms: O_38  and  C_39
REMARK   17  A    between atoms: C_41  and  O_54
REMARK   18  A    between atoms: C_43  and  O_53
REMARK   19  A    between atoms: C_45  and  O_52
REMARK   20  A    between atoms: C_47  and  C_50
REMARK   21  A    between atoms: C_50  and  O_51
REMARK   22  A    between atoms: C_60  and  O_65
REMARK   23  A    between atoms: C_61  and  O_64
REMARK                            x       y       z     vdW  Elec       q    Type
REMARK                         _______ _______ _______ _____ _____    ______ ____
ROOT
ATOM      1  C   UNL     1       0.561   1.619  -2.924  0.00  0.00    +0.131 A 
ATOM      2  C   UNL     1      -0.854   1.658  -2.963  0.00  0.00    +0.093 A 
ATOM      3  C   UNL     1      -1.506   2.896  -2.986  0.00  0.00    +0.147 A 
ATOM      4  O   UNL     1      -2.878   3.027  -2.855  0.00  0.00    -0.451 OA
ATOM      5  C   UNL     1      -3.449   4.335  -2.993  0.00  0.00    +0.181 A 
ATOM      6  C   UNL     1      -2.700   5.472  -2.897  0.00  0.00    +0.214 A 
ATOM      7  C   UNL     1      -1.368   5.142  -2.423  0.00  0.00    +0.238 A 
ATOM      8  O   UNL     1      -0.872   5.579  -1.396  0.00  0.00    -0.283 OA
ATOM      9  C   UNL     1      -0.719   4.024  -3.031  0.00  0.00    +0.109 A 
ATOM     10  C   UNL     1       0.660   3.997  -3.108  0.00  0.00    +0.135 A 
ATOM     11  C   UNL     1       1.307   2.799  -2.983  0.00  0.00    +0.092 A 
ENDROOT
BRANCH   5  12
ATOM     12  C   UNL     1      -4.932   4.288  -3.166  0.00  0.00    +0.025 A 
ATOM     13  C   UNL     1      -5.770   5.249  -2.567  0.00  0.00    +0.015 A 
ATOM     14  C   UNL     1      -7.167   5.144  -2.626  0.00  0.00    +0.050 A 
ATOM     15  C   UNL     1      -7.737   4.072  -3.286  0.00  0.00    +0.158 A 
ATOM     16  C   UNL     1      -6.937   3.091  -3.855  0.00  0.00    +0.159 A 
ATOM     17  C   UNL     1      -5.545   3.191  -3.799  0.00  0.00    +0.060 A 
BRANCH  16  18
ATOM     18  O   UNL     1      -7.564   2.024  -4.439  0.00  0.00    -0.503 OA
ATOM     19  H   UNL     1      -6.901   1.335  -4.613  0.00  0.00    +0.292 HD
ENDBRANCH  16  18
BRANCH  15  20
ATOM     20  O   UNL     1      -9.095   3.979  -3.366  0.00  0.00    -0.503 OA
ATOM     21  H   UNL     1      -9.261   3.187  -3.916  0.00  0.00    +0.292 HD
ENDBRANCH  15  20
ENDBRANCH   5  12
BRANCH  10  22
ATOM     22  O   UNL     1       1.378   5.130  -3.304  0.00  0.00    -0.506 OA
ATOM     23  H   UNL     1       2.090   5.169  -2.634  0.00  0.00    +0.292 HD
ENDBRANCH  10  22
BRANCH   6  24
ATOM     24  O   UNL     1      -3.030   6.744  -3.283  0.00  0.00    -0.453 OA
BRANCH  24  25
ATOM     25  C   UNL     1      -2.678   7.982  -2.628  0.00  0.00    +0.340 C 
ATOM     26  O   UNL     1      -2.635   9.068  -3.580  0.00  0.00    -0.331 OA
ATOM     27  C   UNL     1      -1.412   9.325  -4.289  0.00  0.00    +0.179 C 
ATOM     28  C   UNL     1      -0.131   9.330  -3.418  0.00  0.00    +0.177 C 
ATOM     29  C   UNL     1      -0.128   8.415  -2.184  0.00  0.00    +0.180 C 
ATOM     30  C   UNL     1      -1.540   8.180  -1.593  0.00  0.00    +0.214 C 
BRANCH  30  31
ATOM     31  O   UNL     1      -1.855   9.372  -0.812  0.00  0.00    -0.383 OA
ATOM     32  H   UNL     1      -1.618  10.148  -1.356  0.00  0.00    +0.210 HD
ENDBRANCH  30  31
BRANCH  29  33
ATOM     33  O   UNL     1       0.757   7.335  -2.427  0.00  0.00    -0.386 OA
ATOM     34  H   UNL     1       0.352   6.668  -3.006  0.00  0.00    +0.210 HD
ENDBRANCH  29  33
BRANCH  28  35
ATOM     35  O   UNL     1       0.087  10.660  -2.905  0.00  0.00    -0.386 OA
ATOM     36  H   UNL     1       0.963  10.642  -2.468  0.00  0.00    +0.210 HD
ENDBRANCH  28  35
BRANCH  27  37
ATOM     37  C   UNL     1      -1.280   8.464  -5.571  0.00  0.00    +0.197 C 
BRANCH  37  38
ATOM     38  O   UNL     1      -2.308   8.810  -6.526  0.00  0.00    -0.346 OA
BRANCH  38  39
ATOM     39  C   UNL     1      -2.386   7.877  -7.615  0.00  0.00    +0.282 C 
ATOM     40  O   UNL     1      -1.214   7.841  -8.432  0.00  0.00    -0.341 OA
ATOM     41  C   UNL     1      -1.026   8.872  -9.417  0.00  0.00    +0.178 C 
ATOM     42  C   UNL     1      -2.289   9.341 -10.169  0.00  0.00    +0.177 C 
ATOM     43  C   UNL     1      -3.518   9.428  -9.260  0.00  0.00    +0.179 C 
ATOM     44  C   UNL     1      -3.659   8.129  -8.452  0.00  0.00    +0.201 C 
BRANCH  44  45
ATOM     45  O   UNL     1      -3.912   7.018  -9.333  0.00  0.00    -0.384 OA
ATOM     46  H   UNL     1      -3.237   7.051 -10.047  0.00  0.00    +0.210 HD
ENDBRANCH  44  45
BRANCH  43  47
ATOM     47  O   UNL     1      -3.436  10.601  -8.453  0.00  0.00    -0.386 OA
ATOM     48  H   UNL     1      -3.608  10.355  -7.521  0.00  0.00    +0.210 HD
ENDBRANCH  43  47
BRANCH  42  49
ATOM     49  O   UNL     1      -2.552   8.387 -11.218  0.00  0.00    -0.386 OA
ATOM     50  H   UNL     1      -3.084   8.849 -11.894  0.00  0.00    +0.210 HD
ENDBRANCH  42  49
BRANCH  41  51
ATOM     51  C   UNL     1      -0.203  10.049  -8.874  0.00  0.00    +0.190 C 
BRANCH  51  52
ATOM     52  O   UNL     1       1.019   9.605  -8.279  0.00  0.00    -0.392 OA
ATOM     53  H   UNL     1       1.280   8.777  -8.720  0.00  0.00    +0.210 HD
ENDBRANCH  51  52
ENDBRANCH  41  51
ENDBRANCH  38  39
ENDBRANCH  37  38
ENDBRANCH  27  37
ENDBRANCH  24  25
ENDBRANCH   6  24
BRANCH   1  54
ATOM     54  O   UNL     1       1.139   0.381  -2.826  0.00  0.00    -0.461 OA
BRANCH  54  58
ATOM     55  C   UNL     1       1.413  -0.460   0.086  0.00  0.00    +0.041 C 
ATOM     56  C   UNL     1       2.823  -0.505  -0.496  0.00  0.00    +0.150 C 
ATOM     57  O   UNL     1       3.076   0.555  -1.434  0.00  0.00    -0.334 OA
ATOM     58  C   UNL     1       2.581   0.351  -2.763  0.00  0.00    +0.339 C 
ATOM     59  C   UNL     1       3.084  -0.953  -3.388  0.00  0.00    +0.214 C 
ATOM     60  C   UNL     1       2.715  -2.132  -2.487  0.00  0.00    +0.180 C 
ATOM     61  C   UNL     1       3.249  -1.874  -1.068  0.00  0.00    +0.174 C 
BRANCH  59  62
ATOM     62  O   UNL     1       2.554  -1.113  -4.709  0.00  0.00    -0.383 OA
ATOM     63  H   UNL     1       1.601  -1.299  -4.610  0.00  0.00    +0.210 HD
ENDBRANCH  59  62
BRANCH  60  64
ATOM     64  O   UNL     1       1.299  -2.371  -2.498  0.00  0.00    -0.386 OA
ATOM     65  H   UNL     1       0.830  -1.519  -2.467  0.00  0.00    +0.210 HD
ENDBRANCH  60  64
BRANCH  61  66
ATOM     66  O   UNL     1       4.689  -1.906  -1.117  0.00  0.00    -0.387 OA
ATOM     67  H   UNL     1       5.020  -0.991  -1.198  0.00  0.00    +0.210 HD
ENDBRANCH  61  66
ENDBRANCH  54  58
ENDBRANCH   1  54
TORSDOF 22
