REMARK  Name = 
REMARK  11 active torsions:
REMARK  status: ('A' for Active; 'I' for Inactive)
REMARK    1  A    between atoms: C_4  and  O_37
REMARK    2  A    between atoms: C_6  and  C_7
REMARK    3  A    between atoms: C_8  and  O_20
REMARK    4  A    between atoms: C_12  and  O_19
REMARK    5  A    between atoms: C_14  and  O_18
REMARK    6  A    between atoms: O_20  and  C_21
REMARK    7  A    between atoms: C_23  and  O_36
REMARK    8  A    between atoms: C_25  and  O_35
REMARK    9  A    between atoms: C_27  and  O_34
REMARK   10  A    between atoms: C_29  and  C_32
REMARK   11  A    between atoms: C_32  and  O_33
REMARK                            x       y       z     vdW  Elec       q    Type
REMARK                         _______ _______ _______ _____ _____    ______ ____
ROOT
ATOM      1  C   UNL     1      -1.356  -2.626   0.837  0.00  0.00    +0.181 A 
ATOM      2  O   UNL     1      -0.680  -3.840   0.958  0.00  0.00    -0.451 OA
ATOM      3  C   UNL     1      -1.216  -4.971   0.411  0.00  0.00    +0.147 A 
ATOM      4  C   UNL     1      -2.528  -5.035  -0.030  0.00  0.00    +0.109 A 
ATOM      5  C   UNL     1      -3.058  -6.257  -0.467  0.00  0.00    +0.135 A 
ATOM      6  C   UNL     1      -2.255  -7.395  -0.518  0.00  0.00    +0.091 A 
ATOM      7  C   UNL     1      -0.922  -7.299  -0.130  0.00  0.00    +0.124 A 
ATOM      8  C   UNL     1      -3.294  -3.786  -0.071  0.00  0.00    +0.238 A 
ATOM      9  O   UNL     1      -4.480  -3.818  -0.384  0.00  0.00    -0.283 OA
ATOM     10  C   UNL     1      -0.399  -6.099   0.343  0.00  0.00    +0.092 A 
ATOM     11  C   UNL     1      -2.560  -2.514   0.232  0.00  0.00    +0.214 A 
ENDROOT
BRANCH   1  13
ATOM     12  C   UNL     1       0.807  -1.632   1.653  0.00  0.00    +0.011 A 
ATOM     13  C   UNL     1      -0.577  -1.506   1.457  0.00  0.00    +0.024 A 
ATOM     14  C   UNL     1      -1.169  -0.321   1.909  0.00  0.00    +0.056 A 
ATOM     15  C   UNL     1      -0.381   0.695   2.446  0.00  0.00    +0.110 A 
ATOM     16  C   UNL     1       1.004   0.604   2.670  0.00  0.00    -0.066 A 
ATOM     17  O   UNL     1       1.675   1.555   3.199  0.00  0.00    -0.871 OA
ATOM     18  C   UNL     1       1.562  -0.612   2.263  0.00  0.00    -0.004 A 
BRANCH  15  19
ATOM     19  O   UNL     1      -0.976   1.891   2.778  0.00  0.00    -0.507 OA
ATOM     20  H   UNL     1      -0.169   2.360   3.109  0.00  0.00    +0.292 HD
ENDBRANCH  15  19
ENDBRANCH   1  13
BRANCH   5  21
ATOM     21  O   UNL     1      -4.361  -6.407  -0.863  0.00  0.00    -0.506 OA
ATOM     22  H   UNL     1      -4.811  -5.536  -0.763  0.00  0.00    +0.292 HD
ENDBRANCH   5  21
BRANCH   7  23
ATOM     23  O   UNL     1      -0.086  -8.375  -0.189  0.00  0.00    -0.507 OA
ATOM     24  H   UNL     1      -0.591  -9.148  -0.493  0.00  0.00    +0.292 HD
ENDBRANCH   7  23
BRANCH  11  25
ATOM     25  O   UNL     1      -3.233  -1.353  -0.107  0.00  0.00    -0.453 OA
BRANCH  25  26
ATOM     26  C   UNL     1      -2.495  -0.418  -0.920  0.00  0.00    +0.340 C 
ATOM     27  O   UNL     1      -3.089   0.855  -0.699  0.00  0.00    -0.331 OA
ATOM     28  C   UNL     1      -3.634   1.649  -1.749  0.00  0.00    +0.179 C 
ATOM     29  C   UNL     1      -3.783   1.006  -3.146  0.00  0.00    +0.177 C 
ATOM     30  C   UNL     1      -3.671  -0.515  -3.124  0.00  0.00    +0.180 C 
ATOM     31  C   UNL     1      -2.400  -0.889  -2.384  0.00  0.00    +0.214 C 
BRANCH  29  32
ATOM     32  O   UNL     1      -4.982   1.399  -3.822  0.00  0.00    -0.386 OA
ATOM     33  H   UNL     1      -5.691   0.845  -3.435  0.00  0.00    +0.210 HD
ENDBRANCH  29  32
BRANCH  30  34
ATOM     34  O   UNL     1      -4.847  -1.116  -2.574  0.00  0.00    -0.386 OA
ATOM     35  H   UNL     1      -4.974  -0.799  -1.657  0.00  0.00    +0.210 HD
ENDBRANCH  30  34
BRANCH  31  36
ATOM     36  O   UNL     1      -1.274  -0.284  -3.046  0.00  0.00    -0.383 OA
ATOM     37  H   UNL     1      -0.532  -0.213  -2.414  0.00  0.00    +0.210 HD
ENDBRANCH  31  36
BRANCH  28  38
ATOM     38  C   UNL     1      -4.944   2.216  -1.188  0.00  0.00    +0.190 C 
BRANCH  38  39
ATOM     39  O   UNL     1      -5.865   1.151  -0.932  0.00  0.00    -0.392 OA
ATOM     40  H   UNL     1      -5.547   0.736  -0.106  0.00  0.00    +0.210 HD
ENDBRANCH  38  39
ENDBRANCH  28  38
ENDBRANCH  25  26
ENDBRANCH  11  25
TORSDOF 11
