REMARK  Name = 
REMARK  30 active torsions:
REMARK  status: ('A' for Active; 'I' for Inactive)
REMARK    1  A    between atoms: C_3  and  O_86
REMARK    2  A    between atoms: C_4  and  O_85
REMARK    3  A    between atoms: C_6  and  C_7
REMARK    4  A    between atoms: C_8  and  O_20
REMARK    5  A    between atoms: C_12  and  O_19
REMARK    6  A    between atoms: C_14  and  O_18
REMARK    7  A    between atoms: O_20  and  C_21
REMARK    8  A    between atoms: C_23  and  O_84
REMARK    9  A    between atoms: C_25  and  O_83
REMARK   10  A    between atoms: C_27  and  O_82
REMARK   11  A    between atoms: C_29  and  C_32
REMARK   12  A    between atoms: C_32  and  O_33
REMARK   13  A    between atoms: O_33  and  C_34
REMARK   14  A    between atoms: C_36  and  O_81
REMARK   15  A    between atoms: C_38  and  O_80
REMARK   16  A    between atoms: C_40  and  O_79
REMARK   17  A    between atoms: C_42  and  C_45
REMARK   18  A    between atoms: C_45  and  O_46
REMARK   19  A    between atoms: O_46  and  C_47
REMARK   20  A    between atoms: C_49  and  O_78
REMARK   21  A    between atoms: C_51  and  O_77
REMARK   22  A    between atoms: C_53  and  O_76
REMARK   23  A    between atoms: C_55  and  C_58
REMARK   24  A    between atoms: C_58  and  O_59
REMARK   25  A    between atoms: O_59  and  C_60
REMARK   26  A    between atoms: C_62  and  O_75
REMARK   27  A    between atoms: C_64  and  O_74
REMARK   28  A    between atoms: C_66  and  O_73
REMARK   29  A    between atoms: C_68  and  C_71
REMARK   30  A    between atoms: C_71  and  O_72
REMARK                            x       y       z     vdW  Elec       q    Type
REMARK                         _______ _______ _______ _____ _____    ______ ____
ROOT
ATOM      1  C   UNL     1      -6.285  -0.842  -2.683  0.00  0.00    +0.282 C 
ATOM      2  O   UNL     1      -6.615  -1.128  -1.321  0.00  0.00    -0.341 OA
ATOM      3  C   UNL     1      -6.023  -2.321  -0.784  0.00  0.00    +0.178 C 
ATOM      4  C   UNL     1      -6.153  -3.545  -1.743  0.00  0.00    +0.177 C 
ATOM      5  C   UNL     1      -5.983  -3.252  -3.245  0.00  0.00    +0.179 C 
ATOM      6  C   UNL     1      -6.746  -1.970  -3.634  0.00  0.00    +0.201 C 
ENDROOT
BRANCH   4   7
ATOM      7  O   UNL     1      -7.533  -4.008  -1.655  0.00  0.00    -0.386 OA
ATOM      8  H   UNL     1      -7.596  -4.619  -0.901  0.00  0.00    +0.210 HD
ENDBRANCH   4   7
BRANCH   5   9
ATOM      9  O   UNL     1      -4.601  -3.203  -3.599  0.00  0.00    -0.386 OA
ATOM     10  H   UNL     1      -4.200  -2.460  -3.105  0.00  0.00    +0.210 HD
ENDBRANCH   5   9
BRANCH   6  11
ATOM     11  O   UNL     1      -8.168  -2.146  -3.593  0.00  0.00    -0.384 OA
ATOM     12  H   UNL     1      -8.361  -2.773  -2.864  0.00  0.00    +0.210 HD
ENDBRANCH   6  11
BRANCH   3  13
ATOM     13  C   UNL     1      -4.724  -2.025   0.082  0.00  0.00    +0.197 C 
BRANCH  13  14
ATOM     14  O   UNL     1      -3.487  -1.682  -0.553  0.00  0.00    -0.346 OA
BRANCH  14  15
ATOM     15  C   UNL     1      -2.621  -0.580  -0.072  0.00  0.00    +0.282 C 
ATOM     16  O   UNL     1      -1.300  -1.111   0.186  0.00  0.00    -0.341 OA
ATOM     17  C   UNL     1      -0.392  -0.600   1.180  0.00  0.00    +0.178 C 
ATOM     18  C   UNL     1      -0.915   0.389   2.228  0.00  0.00    +0.177 C 
ATOM     19  C   UNL     1      -2.434   0.432   2.323  0.00  0.00    +0.179 C 
ATOM     20  C   UNL     1      -3.146   0.463   0.966  0.00  0.00    +0.201 C 
BRANCH  18  21
ATOM     21  O   UNL     1      -0.397   1.698   1.903  0.00  0.00    -0.386 OA
ATOM     22  H   UNL     1       0.239   1.934   2.608  0.00  0.00    +0.210 HD
ENDBRANCH  18  21
BRANCH  19  23
ATOM     23  O   UNL     1      -2.925  -0.623   3.148  0.00  0.00    -0.386 OA
ATOM     24  H   UNL     1      -2.919  -1.469   2.665  0.00  0.00    +0.210 HD
ENDBRANCH  19  23
BRANCH  20  25
ATOM     25  O   UNL     1      -3.067   1.799   0.420  0.00  0.00    -0.384 OA
ATOM     26  H   UNL     1      -2.129   2.019   0.269  0.00  0.00    +0.210 HD
ENDBRANCH  20  25
BRANCH  17  27
ATOM     27  C   UNL     1       0.321  -1.789   1.908  0.00  0.00    +0.197 C 
BRANCH  27  28
ATOM     28  O   UNL     1      -0.530  -2.587   2.751  0.00  0.00    -0.346 OA
BRANCH  28  29
ATOM     29  C   UNL     1      -1.474  -3.373   2.032  0.00  0.00    +0.282 C 
ATOM     30  O   UNL     1      -2.679  -3.524   2.774  0.00  0.00    -0.341 OA
ATOM     31  C   UNL     1      -3.050  -4.796   3.314  0.00  0.00    +0.178 C 
ATOM     32  C   UNL     1      -2.346  -6.046   2.754  0.00  0.00    +0.177 C 
ATOM     33  C   UNL     1      -0.899  -5.789   2.319  0.00  0.00    +0.179 C 
ATOM     34  C   UNL     1      -0.881  -4.612   1.352  0.00  0.00    +0.201 C 
BRANCH  34  35
ATOM     35  O   UNL     1      -1.665  -4.951   0.183  0.00  0.00    -0.384 OA
ATOM     36  H   UNL     1      -1.971  -4.119  -0.233  0.00  0.00    +0.210 HD
ENDBRANCH  34  35
BRANCH  33  37
ATOM     37  O   UNL     1      -0.003  -5.587   3.408  0.00  0.00    -0.386 OA
ATOM     38  H   UNL     1      -0.329  -4.843   3.959  0.00  0.00    +0.210 HD
ENDBRANCH  33  37
BRANCH  32  39
ATOM     39  O   UNL     1      -3.126  -6.518   1.631  0.00  0.00    -0.386 OA
ATOM     40  H   UNL     1      -2.712  -6.159   0.813  0.00  0.00    +0.210 HD
ENDBRANCH  32  39
BRANCH  31  41
ATOM     41  C   UNL     1      -3.061  -4.747   4.850  0.00  0.00    +0.190 C 
BRANCH  41  42
ATOM     42  O   UNL     1      -1.756  -4.615   5.399  0.00  0.00    -0.392 OA
ATOM     43  H   UNL     1      -1.874  -4.528   6.365  0.00  0.00    +0.210 HD
ENDBRANCH  41  42
ENDBRANCH  31  41
ENDBRANCH  28  29
ENDBRANCH  27  28
ENDBRANCH  17  27
ENDBRANCH  14  15
ENDBRANCH  13  14
ENDBRANCH   3  13
BRANCH   1  44
ATOM     44  O   UNL     1      -4.880  -0.636  -2.750  0.00  0.00    -0.346 OA
BRANCH  44  45
ATOM     45  C   UNL     1      -4.410  -0.069  -3.966  0.00  0.00    +0.197 C 
BRANCH  45  48
ATOM     46  C   UNL     1      -3.432   3.358  -2.993  0.00  0.00    +0.340 C 
ATOM     47  O   UNL     1      -3.980   2.022  -2.951  0.00  0.00    -0.331 OA
ATOM     48  C   UNL     1      -4.696   1.438  -4.065  0.00  0.00    +0.179 C 
ATOM     49  C   UNL     1      -4.284   1.866  -5.490  0.00  0.00    +0.177 C 
ATOM     50  C   UNL     1      -3.120   2.836  -5.407  0.00  0.00    +0.180 C 
ATOM     51  C   UNL     1      -3.499   3.941  -4.408  0.00  0.00    +0.214 C 
BRANCH  49  52
ATOM     52  O   UNL     1      -5.414   2.433  -6.172  0.00  0.00    -0.386 OA
ATOM     53  H   UNL     1      -5.396   3.404  -6.017  0.00  0.00    +0.210 HD
ENDBRANCH  49  52
BRANCH  50  54
ATOM     54  O   UNL     1      -1.914   2.133  -5.042  0.00  0.00    -0.386 OA
ATOM     55  H   UNL     1      -2.035   1.751  -4.151  0.00  0.00    +0.210 HD
ENDBRANCH  50  54
BRANCH  51  56
ATOM     56  O   UNL     1      -4.809   4.460  -4.722  0.00  0.00    -0.383 OA
ATOM     57  H   UNL     1      -5.376   4.379  -3.930  0.00  0.00    +0.210 HD
ENDBRANCH  51  56
BRANCH  46  58
ATOM     58  O   UNL     1      -2.059   3.243  -2.568  0.00  0.00    -0.453 OA
BRANCH  58  69
ATOM     59  C   UNL     1       0.101   4.201  -2.202  0.00  0.00    +0.181 A 
ATOM     60  O   UNL     1       0.967   5.208  -1.802  0.00  0.00    -0.451 OA
ATOM     61  C   UNL     1       0.547   6.496  -1.778  0.00  0.00    +0.147 A 
ATOM     62  C   UNL     1      -0.742   6.885  -2.123  0.00  0.00    +0.109 A 
ATOM     63  C   UNL     1      -1.014   8.259  -2.226  0.00  0.00    +0.135 A 
ATOM     64  C   UNL     1      -0.047   9.206  -1.891  0.00  0.00    +0.091 A 
ATOM     65  C   UNL     1       1.191   8.795  -1.419  0.00  0.00    +0.124 A 
ATOM     66  C   UNL     1      -1.735   5.801  -2.308  0.00  0.00    +0.238 A 
ATOM     67  O   UNL     1      -2.930   6.097  -2.406  0.00  0.00    -0.283 OA
ATOM     68  C   UNL     1       1.505   7.442  -1.402  0.00  0.00    +0.092 A 
ATOM     69  C   UNL     1      -1.229   4.355  -2.359  0.00  0.00    +0.214 A 
BRANCH  59  71
ATOM     70  C   UNL     1       1.614   2.468  -1.222  0.00  0.00    +0.015 A 
ATOM     71  C   UNL     1       0.912   2.949  -2.350  0.00  0.00    +0.025 A 
ATOM     72  C   UNL     1       1.265   2.460  -3.618  0.00  0.00    +0.060 A 
ATOM     73  C   UNL     1       2.365   1.602  -3.742  0.00  0.00    +0.159 A 
ATOM     74  C   UNL     1       3.103   1.202  -2.627  0.00  0.00    +0.158 A 
ATOM     75  C   UNL     1       2.708   1.601  -1.361  0.00  0.00    +0.050 A 
BRANCH  74  76
ATOM     76  O   UNL     1       4.241   0.475  -2.838  0.00  0.00    -0.503 OA
ATOM     77  H   UNL     1       4.793   0.529  -2.040  0.00  0.00    +0.292 HD
ENDBRANCH  74  76
BRANCH  73  78
ATOM     78  O   UNL     1       2.789   1.191  -4.974  0.00  0.00    -0.503 OA
ATOM     79  H   UNL     1       3.571   0.640  -4.801  0.00  0.00    +0.292 HD
ENDBRANCH  73  78
ENDBRANCH  59  71
BRANCH  65  80
ATOM     80  O   UNL     1       2.126   9.678  -0.972  0.00  0.00    -0.507 OA
ATOM     81  H   UNL     1       1.729  10.565  -0.935  0.00  0.00    +0.292 HD
ENDBRANCH  65  80
BRANCH  63  82
ATOM     82  O   UNL     1      -2.212   8.781  -2.645  0.00  0.00    -0.506 OA
ATOM     83  H   UNL     1      -2.904   8.094  -2.557  0.00  0.00    +0.292 HD
ENDBRANCH  63  82
ENDBRANCH  58  69
ENDBRANCH  46  58
ENDBRANCH  45  48
ENDBRANCH  44  45
ENDBRANCH   1  44
TORSDOF 30
