REMARK  Name = 
REMARK  15 active torsions:
REMARK  status: ('A' for Active; 'I' for Inactive)
REMARK    1  A    between atoms: C_3  and  O_47
REMARK    2  A    between atoms: C_6  and  C_7
REMARK    3  A    between atoms: C_7  and  O_9
REMARK    4  A    between atoms: O_9  and  C_10
REMARK    5  A    between atoms: C_10  and  C_11
REMARK    6  A    between atoms: C_13  and  O_46
REMARK    7  A    between atoms: C_15  and  O_45
REMARK    8  A    between atoms: C_17  and  O_44
REMARK    9  A    between atoms: C_19  and  O_22
REMARK   10  A    between atoms: O_22  and  C_23
REMARK   11  A    between atoms: C_24  and  C_36
REMARK   12  A    between atoms: C_28  and  O_35
REMARK   13  A    between atoms: C_30  and  O_34
REMARK   14  A    between atoms: C_38  and  O_43
REMARK   15  A    between atoms: C_39  and  O_42
REMARK                            x       y       z     vdW  Elec       q    Type
REMARK                         _______ _______ _______ _____ _____    ______ ____
ROOT
ATOM      1  O   UNL     1      -6.686   0.834  -3.047  0.00  0.00    -0.453 OA
ENDROOT
BRANCH   1   2
ATOM      2  C   UNL     1      -6.306  -0.480  -3.237  0.00  0.00    +0.214 A 
ATOM      3  C   UNL     1      -5.030  -1.053  -2.718  0.00  0.00    +0.238 A 
ATOM      4  O   UNL     1      -4.057  -0.359  -2.448  0.00  0.00    -0.283 OA
ATOM      5  C   UNL     1      -4.955  -2.516  -2.614  0.00  0.00    +0.109 A 
ATOM      6  C   UNL     1      -5.922  -3.261  -3.287  0.00  0.00    +0.147 A 
ATOM      7  C   UNL     1      -5.903  -4.658  -3.205  0.00  0.00    +0.092 A 
ATOM      8  C   UNL     1      -4.902  -5.286  -2.465  0.00  0.00    +0.124 A 
ATOM      9  C   UNL     1      -3.924  -4.558  -1.805  0.00  0.00    +0.091 A 
ATOM     10  O   UNL     1      -6.895  -2.681  -4.066  0.00  0.00    -0.451 OA
ATOM     11  C   UNL     1      -3.950  -3.164  -1.880  0.00  0.00    +0.135 A 
ATOM     12  C   UNL     1      -7.091  -1.306  -3.966  0.00  0.00    +0.181 A 
BRANCH  12  13
ATOM     13  C   UNL     1      -8.254  -0.798  -4.759  0.00  0.00    +0.025 A 
ATOM     14  C   UNL     1      -9.441  -1.541  -4.881  0.00  0.00    +0.015 A 
ATOM     15  C   UNL     1     -10.531  -1.048  -5.618  0.00  0.00    +0.050 A 
ATOM     16  C   UNL     1     -10.440   0.191  -6.232  0.00  0.00    +0.158 A 
ATOM     17  C   UNL     1      -9.269   0.931  -6.150  0.00  0.00    +0.159 A 
ATOM     18  C   UNL     1      -8.174   0.432  -5.449  0.00  0.00    +0.060 A 
BRANCH  16  19
ATOM     19  O   UNL     1     -11.510   0.687  -6.921  0.00  0.00    -0.503 OA
ATOM     20  H   UNL     1     -11.212   1.562  -7.239  0.00  0.00    +0.292 HD
ENDBRANCH  16  19
BRANCH  17  21
ATOM     21  O   UNL     1      -9.234   2.153  -6.766  0.00  0.00    -0.503 OA
ATOM     22  H   UNL     1      -8.388   2.580  -6.535  0.00  0.00    +0.292 HD
ENDBRANCH  17  21
ENDBRANCH  12  13
BRANCH   8  23
ATOM     23  O   UNL     1      -4.837  -6.642  -2.348  0.00  0.00    -0.507 OA
ATOM     24  H   UNL     1      -5.577  -7.040  -2.831  0.00  0.00    +0.292 HD
ENDBRANCH   8  23
BRANCH  11  25
ATOM     25  O   UNL     1      -3.000  -2.454  -1.202  0.00  0.00    -0.506 OA
ATOM     26  H   UNL     1      -2.287  -3.039  -0.904  0.00  0.00    +0.292 HD
ENDBRANCH  11  25
ENDBRANCH   1   2
BRANCH   1  29
ATOM     27  C   UNL     1      -5.390   3.020  -0.450  0.00  0.00    +0.191 C 
ATOM     28  O   UNL     1      -6.176   1.975  -1.055  0.00  0.00    -0.330 OA
ATOM     29  C   UNL     1      -5.833   1.808  -2.451  0.00  0.00    +0.340 C 
ATOM     30  C   UNL     1      -6.042   3.106  -3.274  0.00  0.00    +0.214 C 
ATOM     31  C   UNL     1      -5.378   4.286  -2.562  0.00  0.00    +0.180 C 
ATOM     32  C   UNL     1      -5.822   4.339  -1.099  0.00  0.00    +0.178 C 
BRANCH  30  33
ATOM     33  O   UNL     1      -5.487   2.953  -4.598  0.00  0.00    -0.383 OA
ATOM     34  H   UNL     1      -5.014   3.783  -4.799  0.00  0.00    +0.210 HD
ENDBRANCH  30  33
BRANCH  31  35
ATOM     35  O   UNL     1      -5.669   5.493  -3.273  0.00  0.00    -0.386 OA
ATOM     36  H   UNL     1      -5.723   6.215  -2.619  0.00  0.00    +0.210 HD
ENDBRANCH  31  35
BRANCH  32  37
ATOM     37  O   UNL     1      -7.248   4.488  -1.010  0.00  0.00    -0.386 OA
ATOM     38  H   UNL     1      -7.648   3.594  -1.045  0.00  0.00    +0.210 HD
ENDBRANCH  32  37
BRANCH  27  39
ATOM     39  C   UNL     1      -5.556   3.094   1.078  0.00  0.00    +0.266 C 
BRANCH  39  40
ATOM     40  O   UNL     1      -4.844   4.223   1.652  0.00  0.00    -0.458 OA
BRANCH  40  41
ATOM     41  C   UNL     1      -3.490   4.199   1.549  0.00  0.00    +0.339 C 
ATOM     42  O   UNL     1      -2.840   3.293   1.048  0.00  0.00    -0.245 OA
BRANCH  41  44
ATOM     43  C   UNL     1      -1.466   5.590   1.880  0.00  0.00    +0.018 A 
ATOM     44  C   UNL     1      -2.852   5.441   2.064  0.00  0.00    +0.059 A 
ATOM     45  C   UNL     1      -3.564   6.437   2.740  0.00  0.00    +0.018 A 
ATOM     46  C   UNL     1      -2.882   7.540   3.269  0.00  0.00    +0.046 A 
ATOM     47  C   UNL     1      -1.503   7.647   3.123  0.00  0.00    +0.117 A 
ATOM     48  C   UNL     1      -0.789   6.690   2.413  0.00  0.00    +0.046 A 
BRANCH  47  49
ATOM     49  O   UNL     1      -0.880   8.707   3.709  0.00  0.00    -0.507 OA
ATOM     50  H   UNL     1       0.081   8.577   3.653  0.00  0.00    +0.292 HD
ENDBRANCH  47  49
ENDBRANCH  41  44
ENDBRANCH  40  41
ENDBRANCH  39  40
ENDBRANCH  27  39
ENDBRANCH   1  29
TORSDOF 15
