REMARK  Name = 
REMARK  22 active torsions:
REMARK  status: ('A' for Active; 'I' for Inactive)
REMARK    1  A    between atoms: C_1  and  SI_2
REMARK    2  A    between atoms: SI_2  and  C_3
REMARK    3  A    between atoms: SI_2  and  C_4
REMARK    4  A    between atoms: SI_2  and  O_5
REMARK    5  A    between atoms: O_5  and  C_6
REMARK    6  A    between atoms: C_7  and  O_34
REMARK    7  A    between atoms: C_9  and  C_12
REMARK    8  A    between atoms: C_13  and  O_33
REMARK    9  A    between atoms: C_20  and  O_28
REMARK   10  A    between atoms: C_22  and  O_23
REMARK   11  A    between atoms: O_23  and  SI_24
REMARK   12  A    between atoms: SI_24  and  C_25
REMARK   13  A    between atoms: SI_24  and  C_26
REMARK   14  A    between atoms: SI_24  and  C_27
REMARK   15  A    between atoms: O_28  and  SI_29
REMARK   16  A    between atoms: SI_29  and  C_30
REMARK   17  A    between atoms: SI_29  and  C_31
REMARK   18  A    between atoms: SI_29  and  C_32
REMARK   19  A    between atoms: O_34  and  SI_35
REMARK   20  A    between atoms: SI_35  and  C_36
REMARK   21  A    between atoms: SI_35  and  C_37
REMARK   22  A    between atoms: SI_35  and  C_38
REMARK                            x       y       z     vdW  Elec       q    Type
REMARK                         _______ _______ _______ _____ _____    ______ ____
ROOT
ATOM      1  C   UNL     1       8.951   2.627  -0.567  0.00  0.00    +0.000 A 
ATOM      2  O   UNL     1       9.456   3.908  -0.613  0.00  0.00    +0.000 OA
ATOM      3  C   UNL     1      10.800   4.062  -0.864  0.00  0.00    +0.000 A 
ATOM      4  C   UNL     1      11.244   5.384  -0.933  0.00  0.00    +0.000 A 
ATOM      5  C   UNL     1      12.583   5.643  -1.182  0.00  0.00    +0.000 A 
ATOM      6  C   UNL     1      13.460   4.591  -1.411  0.00  0.00    +0.000 A 
ATOM      7  C   UNL     1      13.042   3.263  -1.317  0.00  0.00    +0.000 A 
ATOM      8  C   UNL     1      11.692   2.993  -1.037  0.00  0.00    +0.000 A 
ATOM      9  C   UNL     1      11.144   1.627  -0.879  0.00  0.00    +0.000 A 
ATOM     10  O   UNL     1      11.815   0.601  -0.839  0.00  0.00    +0.000 OA
ATOM     11  C   UNL     1       9.674   1.506  -0.701  0.00  0.00    +0.000 A 
ENDROOT
BRANCH   1  15
ATOM     12  C   UNL     1       4.813   2.500   0.503  0.00  0.00    +0.000 A 
ATOM     13  C   UNL     1       5.199   2.548  -0.847  0.00  0.00    +0.000 A 
ATOM     14  C   UNL     1       6.537   2.599  -1.221  0.00  0.00    +0.000 A 
ATOM     15  C   UNL     1       7.520   2.565  -0.238  0.00  0.00    +0.000 A 
ATOM     16  C   UNL     1       7.146   2.411   1.101  0.00  0.00    +0.000 A 
ATOM     17  C   UNL     1       5.801   2.337   1.487  0.00  0.00    +0.000 A 
BRANCH  12  18
ATOM     18  O   UNL     1       3.486   2.647   0.858  0.00  0.00    +0.000 OA
BRANCH  18  20
ATOM     19  C   UNL     1       2.932   4.983  -0.879  0.00  0.00    +0.000 C 
ATOM     20 SI   UNL     1       2.247   3.471   0.053  0.00  0.00    +0.000 Si
ATOM     21  C   UNL     1       1.409   2.368  -1.232  0.00  0.00    +0.000 C 
ATOM     22  C   UNL     1       0.915   4.132   1.203  0.00  0.00    +0.000 C 
ENDBRANCH  18  20
ENDBRANCH  12  18
BRANCH  17  23
ATOM     23  O   UNL     1       5.461   2.101   2.803  0.00  0.00    +0.000 OA
BRANCH  23  24
ATOM     24 SI   UNL     1       6.297   1.271   4.014  0.00  0.00    +0.000 Si
ATOM     25  C   UNL     1       7.694   2.308   4.766  0.00  0.00    +0.000 C 
ATOM     26  C   UNL     1       7.106  -0.305   3.336  0.00  0.00    +0.000 C 
ATOM     27  C   UNL     1       5.171   0.762   5.433  0.00  0.00    +0.000 C 
ENDBRANCH  23  24
ENDBRANCH  17  23
ENDBRANCH   1  15
BRANCH  11  28
ATOM     28  O   UNL     1       9.125   0.246  -0.614  0.00  0.00    +0.000 OA
ATOM     29  H   UNL     1       9.891  -0.359  -0.680  0.00  0.00    +0.000 HD
ENDBRANCH  11  28
BRANCH   5  30
ATOM     30  O   UNL     1      13.155   6.878  -1.228  0.00  0.00    +0.000 OA
BRANCH  30  31
ATOM     31 SI   UNL     1      12.750   8.354  -0.571  0.00  0.00    +0.000 Si
ATOM     32  C   UNL     1      12.019   8.153   1.148  0.00  0.00    +0.000 C 
ATOM     33  C   UNL     1      11.510   9.216  -1.675  0.00  0.00    +0.000 C 
ATOM     34  C   UNL     1      14.295   9.416  -0.411  0.00  0.00    +0.000 C 
ENDBRANCH  30  31
ENDBRANCH   5  30
BRANCH   7  35
ATOM     35  O   UNL     1      13.945   2.258  -1.549  0.00  0.00    +0.000 OA
BRANCH  35  36
ATOM     36 SI   UNL     1      15.568   2.082  -1.152  0.00  0.00    +0.000 Si
ATOM     37  C   UNL     1      16.734   3.385  -1.901  0.00  0.00    +0.000 C 
ATOM     38  C   UNL     1      16.207   0.452  -1.833  0.00  0.00    +0.000 C 
ATOM     39  C   UNL     1      15.793   2.268   0.706  0.00  0.00    +0.000 C 
ENDBRANCH  35  36
ENDBRANCH   7  35
TORSDOF 10
