REMARK  Name = 
REMARK  13 active torsions:
REMARK  status: ('A' for Active; 'I' for Inactive)
REMARK    1  A    between atoms: C_4  and  C_7
REMARK    2  A    between atoms: C_7  and  C_39
REMARK    3  A    between atoms: C_13  and  C_16
REMARK    4  A    between atoms: C_17  and  O_29
REMARK    5  A    between atoms: C_21  and  O_28
REMARK    6  A    between atoms: C_23  and  O_27
REMARK    7  A    between atoms: O_29  and  C_30
REMARK    8  A    between atoms: C_30  and  C_31
REMARK    9  A    between atoms: C_31  and  C_32
REMARK   10  A    between atoms: C_32  and  C_33
REMARK   11  A    between atoms: C_33  and  C_34
REMARK   12  A    between atoms: C_34  and  C_35
REMARK   13  A    between atoms: C_35  and  N_36
REMARK                            x       y       z     vdW  Elec       q    Type
REMARK                         _______ _______ _______ _____ _____    ______ ____
ROOT
ATOM      1  C   UNL     1       6.607  -2.802   3.576  0.00  0.00    +0.181 A 
ATOM      2  O   UNL     1       7.782  -2.548   4.310  0.00  0.00    -0.451 OA
ATOM      3  C   UNL     1       8.344  -3.563   5.048  0.00  0.00    +0.147 A 
ATOM      4  C   UNL     1       7.951  -4.886   4.911  0.00  0.00    +0.109 A 
ATOM      5  C   UNL     1       8.552  -5.906   5.658  0.00  0.00    +0.135 A 
ATOM      6  C   UNL     1       9.564  -5.607   6.554  0.00  0.00    +0.091 A 
ATOM      7  C   UNL     1       9.959  -4.281   6.695  0.00  0.00    +0.124 A 
ATOM      8  C   UNL     1       6.893  -5.190   3.964  0.00  0.00    +0.238 A 
ATOM      9  O   UNL     1       6.694  -6.373   3.686  0.00  0.00    -0.283 OA
ATOM     10  C   UNL     1       9.359  -3.256   5.955  0.00  0.00    +0.092 A 
ATOM     11  C   UNL     1       6.091  -4.058   3.433  0.00  0.00    +0.211 A 
ENDROOT
BRANCH   1  16
ATOM     12  C   UNL     1       2.472   1.088   1.836  0.00  0.00    +0.308 C 
ATOM     13  O   UNL     1       2.693  -0.331   2.031  0.00  0.00    -0.440 OA
ATOM     14  C   UNL     1       4.029  -0.381   2.245  0.00  0.00    +0.168 A 
ATOM     15  C   UNL     1       4.697  -1.557   2.484  0.00  0.00    +0.061 A 
ATOM     16  C   UNL     1       5.973  -1.534   3.051  0.00  0.00    +0.025 A 
ATOM     17  C   UNL     1       6.571  -0.246   3.173  0.00  0.00    +0.015 A 
ATOM     18  C   UNL     1       5.914   0.947   2.759  0.00  0.00    +0.050 A 
ATOM     19  C   UNL     1       4.618   0.850   2.301  0.00  0.00    +0.168 A 
ATOM     20  O   UNL     1       3.749   1.818   1.892  0.00  0.00    -0.440 OA
BRANCH  12  24
ATOM     21  C   UNL     1      -0.467   2.804   4.552  0.00  0.00    +0.000 A 
ATOM     22  C   UNL     1      -0.518   1.448   4.241  0.00  0.00    +0.001 A 
ATOM     23  C   UNL     1       0.478   0.872   3.448  0.00  0.00    +0.011 A 
ATOM     24  C   UNL     1       1.528   1.651   2.926  0.00  0.00    +0.041 A 
ATOM     25  C   UNL     1       1.586   3.010   3.294  0.00  0.00    +0.011 A 
ATOM     26  C   UNL     1       0.597   3.580   4.100  0.00  0.00    +0.001 A 
ENDBRANCH  12  24
BRANCH  12  27
ATOM     27  C   UNL     1       1.726   1.157   0.484  0.00  0.00    +0.041 A 
ATOM     28  C   UNL     1       0.862   0.090   0.126  0.00  0.00    +0.011 A 
ATOM     29  C   UNL     1       0.040   0.153  -0.994  0.00  0.00    +0.001 A 
ATOM     30  C   UNL     1       0.063   1.291  -1.789  0.00  0.00    +0.000 A 
ATOM     31  C   UNL     1       0.916   2.349  -1.470  0.00  0.00    +0.001 A 
ATOM     32  C   UNL     1       1.746   2.285  -0.345  0.00  0.00    +0.011 A 
ENDBRANCH  12  27
ENDBRANCH   1  16
BRANCH   5  33
ATOM     33  O   UNL     1       8.193  -7.225   5.557  0.00  0.00    -0.506 OA
ATOM     34  H   UNL     1       7.529  -7.303   4.831  0.00  0.00    +0.292 HD
ENDBRANCH   5  33
BRANCH   7  35
ATOM     35  O   UNL     1      10.955  -3.950   7.567  0.00  0.00    -0.507 OA
ATOM     36  H   UNL     1      11.289  -4.764   7.982  0.00  0.00    +0.292 HD
ENDBRANCH   7  35
BRANCH  11  37
ATOM     37  O   UNL     1       4.877  -4.336   2.804  0.00  0.00    -0.485 OA
BRANCH  37  38
ATOM     38  C   UNL     1       4.183  -5.516   3.237  0.00  0.00    +0.229 C 
BRANCH  38  39
ATOM     39  C   UNL     1       2.720  -5.518   2.788  0.00  0.00    +0.041 C 
BRANCH  39  40
ATOM     40  C   UNL     1       2.590  -5.507   1.262  0.00  0.00    +0.003 C 
BRANCH  40  41
ATOM     41  C   UNL     1       1.149  -5.660   0.761  0.00  0.00    +0.002 C 
BRANCH  41  42
ATOM     42  C   UNL     1       0.243  -4.511   1.199  0.00  0.00    +0.030 C 
BRANCH  42  43
ATOM     43  C   UNL     1      -1.142  -4.595   0.562  0.00  0.00    +0.234 C 
BRANCH  43  44
ATOM     44  N   UNL     1      -1.927  -3.452   1.043  0.00  0.00    +0.076 NA
ATOM     45  N   UNL     1      -3.096  -3.387   0.628  0.00  0.00    -0.015 NA
ATOM     46  N   UNL     1      -4.168  -3.325   0.246  0.00  0.00    -0.328 NA
ENDBRANCH  43  44
ENDBRANCH  42  43
ENDBRANCH  41  42
ENDBRANCH  40  41
ENDBRANCH  39  40
ENDBRANCH  38  39
ENDBRANCH  37  38
ENDBRANCH  11  37
TORSDOF 13
