REMARK  Name = 
REMARK  12 active torsions:
REMARK  status: ('A' for Active; 'I' for Inactive)
REMARK    1  A    between atoms: C_4  and  C_7
REMARK    2  A    between atoms: C_7  and  C_37
REMARK    3  A    between atoms: C_13  and  C_16
REMARK    4  A    between atoms: C_17  and  O_29
REMARK    5  A    between atoms: C_21  and  O_28
REMARK    6  A    between atoms: C_23  and  O_27
REMARK    7  A    between atoms: O_29  and  C_30
REMARK    8  A    between atoms: C_30  and  C_31
REMARK    9  A    between atoms: C_31  and  C_32
REMARK   10  A    between atoms: C_32  and  C_33
REMARK   11  A    between atoms: C_33  and  C_34
REMARK   12  A    between atoms: C_34  and  C_35
REMARK                            x       y       z     vdW  Elec       q    Type
REMARK                         _______ _______ _______ _____ _____    ______ ____
ROOT
ATOM      1  C   UNL     1       6.617  -2.733   3.505  0.00  0.00    +0.181 A 
ATOM      2  O   UNL     1       7.763  -2.545   4.278  0.00  0.00    -0.451 OA
ATOM      3  C   UNL     1       8.277  -3.586   4.998  0.00  0.00    +0.147 A 
ATOM      4  C   UNL     1       7.816  -4.884   4.863  0.00  0.00    +0.109 A 
ATOM      5  C   UNL     1       8.429  -5.923   5.576  0.00  0.00    +0.135 A 
ATOM      6  C   UNL     1       9.481  -5.653   6.452  0.00  0.00    +0.091 A 
ATOM      7  C   UNL     1       9.910  -4.342   6.607  0.00  0.00    +0.124 A 
ATOM      8  C   UNL     1       6.678  -5.120   3.972  0.00  0.00    +0.238 A 
ATOM      9  O   UNL     1       6.286  -6.273   3.804  0.00  0.00    -0.283 OA
ATOM     10  C   UNL     1       9.319  -3.304   5.889  0.00  0.00    +0.092 A 
ATOM     11  C   UNL     1       6.015  -3.935   3.328  0.00  0.00    +0.211 A 
ENDROOT
BRANCH   1  16
ATOM     12  C   UNL     1       5.176   2.952   3.858  0.00  0.00    +0.308 C 
ATOM     13  O   UNL     1       5.095   1.731   4.652  0.00  0.00    -0.440 OA
ATOM     14  C   UNL     1       5.402   0.769   3.739  0.00  0.00    +0.168 A 
ATOM     15  C   UNL     1       5.524  -0.578   4.016  0.00  0.00    +0.061 A 
ATOM     16  C   UNL     1       6.135  -1.404   3.061  0.00  0.00    +0.025 A 
ATOM     17  C   UNL     1       6.517  -0.846   1.817  0.00  0.00    +0.015 A 
ATOM     18  C   UNL     1       6.258   0.507   1.519  0.00  0.00    +0.050 A 
ATOM     19  C   UNL     1       5.701   1.295   2.509  0.00  0.00    +0.168 A 
ATOM     20  O   UNL     1       5.431   2.630   2.451  0.00  0.00    -0.440 OA
BRANCH  12  24
ATOM     21  C   UNL     1       7.946   6.018   5.265  0.00  0.00    +0.000 A 
ATOM     22  C   UNL     1       7.463   5.061   6.154  0.00  0.00    +0.001 A 
ATOM     23  C   UNL     1       6.683   3.997   5.687  0.00  0.00    +0.011 A 
ATOM     24  C   UNL     1       6.311   3.908   4.332  0.00  0.00    +0.041 A 
ATOM     25  C   UNL     1       6.858   4.859   3.444  0.00  0.00    +0.011 A 
ATOM     26  C   UNL     1       7.673   5.896   3.906  0.00  0.00    +0.001 A 
ENDBRANCH  12  24
BRANCH  12  27
ATOM     27  C   UNL     1       3.822   3.659   4.104  0.00  0.00    +0.041 A 
ATOM     28  C   UNL     1       3.454   3.986   5.433  0.00  0.00    +0.011 A 
ATOM     29  C   UNL     1       2.305   4.717   5.723  0.00  0.00    +0.001 A 
ATOM     30  C   UNL     1       1.465   5.098   4.691  0.00  0.00    +0.000 A 
ATOM     31  C   UNL     1       1.769   4.736   3.376  0.00  0.00    +0.001 A 
ATOM     32  C   UNL     1       2.942   4.025   3.080  0.00  0.00    +0.011 A 
ENDBRANCH  12  27
ENDBRANCH   1  16
BRANCH   5  33
ATOM     33  O   UNL     1       8.039  -7.230   5.474  0.00  0.00    -0.506 OA
ATOM     34  H   UNL     1       7.292  -7.274   4.833  0.00  0.00    +0.292 HD
ENDBRANCH   5  33
BRANCH   7  35
ATOM     35  O   UNL     1      10.925  -4.036   7.461  0.00  0.00    -0.507 OA
ATOM     36  H   UNL     1      11.243  -4.853   7.889  0.00  0.00    +0.292 HD
ENDBRANCH   7  35
BRANCH  11  37
ATOM     37  O   UNL     1       4.823  -4.240   2.724  0.00  0.00    -0.485 OA
BRANCH  37  38
ATOM     38  C   UNL     1       4.455  -3.640   1.491  0.00  0.00    +0.229 C 
BRANCH  38  39
ATOM     39  C   UNL     1       3.178  -4.324   0.972  0.00  0.00    +0.041 C 
BRANCH  39  40
ATOM     40  C   UNL     1       2.042  -4.280   2.006  0.00  0.00    +0.003 C 
BRANCH  40  41
ATOM     41  C   UNL     1       0.704  -4.785   1.449  0.00  0.00    +0.001 C 
BRANCH  41  42
ATOM     42  C   UNL     1      -0.395  -4.657   2.513  0.00  0.00    +0.016 C 
BRANCH  42  43
ATOM     43  C   UNL     1      -1.759  -5.183   2.076  0.00  0.00    +0.108 C 
ATOM     44 CL   UNL     1      -2.439  -4.250   0.723  0.00  0.00    -0.125 Cl
ENDBRANCH  42  43
ENDBRANCH  41  42
ENDBRANCH  40  41
ENDBRANCH  39  40
ENDBRANCH  38  39
ENDBRANCH  37  38
ENDBRANCH  11  37
TORSDOF 12
