REMARK  Name = 
REMARK  19 active torsions:
REMARK  status: ('A' for Active; 'I' for Inactive)
REMARK    1  A    between atoms: C_3  and  O_47
REMARK    2  A    between atoms: C_4  and  O_46
REMARK    3  A    between atoms: C_6  and  C_7
REMARK    4  A    between atoms: C_8  and  C_9
REMARK    5  A    between atoms: N_11  and  C_12
REMARK    6  A    between atoms: C_12  and  C_13
REMARK    7  A    between atoms: N_15  and  C_18
REMARK    8  A    between atoms: C_18  and  C_19
REMARK    9  A    between atoms: C_19  and  C_20
REMARK   10  A    between atoms: C_20  and  C_21
REMARK   11  A    between atoms: C_21  and  C_22
REMARK   12  A    between atoms: C_22  and  C_23
REMARK   13  A    between atoms: C_23  and  O_24
REMARK   14  A    between atoms: O_24  and  C_25
REMARK   15  A    between atoms: C_26  and  C_38
REMARK   16  A    between atoms: C_30  and  O_37
REMARK   17  A    between atoms: C_32  and  O_36
REMARK   18  A    between atoms: C_40  and  O_45
REMARK   19  A    between atoms: C_41  and  O_44
REMARK                            x       y       z     vdW  Elec       q    Type
REMARK                         _______ _______ _______ _____ _____    ______ ____
ROOT
ATOM      1  C   UNL     1     -12.761 -10.647  -1.463  0.00  0.00    +0.041 C 
ENDROOT
BRANCH   1   2
ATOM      2  C   UNL     1     -13.465 -10.327  -2.780  0.00  0.00    +0.229 C 
BRANCH   2   3
ATOM      3  O   UNL     1     -12.547 -10.617  -3.833  0.00  0.00    -0.485 OA
BRANCH   3   4
ATOM      4  C   UNL     1     -12.953 -10.392  -5.134  0.00  0.00    +0.211 A 
ATOM      5  C   UNL     1     -13.761  -9.179  -5.477  0.00  0.00    +0.238 A 
ATOM      6  O   UNL     1     -13.954  -8.288  -4.658  0.00  0.00    -0.283 OA
ATOM      7  C   UNL     1     -14.254  -9.063  -6.857  0.00  0.00    +0.109 A 
ATOM      8  C   UNL     1     -13.780  -9.977  -7.792  0.00  0.00    +0.147 A 
ATOM      9  C   UNL     1     -14.178  -9.880  -9.130  0.00  0.00    +0.092 A 
ATOM     10  C   UNL     1     -15.053  -8.865  -9.513  0.00  0.00    +0.124 A 
ATOM     11  C   UNL     1     -15.539  -7.950  -8.588  0.00  0.00    +0.091 A 
ATOM     12  O   UNL     1     -12.906 -10.991  -7.478  0.00  0.00    -0.451 OA
ATOM     13  C   UNL     1     -15.142  -8.052  -7.257  0.00  0.00    +0.135 A 
ATOM     14  C   UNL     1     -12.530 -11.182  -6.148  0.00  0.00    +0.181 A 
BRANCH  14  15
ATOM     15  C   UNL     1     -11.600 -12.349  -5.968  0.00  0.00    +0.025 A 
ATOM     16  C   UNL     1     -11.665 -13.455  -6.843  0.00  0.00    +0.015 A 
ATOM     17  C   UNL     1     -10.776 -14.539  -6.725  0.00  0.00    +0.050 A 
ATOM     18  C   UNL     1      -9.817 -14.531  -5.721  0.00  0.00    +0.158 A 
ATOM     19  C   UNL     1      -9.733 -13.460  -4.847  0.00  0.00    +0.159 A 
ATOM     20  C   UNL     1     -10.597 -12.371  -4.975  0.00  0.00    +0.060 A 
BRANCH  19  21
ATOM     21  O   UNL     1      -8.776 -13.515  -3.871  0.00  0.00    -0.503 OA
ATOM     22  H   UNL     1      -8.880 -12.735  -3.299  0.00  0.00    +0.292 HD
ENDBRANCH  19  21
BRANCH  18  23
ATOM     23  O   UNL     1      -8.948 -15.576  -5.616  0.00  0.00    -0.503 OA
ATOM     24  H   UNL     1      -8.359 -15.329  -4.874  0.00  0.00    +0.292 HD
ENDBRANCH  18  23
ENDBRANCH  14  15
BRANCH  13  25
ATOM     25  O   UNL     1     -15.648  -7.158  -6.356  0.00  0.00    -0.506 OA
ATOM     26  H   UNL     1     -16.172  -6.478  -6.808  0.00  0.00    +0.292 HD
ENDBRANCH  13  25
BRANCH  10  27
ATOM     27  O   UNL     1     -15.471  -8.723 -10.803  0.00  0.00    -0.507 OA
ATOM     28  H   UNL     1     -15.056  -9.407 -11.353  0.00  0.00    +0.292 HD
ENDBRANCH  10  27
ENDBRANCH   3   4
ENDBRANCH   2   3
ENDBRANCH   1   2
BRANCH   1  29
ATOM     29  C   UNL     1     -11.412  -9.930  -1.309  0.00  0.00    +0.003 C 
BRANCH  29  30
ATOM     30  C   UNL     1     -11.519  -8.402  -1.347  0.00  0.00    +0.002 C 
BRANCH  30  31
ATOM     31  C   UNL     1     -10.139  -7.760  -1.224  0.00  0.00    +0.023 C 
BRANCH  31  32
ATOM     32  C   UNL     1     -10.218  -6.237  -1.278  0.00  0.00    +0.145 C 
BRANCH  32  36
ATOM     33  C   UNL     1      -7.196  -4.491  -0.470  0.00  0.00    +0.100 A 
ATOM     34  N   UNL     1      -6.876  -5.156  -1.627  0.00  0.00    -0.133 NA
ATOM     35  N   UNL     1      -7.944  -5.836  -2.022  0.00  0.00    -0.065 NA
ATOM     36  N   UNL     1      -8.917  -5.621  -1.120  0.00  0.00    -0.251 N 
ATOM     37  C   UNL     1      -8.497  -4.794  -0.125  0.00  0.00    +0.135 A 
BRANCH  33  38
ATOM     38  C   UNL     1      -6.225  -3.596   0.201  0.00  0.00    +0.163 C 
BRANCH  38  40
ATOM     39  C   UNL     1      -5.027  -3.671   2.328  0.00  0.00    +0.237 C 
ATOM     40  N   UNL     1      -5.521  -4.326   1.231  0.00  0.00    -0.306 N 
ATOM     41  H   UNL     1      -5.244  -5.276   1.025  0.00  0.00    +0.149 HD
ATOM     42  O   UNL     1      -5.206  -2.482   2.556  0.00  0.00    -0.271 OA
BRANCH  39  44
ATOM     43  C   UNL     1      -3.780  -4.062   4.397  0.00  0.00    +0.013 C 
ATOM     44  C   UNL     1      -4.244  -4.548   3.234  0.00  0.00    +0.068 C 
BRANCH  43  46
ATOM     45  C   UNL     1      -2.050  -4.214   6.172  0.00  0.00    +0.012 A 
ATOM     46  C   UNL     1      -3.008  -4.854   5.366  0.00  0.00    -0.021 A 
ATOM     47  C   UNL     1      -3.227  -6.226   5.539  0.00  0.00    +0.057 A 
ATOM     48  C   UNL     1      -2.461  -6.938   6.451  0.00  0.00    +0.159 A 
ATOM     49  C   UNL     1      -1.490  -6.305   7.220  0.00  0.00    +0.158 A 
ATOM     50  C   UNL     1      -1.287  -4.937   7.099  0.00  0.00    +0.050 A 
BRANCH  49  51
ATOM     51  O   UNL     1      -0.761  -7.076   8.081  0.00  0.00    -0.503 OA
ATOM     52  H   UNL     1      -0.093  -6.508   8.504  0.00  0.00    +0.292 HD
ENDBRANCH  49  51
BRANCH  48  53
ATOM     53  O   UNL     1      -2.666  -8.282   6.578  0.00  0.00    -0.503 OA
ATOM     54  H   UNL     1      -2.012  -8.567   7.246  0.00  0.00    +0.292 HD
ENDBRANCH  48  53
ENDBRANCH  43  46
ENDBRANCH  39  44
ENDBRANCH  38  40
ENDBRANCH  33  38
ENDBRANCH  32  36
ENDBRANCH  31  32
ENDBRANCH  30  31
ENDBRANCH  29  30
ENDBRANCH   1  29
TORSDOF 19
