REMARK  Name = 
REMARK  10 active torsions:
REMARK  status: ('A' for Active; 'I' for Inactive)
REMARK    1  A    between atoms: C_1  and  O_2
REMARK    2  A    between atoms: O_2  and  C_3
REMARK    3  A    between atoms: C_4  and  O_25
REMARK    4  A    between atoms: C_6  and  C_9
REMARK    5  A    between atoms: C_10  and  O_24
REMARK    6  A    between atoms: C_17  and  O_22
REMARK    7  A    between atoms: C_19  and  O_20
REMARK    8  A    between atoms: O_20  and  C_21
REMARK    9  A    between atoms: O_22  and  C_23
REMARK   10  A    between atoms: O_25  and  C_26
REMARK                            x       y       z     vdW  Elec       q    Type
REMARK                         _______ _______ _______ _____ _____    ______ ____
ROOT
ATOM      1  C   UNL     1       4.863   4.501  -2.105  0.00  0.00    +0.181 A 
ATOM      2  O   UNL     1       4.495   5.744  -1.609  0.00  0.00    -0.451 OA
ATOM      3  C   UNL     1       4.808   6.876  -2.337  0.00  0.00    +0.147 A 
ATOM      4  C   UNL     1       4.204   8.055  -1.882  0.00  0.00    +0.092 A 
ATOM      5  C   UNL     1       4.446   9.264  -2.523  0.00  0.00    +0.127 A 
ATOM      6  C   UNL     1       5.279   9.268  -3.636  0.00  0.00    +0.092 A 
ATOM      7  C   UNL     1       5.904   8.098  -4.120  0.00  0.00    +0.138 A 
ATOM      8  C   UNL     1       5.678   6.883  -3.445  0.00  0.00    +0.109 A 
ATOM      9  C   UNL     1       6.301   5.576  -3.748  0.00  0.00    +0.238 A 
ATOM     10  O   UNL     1       7.314   5.452  -4.426  0.00  0.00    -0.283 OA
ATOM     11  C   UNL     1       5.673   4.357  -3.171  0.00  0.00    +0.208 A 
ENDROOT
BRANCH   1  15
ATOM     12  C   UNL     1       3.043   1.087  -0.167  0.00  0.00    +0.162 A 
ATOM     13  C   UNL     1       4.357   1.020  -0.636  0.00  0.00    +0.050 A 
ATOM     14  C   UNL     1       4.973   2.138  -1.197  0.00  0.00    +0.015 A 
ATOM     15  C   UNL     1       4.276   3.349  -1.358  0.00  0.00    +0.025 A 
ATOM     16  C   UNL     1       2.994   3.433  -0.784  0.00  0.00    +0.061 A 
ATOM     17  C   UNL     1       2.374   2.321  -0.179  0.00  0.00    +0.162 A 
BRANCH  12  19
ATOM     18  C   UNL     1       1.165  -0.325   0.222  0.00  0.00    +0.277 C 
ATOM     19  O   UNL     1       2.571  -0.111   0.308  0.00  0.00    -0.491 OA
ENDBRANCH  12  19
BRANCH  17  20
ATOM     20  O   UNL     1       1.139   2.364   0.408  0.00  0.00    -0.491 OA
ATOM     21  C   UNL     1       0.497   3.620   0.556  0.00  0.00    +0.277 C 
ENDBRANCH  17  20
ENDBRANCH   1  15
BRANCH   5  22
ATOM     22  O   UNL     1       3.825  10.360  -1.991  0.00  0.00    -0.495 OA
ATOM     23  C   UNL     1       4.118  11.618  -2.598  0.00  0.00    +0.277 C 
ENDBRANCH   5  22
BRANCH   7  24
ATOM     24  O   UNL     1       6.636   8.439  -5.220  0.00  0.00    -0.494 OA
ATOM     25  C   UNL     1       7.303   7.505  -6.042  0.00  0.00    +0.277 C 
ENDBRANCH   7  24
BRANCH  11  26
ATOM     26  O   UNL     1       6.008   3.156  -3.772  0.00  0.00    -0.501 OA
ATOM     27  H   UNL     1       5.304   2.511  -3.594  0.00  0.00    +0.292 HD
ENDBRANCH  11  26
TORSDOF 6
