REMARK  Name = 
REMARK  10 active torsions:
REMARK  status: ('A' for Active; 'I' for Inactive)
REMARK    1  A    between atoms: C_1  and  C_2
REMARK    2  A    between atoms: C_2  and  C_27
REMARK    3  A    between atoms: C_3  and  C_4
REMARK    4  A    between atoms: C_4  and  C_5
REMARK    5  A    between atoms: C_8  and  O_12
REMARK    6  A    between atoms: C_10  and  O_11
REMARK    7  A    between atoms: C_15  and  O_26
REMARK    8  A    between atoms: C_16  and  C_18
REMARK    9  A    between atoms: C_20  and  O_25
REMARK   10  A    between atoms: C_21  and  O_24
REMARK                            x       y       z     vdW  Elec       q    Type
REMARK                         _______ _______ _______ _____ _____    ______ ____
ROOT
ATOM      1  C   UNL     1       3.436   2.731  -2.398  0.00  0.00    +0.041 A 
ATOM      2  C   UNL     1       3.218   4.121  -2.347  0.00  0.00    +0.127 A 
ATOM      3  C   UNL     1       4.030   5.015  -3.037  0.00  0.00    +0.092 A 
ATOM      4  C   UNL     1       5.086   4.525  -3.794  0.00  0.00    +0.135 A 
ATOM      5  C   UNL     1       5.339   3.150  -3.844  0.00  0.00    +0.109 A 
ATOM      6  C   UNL     1       6.446   2.629  -4.648  0.00  0.00    +0.238 A 
ATOM      7  C   UNL     1       6.666   1.172  -4.646  0.00  0.00    +0.208 A 
ATOM      8  C   UNL     1       5.840   0.404  -3.916  0.00  0.00    +0.181 A 
ATOM      9  O   UNL     1       4.770   0.884  -3.170  0.00  0.00    -0.450 OA
ATOM     10  O   UNL     1       7.178   3.365  -5.306  0.00  0.00    -0.283 OA
ATOM     11  C   UNL     1       4.532   2.247  -3.144  0.00  0.00    +0.150 A 
ENDROOT
BRANCH   8  12
ATOM     12  C   UNL     1       6.037  -1.057  -3.870  0.00  0.00    +0.025 A 
ATOM     13  C   UNL     1       5.414  -1.889  -4.818  0.00  0.00    +0.015 A 
ATOM     14  C   UNL     1       5.694  -3.259  -4.860  0.00  0.00    +0.050 A 
ATOM     15  C   UNL     1       6.600  -3.795  -3.959  0.00  0.00    +0.158 A 
ATOM     16  C   UNL     1       7.221  -2.986  -3.010  0.00  0.00    +0.159 A 
ATOM     17  C   UNL     1       6.940  -1.621  -2.953  0.00  0.00    +0.060 A 
BRANCH  15  18
ATOM     18  O   UNL     1       6.902  -5.125  -4.024  0.00  0.00    -0.503 OA
ATOM     19  H   UNL     1       7.582  -5.259  -3.334  0.00  0.00    +0.292 HD
ENDBRANCH  15  18
BRANCH  16  20
ATOM     20  O   UNL     1       8.124  -3.578  -2.170  0.00  0.00    -0.503 OA
ATOM     21  H   UNL     1       8.536  -2.883  -1.630  0.00  0.00    +0.292 HD
ENDBRANCH  16  20
ENDBRANCH   8  12
BRANCH   2  22
ATOM     22  O   UNL     1       2.172   4.602  -1.606  0.00  0.00    -0.506 OA
ATOM     23  H   UNL     1       2.140   5.570  -1.687  0.00  0.00    +0.292 HD
ENDBRANCH   2  22
BRANCH   4  24
ATOM     24  O   UNL     1       5.833   5.454  -4.467  0.00  0.00    -0.506 OA
ATOM     25  H   UNL     1       6.533   4.985  -4.974  0.00  0.00    +0.292 HD
ENDBRANCH   4  24
BRANCH   7  26
ATOM     26  O   UNL     1       7.717   0.686  -5.401  0.00  0.00    -0.501 OA
ATOM     27  H   UNL     1       8.106   1.471  -5.840  0.00  0.00    +0.292 HD
ENDBRANCH   7  26
BRANCH   1  28
ATOM     28  C   UNL     1       2.491   1.795  -1.679  0.00  0.00    +0.069 C 
BRANCH  28  32
ATOM     29  C   UNL     1       3.007  -1.084  -0.570  0.00  0.00    +0.038 C 
ATOM     30  C   UNL     1       3.166   0.197   0.201  0.00  0.00    -0.079 C 
ATOM     31  C   UNL     1       3.578   0.028   1.640  0.00  0.00    +0.038 C 
ATOM     32  C   UNL     1       2.954   1.432  -0.296  0.00  0.00    -0.023 C 
ENDBRANCH  28  32
ENDBRANCH   1  28
TORSDOF 8
