REMARK  Name = 
REMARK  12 active torsions:
REMARK  status: ('A' for Active; 'I' for Inactive)
REMARK    1  A    between atoms: C_3  and  O_38
REMARK    2  A    between atoms: C_4  and  O_21
REMARK    3  A    between atoms: C_6  and  C_7
REMARK    4  A    between atoms: C_8  and  O_20
REMARK    5  A    between atoms: C_12  and  O_19
REMARK    6  A    between atoms: C_14  and  O_18
REMARK    7  A    between atoms: O_21  and  C_22
REMARK    8  A    between atoms: C_24  and  O_37
REMARK    9  A    between atoms: C_26  and  O_36
REMARK   10  A    between atoms: C_28  and  O_35
REMARK   11  A    between atoms: C_30  and  C_33
REMARK   12  A    between atoms: C_33  and  O_34
REMARK                            x       y       z     vdW  Elec       q    Type
REMARK                         _______ _______ _______ _____ _____    ______ ____
ROOT
ATOM      1  C   UNL     1       4.229   3.859   1.068  0.00  0.00    +0.015 A 
ATOM      2  C   UNL     1       2.960   3.538   1.576  0.00  0.00    +0.025 A 
ATOM      3  C   UNL     1       2.499   2.235   1.334  0.00  0.00    +0.061 A 
ATOM      4  C   UNL     1       3.215   1.313   0.532  0.00  0.00    +0.166 A 
ATOM      5  C   UNL     1       4.418   1.703  -0.037  0.00  0.00    +0.159 A 
ATOM      6  C   UNL     1       4.940   2.965   0.253  0.00  0.00    +0.050 A 
ENDROOT
BRANCH   2   7
ATOM      7  C   UNL     1       2.117   4.543   2.301  0.00  0.00    +0.181 A 
ATOM      8  O   UNL     1       1.332   4.006   3.328  0.00  0.00    -0.451 OA
ATOM      9  C   UNL     1       0.452   4.829   4.000  0.00  0.00    +0.147 A 
ATOM     10  C   UNL     1       0.400   6.205   3.790  0.00  0.00    +0.109 A 
ATOM     11  C   UNL     1      -0.500   7.007   4.510  0.00  0.00    +0.135 A 
ATOM     12  C   UNL     1      -1.364   6.434   5.435  0.00  0.00    +0.091 A 
ATOM     13  C   UNL     1      -1.319   5.058   5.635  0.00  0.00    +0.124 A 
ATOM     14  C   UNL     1       1.285   6.787   2.782  0.00  0.00    +0.238 A 
ATOM     15  O   UNL     1       1.293   8.012   2.620  0.00  0.00    -0.283 OA
ATOM     16  C   UNL     1      -0.419   4.253   4.928  0.00  0.00    +0.092 A 
ATOM     17  C   UNL     1       2.091   5.853   1.961  0.00  0.00    +0.208 A 
BRANCH  11  18
ATOM     18  O   UNL     1      -0.593   8.364   4.345  0.00  0.00    -0.506 OA
ATOM     19  H   UNL     1       0.077   8.637   3.676  0.00  0.00    +0.292 HD
ENDBRANCH  11  18
BRANCH  13  20
ATOM     20  O   UNL     1      -2.162   4.461   6.527  0.00  0.00    -0.507 OA
ATOM     21  H   UNL     1      -2.734   5.141   6.929  0.00  0.00    +0.292 HD
ENDBRANCH  13  20
BRANCH  17  22
ATOM     22  O   UNL     1       2.741   6.410   0.875  0.00  0.00    -0.501 OA
ATOM     23  H   UNL     1       2.838   5.726   0.188  0.00  0.00    +0.292 HD
ENDBRANCH  17  22
ENDBRANCH   2   7
BRANCH   5  24
ATOM     24  O   UNL     1       5.061   0.896  -0.926  0.00  0.00    -0.503 OA
ATOM     25  H   UNL     1       5.845   1.353  -1.272  0.00  0.00    +0.292 HD
ENDBRANCH   5  24
BRANCH   4  26
ATOM     26  O   UNL     1       2.531   0.170   0.305  0.00  0.00    -0.457 OA
BRANCH  26  27
ATOM     27  C   UNL     1       3.071  -1.116   0.005  0.00  0.00    +0.339 C 
ATOM     28  O   UNL     1       3.345  -1.412  -1.369  0.00  0.00    -0.331 OA
ATOM     29  C   UNL     1       3.282  -2.834  -1.657  0.00  0.00    +0.179 C 
ATOM     30  C   UNL     1       4.172  -3.681  -0.704  0.00  0.00    +0.177 C 
ATOM     31  C   UNL     1       4.014  -3.269   0.777  0.00  0.00    +0.180 C 
ATOM     32  C   UNL     1       4.139  -1.734   0.935  0.00  0.00    +0.214 C 
BRANCH  30  33
ATOM     33  O   UNL     1       5.545  -3.514  -1.097  0.00  0.00    -0.386 OA
ATOM     34  H   UNL     1       6.077  -4.134  -0.565  0.00  0.00    +0.210 HD
ENDBRANCH  30  33
BRANCH  31  35
ATOM     35  O   UNL     1       2.753  -3.754   1.257  0.00  0.00    -0.386 OA
ATOM     36  H   UNL     1       2.484  -3.216   2.025  0.00  0.00    +0.210 HD
ENDBRANCH  31  35
BRANCH  32  37
ATOM     37  O   UNL     1       5.487  -1.360   0.628  0.00  0.00    -0.383 OA
ATOM     38  H   UNL     1       5.591  -1.477  -0.343  0.00  0.00    +0.210 HD
ENDBRANCH  32  37
BRANCH  29  39
ATOM     39  C   UNL     1       1.816  -3.314  -1.730  0.00  0.00    +0.190 C 
BRANCH  39  40
ATOM     40  O   UNL     1       1.713  -4.679  -2.117  0.00  0.00    -0.392 OA
ATOM     41  H   UNL     1       1.723  -5.213  -1.303  0.00  0.00    +0.210 HD
ENDBRANCH  39  40
ENDBRANCH  29  39
ENDBRANCH  26  27
ENDBRANCH   4  26
TORSDOF 12
