MODEL 1
REMARK VINA RESULT:      -7.0      0.000      0.000
REMARK  Name = 
REMARK  17 active torsions:
REMARK  status: ('A' for Active; 'I' for Inactive)
REMARK    1  A    between atoms: C_1  and  C_2
REMARK    2  A    between atoms: C_2  and  C_3
REMARK    3  A    between atoms: C_2  and  C_4
REMARK    4  A    between atoms: C_2  and  N_5
REMARK    5  A    between atoms: C_6  and  C_8
REMARK    6  A    between atoms: N_17  and  C_18
REMARK    7  A    between atoms: C_18  and  C_19
REMARK    8  A    between atoms: C_19  and  C_21
REMARK    9  A    between atoms: C_19  and  O_51
REMARK   10  A    between atoms: C_21  and  C_23
REMARK   11  A    between atoms: C_21  and  N_30
REMARK   12  A    between atoms: C_23  and  C_24
REMARK   13  A    between atoms: C_31  and  C_33
REMARK   14  A    between atoms: C_33  and  C_34
REMARK   15  A    between atoms: C_33  and  N_38
REMARK   16  A    between atoms: C_34  and  C_35
REMARK   17  A    between atoms: C_39  and  C_41
REMARK                            x       y       z     vdW  Elec       q    Type
REMARK                         _______ _______ _______ _____ _____    ______ ____
ROOT
ATOM      1  C   UNL     1       5.533  -5.700  27.179  0.00  0.00    +0.107 C 
ENDROOT
BRANCH   1   2
ATOM      2  N   UNL     1       4.710  -4.499  27.382  0.00  0.00    -0.308 N 
ATOM      3  H   UNL     1       3.994  -4.315  26.682  0.00  0.00    +0.149 HD
ATOM      4  C   UNL     1       4.436  -3.974  28.633  0.00  0.00    +0.234 C 
ATOM      5  O   UNL     1       4.806  -4.517  29.673  0.00  0.00    -0.274 OA
BRANCH   4   6
ATOM      6  C   UNL     1       3.549  -2.709  28.650  0.00  0.00    +0.168 C 
BRANCH   6   7
ATOM      7  N   UNL     1       4.344  -1.603  28.135  0.00  0.00    -0.298 N 
ATOM      8  H   UNL     1       4.900  -1.044  28.778  0.00  0.00    +0.150 HD
ATOM      9  C   UNL     1       4.358  -1.253  26.810  0.00  0.00    +0.263 C 
ATOM     10  O   UNL     1       3.728  -1.866  25.952  0.00  0.00    -0.269 OA
BRANCH   9  11
ATOM     11  C   UNL     1       5.213  -0.075  26.449  0.00  0.00    +0.126 A 
ATOM     12  C   UNL     1       6.376   0.122  27.176  0.00  0.00    +0.033 A 
ATOM     13  C   UNL     1       7.100   1.276  26.939  0.00  0.00    +0.012 A 
ATOM     14  C   UNL     1       6.690   2.156  25.936  0.00  0.00    +0.000 A 
ATOM     15  C   UNL     1       5.544   1.829  25.175  0.00  0.00    +0.072 A 
ATOM     16  C   UNL     1       5.239   2.656  24.097  0.00  0.00    +0.028 A 
ATOM     17  C   UNL     1       6.014   3.780  23.784  0.00  0.00    +0.002 A 
ATOM     18  C   UNL     1       7.092   4.130  24.591  0.00  0.00    +0.001 A 
ATOM     19  C   UNL     1       7.423   3.324  25.674  0.00  0.00    +0.010 A 
ATOM     20  N   UNL     1       4.782   0.748  25.453  0.00  0.00    -0.242 NA
ENDBRANCH   9  11
ENDBRANCH   6   7
BRANCH   6  21
ATOM     21  C   UNL     1       2.882  -2.471  30.008  0.00  0.00    +0.127 C 
BRANCH  21  22
ATOM     22  C   UNL     1       2.253  -1.110  30.104  0.00  0.00    +0.213 C 
ATOM     23  N   UNL     1       0.915  -1.079  29.842  0.00  0.00    -0.329 N 
ATOM     24  H   UNL     1       0.439  -0.193  29.951  0.00  0.00    +0.145 HD
ATOM     25  H   UNL     1       0.352  -1.918  29.792  0.00  0.00    +0.145 HD
ATOM     26  O   UNL     1       2.868  -0.076  30.352  0.00  0.00    -0.276 OA
ENDBRANCH  21  22
ENDBRANCH   6  21
ENDBRANCH   4   6
ENDBRANCH   1   2
BRANCH   1  27
ATOM     27  C   UNL     1       6.957  -5.388  26.615  0.00  0.00    +0.149 C 
BRANCH  27  28
ATOM     28  O   UNL     1       7.943  -5.969  27.485  0.00  0.00    -0.389 OA
ATOM     29  H   UNL     1       8.033  -6.905  27.228  0.00  0.00    +0.210 HD
ENDBRANCH  27  28
BRANCH  27  30
ATOM     30  C   UNL     1       7.219  -3.866  26.469  0.00  0.00    +0.118 C 
BRANCH  30  32
ATOM     31  C   UNL     1       7.657  -2.140  24.829  0.00  0.00    +0.143 C 
ATOM     32  N   UNL     1       8.189  -3.409  25.445  0.00  0.00    -0.289 NA
ATOM     33  C   UNL     1       8.446  -4.439  24.416  0.00  0.00    +0.089 C 
ATOM     34  C   UNL     1       7.256  -4.712  23.482  0.00  0.00    +0.006 C 
ATOM     35  C   UNL     1       6.878  -3.410  22.756  0.00  0.00    -0.005 C 
ATOM     36  C   UNL     1       5.729  -3.637  21.767  0.00  0.00    +0.004 C 
ATOM     37  C   UNL     1       6.068  -4.752  20.779  0.00  0.00    +0.000 C 
ATOM     38  C   UNL     1       6.421  -6.047  21.503  0.00  0.00    +0.000 C 
ATOM     39  C   UNL     1       7.568  -5.840  22.491  0.00  0.00    +0.005 C 
ATOM     40  C   UNL     1       6.530  -2.335  23.793  0.00  0.00    +0.032 C 
BRANCH  31  43
ATOM     41  N   UNL     1       8.373  -0.251  23.445  0.00  0.00    -0.309 N 
ATOM     42  H   UNL     1       7.361  -0.133  23.429  0.00  0.00    +0.149 HD
ATOM     43  C   UNL     1       8.803  -1.281  24.245  0.00  0.00    +0.231 C 
ATOM     44  O   UNL     1       9.990  -1.553  24.435  0.00  0.00    -0.274 OA
BRANCH  41  46
ATOM     45  C   UNL     1      10.080   1.482  23.885  0.00  0.00    +0.031 C 
ATOM     46  C   UNL     1       9.241   0.751  22.825  0.00  0.00    +0.026 C 
ATOM     47  C   UNL     1      10.193   0.023  21.860  0.00  0.00    +0.031 C 
ATOM     48  C   UNL     1       8.411   1.771  22.027  0.00  0.00    +0.031 C 
ENDBRANCH  41  46
ENDBRANCH  31  43
ENDBRANCH  30  32
ENDBRANCH  27  30
ENDBRANCH   1  27
BRANCH   1  49
ATOM     49  C   UNL     1       4.794  -6.767  26.324  0.00  0.00    +0.060 C 
BRANCH  49  50
ATOM     50  C   UNL     1       3.665  -6.281  25.433  0.00  0.00    -0.046 A 
ATOM     51  C   UNL     1       2.325  -6.444  25.821  0.00  0.00    +0.004 A 
ATOM     52  C   UNL     1       1.286  -6.013  24.993  0.00  0.00    +0.000 A 
ATOM     53  C   UNL     1       1.569  -5.424  23.764  0.00  0.00    +0.000 A 
ATOM     54  C   UNL     1       2.894  -5.268  23.360  0.00  0.00    +0.000 A 
ATOM     55  C   UNL     1       3.936  -5.696  24.188  0.00  0.00    +0.004 A 
ENDBRANCH  49  50
ENDBRANCH   1  49
TORSDOF 14
ENDMDL
MODEL 2
REMARK VINA RESULT:      -6.7      2.166      7.341
REMARK  Name = 
REMARK  17 active torsions:
REMARK  status: ('A' for Active; 'I' for Inactive)
REMARK    1  A    between atoms: C_1  and  C_2
REMARK    2  A    between atoms: C_2  and  C_3
REMARK    3  A    between atoms: C_2  and  C_4
REMARK    4  A    between atoms: C_2  and  N_5
REMARK    5  A    between atoms: C_6  and  C_8
REMARK    6  A    between atoms: N_17  and  C_18
REMARK    7  A    between atoms: C_18  and  C_19
REMARK    8  A    between atoms: C_19  and  C_21
REMARK    9  A    between atoms: C_19  and  O_51
REMARK   10  A    between atoms: C_21  and  C_23
REMARK   11  A    between atoms: C_21  and  N_30
REMARK   12  A    between atoms: C_23  and  C_24
REMARK   13  A    between atoms: C_31  and  C_33
REMARK   14  A    between atoms: C_33  and  C_34
REMARK   15  A    between atoms: C_33  and  N_38
REMARK   16  A    between atoms: C_34  and  C_35
REMARK   17  A    between atoms: C_39  and  C_41
REMARK                            x       y       z     vdW  Elec       q    Type
REMARK                         _______ _______ _______ _____ _____    ______ ____
ROOT
ATOM      1  C   UNL     1       8.584  -1.206  23.780  0.00  0.00    +0.107 C 
ENDROOT
BRANCH   1   2
ATOM      2  N   UNL     1       7.579  -1.389  24.836  0.00  0.00    -0.308 N 
ATOM      3  H   UNL     1       6.813  -2.027  24.629  0.00  0.00    +0.149 HD
ATOM      4  C   UNL     1       7.866  -1.258  26.184  0.00  0.00    +0.234 C 
ATOM      5  O   UNL     1       9.004  -1.048  26.599  0.00  0.00    -0.274 OA
BRANCH   4   6
ATOM      6  C   UNL     1       6.681  -1.492  27.147  0.00  0.00    +0.168 C 
BRANCH   6   7
ATOM      7  N   UNL     1       5.849  -2.545  26.579  0.00  0.00    -0.298 N 
ATOM      8  H   UNL     1       5.062  -2.294  25.985  0.00  0.00    +0.150 HD
ATOM      9  C   UNL     1       6.059  -3.874  26.834  0.00  0.00    +0.263 C 
ATOM     10  O   UNL     1       6.984  -4.281  27.532  0.00  0.00    -0.269 OA
BRANCH   9  11
ATOM     11  C   UNL     1       5.098  -4.828  26.189  0.00  0.00    +0.126 A 
ATOM     12  C   UNL     1       5.175  -6.163  26.552  0.00  0.00    +0.033 A 
ATOM     13  C   UNL     1       4.386  -7.067  25.866  0.00  0.00    +0.012 A 
ATOM     14  C   UNL     1       3.491  -6.608  24.898  0.00  0.00    +0.000 A 
ATOM     15  C   UNL     1       3.406  -5.217  24.658  0.00  0.00    +0.072 A 
ATOM     16  C   UNL     1       2.412  -4.782  23.786  0.00  0.00    +0.028 A 
ATOM     17  C   UNL     1       1.541  -5.676  23.150  0.00  0.00    +0.002 A 
ATOM     18  C   UNL     1       1.690  -7.046  23.339  0.00  0.00    +0.001 A 
ATOM     19  C   UNL     1       2.672  -7.513  24.204  0.00  0.00    +0.010 A 
ATOM     20  N   UNL     1       4.232  -4.334  25.262  0.00  0.00    -0.242 NA
ENDBRANCH   9  11
ENDBRANCH   6   7
BRANCH   6  21
ATOM     21  C   UNL     1       5.952  -0.196  27.515  0.00  0.00    +0.127 C 
BRANCH  21  22
ATOM     22  C   UNL     1       4.698   0.001  26.711  0.00  0.00    +0.213 C 
ATOM     23  N   UNL     1       3.628   0.457  27.424  0.00  0.00    -0.329 N 
ATOM     24  H   UNL     1       2.779   0.658  26.912  0.00  0.00    +0.145 HD
ATOM     25  H   UNL     1       3.718   0.828  28.360  0.00  0.00    +0.145 HD
ATOM     26  O   UNL     1       4.591  -0.259  25.515  0.00  0.00    -0.276 OA
ENDBRANCH  21  22
ENDBRANCH   6  21
ENDBRANCH   4   6
ENDBRANCH   1   2
BRANCH   1  27
ATOM     27  C   UNL     1       8.163  -0.164  22.694  0.00  0.00    +0.149 C 
BRANCH  27  28
ATOM     28  O   UNL     1       8.945  -0.381  21.508  0.00  0.00    -0.389 OA
ATOM     29  H   UNL     1       8.738   0.346  20.893  0.00  0.00    +0.210 HD
ENDBRANCH  27  28
BRANCH  27  30
ATOM     30  C   UNL     1       8.337   1.300  23.176  0.00  0.00    +0.118 C 
BRANCH  30  32
ATOM     31  C   UNL     1       6.449   2.710  22.619  0.00  0.00    +0.143 C 
ATOM     32  N   UNL     1       7.161   2.003  23.745  0.00  0.00    -0.289 NA
ATOM     33  C   UNL     1       7.534   2.945  24.819  0.00  0.00    +0.089 C 
ATOM     34  C   UNL     1       8.313   4.180  24.337  0.00  0.00    +0.006 C 
ATOM     35  C   UNL     1       7.455   4.949  23.319  0.00  0.00    -0.005 C 
ATOM     36  C   UNL     1       8.161   6.224  22.844  0.00  0.00    +0.004 C 
ATOM     37  C   UNL     1       8.553   7.107  24.028  0.00  0.00    +0.000 C 
ATOM     38  C   UNL     1       9.422   6.347  25.025  0.00  0.00    +0.000 C 
ATOM     39  C   UNL     1       8.731   5.074  25.511  0.00  0.00    +0.005 C 
ATOM     40  C   UNL     1       7.109   4.022  22.147  0.00  0.00    +0.032 C 
BRANCH  31  43
ATOM     41  N   UNL     1       4.355   3.906  22.199  0.00  0.00    -0.309 N 
ATOM     42  H   UNL     1       4.945   4.278  21.457  0.00  0.00    +0.149 HD
ATOM     43  C   UNL     1       4.956   2.930  22.955  0.00  0.00    +0.231 C 
ATOM     44  O   UNL     1       4.391   2.324  23.867  0.00  0.00    -0.274 OA
BRANCH  41  46
ATOM     45  C   UNL     1       2.511   4.554  23.712  0.00  0.00    +0.031 C 
ATOM     46  C   UNL     1       2.938   4.267  22.265  0.00  0.00    +0.026 C 
ATOM     47  C   UNL     1       2.733   5.543  21.429  0.00  0.00    +0.031 C 
ATOM     48  C   UNL     1       2.063   3.145  21.678  0.00  0.00    +0.031 C 
ENDBRANCH  41  46
ENDBRANCH  31  43
ENDBRANCH  30  32
ENDBRANCH  27  30
ENDBRANCH   1  27
BRANCH   1  49
ATOM     49  C   UNL     1       9.008  -2.561  23.146  0.00  0.00    +0.060 C 
BRANCH  49  50
ATOM     50  C   UNL     1       7.905  -3.563  22.851  0.00  0.00    -0.046 A 
ATOM     51  C   UNL     1       7.894  -4.821  23.473  0.00  0.00    +0.004 A 
ATOM     52  C   UNL     1       6.889  -5.749  23.187  0.00  0.00    +0.000 A 
ATOM     53  C   UNL     1       5.890  -5.437  22.270  0.00  0.00    +0.000 A 
ATOM     54  C   UNL     1       5.895  -4.196  21.635  0.00  0.00    +0.000 A 
ATOM     55  C   UNL     1       6.898  -3.265  21.921  0.00  0.00    +0.004 A 
ENDBRANCH  49  50
ENDBRANCH   1  49
TORSDOF 14
ENDMDL
MODEL 3
REMARK VINA RESULT:      -6.7      2.081      6.594
REMARK  Name = 
REMARK  17 active torsions:
REMARK  status: ('A' for Active; 'I' for Inactive)
REMARK    1  A    between atoms: C_1  and  C_2
REMARK    2  A    between atoms: C_2  and  C_3
REMARK    3  A    between atoms: C_2  and  C_4
REMARK    4  A    between atoms: C_2  and  N_5
REMARK    5  A    between atoms: C_6  and  C_8
REMARK    6  A    between atoms: N_17  and  C_18
REMARK    7  A    between atoms: C_18  and  C_19
REMARK    8  A    between atoms: C_19  and  C_21
REMARK    9  A    between atoms: C_19  and  O_51
REMARK   10  A    between atoms: C_21  and  C_23
REMARK   11  A    between atoms: C_21  and  N_30
REMARK   12  A    between atoms: C_23  and  C_24
REMARK   13  A    between atoms: C_31  and  C_33
REMARK   14  A    between atoms: C_33  and  C_34
REMARK   15  A    between atoms: C_33  and  N_38
REMARK   16  A    between atoms: C_34  and  C_35
REMARK   17  A    between atoms: C_39  and  C_41
REMARK                            x       y       z     vdW  Elec       q    Type
REMARK                         _______ _______ _______ _____ _____    ______ ____
ROOT
ATOM      1  C   UNL     1       8.057  -3.040  23.799  0.00  0.00    +0.107 C 
ENDROOT
BRANCH   1   2
ATOM      2  N   UNL     1       7.048  -2.046  24.189  0.00  0.00    -0.308 N 
ATOM      3  H   UNL     1       6.148  -2.101  23.715  0.00  0.00    +0.149 HD
ATOM      4  C   UNL     1       6.996  -1.476  25.450  0.00  0.00    +0.234 C 
ATOM      5  O   UNL     1       7.752  -1.815  26.359  0.00  0.00    -0.274 OA
BRANCH   4   6
ATOM      6  C   UNL     1       5.861  -0.453  25.677  0.00  0.00    +0.168 C 
BRANCH   6   7
ATOM      7  N   UNL     1       6.365   0.859  25.296  0.00  0.00    -0.298 N 
ATOM      8  H   UNL     1       6.593   1.538  26.019  0.00  0.00    +0.150 HD
ATOM      9  C   UNL     1       6.520   1.243  23.990  0.00  0.00    +0.263 C 
ATOM     10  O   UNL     1       6.280   0.498  23.043  0.00  0.00    -0.269 OA
BRANCH   9  11
ATOM     11  C   UNL     1       7.029   2.637  23.769  0.00  0.00    +0.126 A 
ATOM     12  C   UNL     1       6.866   3.189  22.509  0.00  0.00    +0.033 A 
ATOM     13  C   UNL     1       7.449   4.418  22.260  0.00  0.00    +0.012 A 
ATOM     14  C   UNL     1       8.108   5.092  23.290  0.00  0.00    +0.000 A 
ATOM     15  C   UNL     1       8.144   4.499  24.573  0.00  0.00    +0.072 A 
ATOM     16  C   UNL     1       8.689   5.255  25.608  0.00  0.00    +0.028 A 
ATOM     17  C   UNL     1       9.204   6.540  25.394  0.00  0.00    +0.002 A 
ATOM     18  C   UNL     1       9.230   7.075  24.110  0.00  0.00    +0.001 A 
ATOM     19  C   UNL     1       8.691   6.347  23.056  0.00  0.00    +0.010 A 
ATOM     20  N   UNL     1       7.651   3.262  24.807  0.00  0.00    -0.242 NA
ENDBRANCH   9  11
ENDBRANCH   6   7
BRANCH   6  21
ATOM     21  C   UNL     1       5.251  -0.548  27.079  0.00  0.00    +0.127 C 
BRANCH  21  22
ATOM     22  C   UNL     1       3.866  -1.129  27.061  0.00  0.00    +0.213 C 
ATOM     23  N   UNL     1       3.797  -2.452  27.386  0.00  0.00    -0.329 N 
ATOM     24  H   UNL     1       2.878  -2.870  27.441  0.00  0.00    +0.145 HD
ATOM     25  H   UNL     1       4.572  -2.949  27.803  0.00  0.00    +0.145 HD
ATOM     26  O   UNL     1       2.856  -0.507  26.740  0.00  0.00    -0.276 OA
ENDBRANCH  21  22
ENDBRANCH   6  21
ENDBRANCH   4   6
ENDBRANCH   1   2
BRANCH   1  27
ATOM     27  C   UNL     1       7.918  -4.398  24.561  0.00  0.00    +0.149 C 
BRANCH  27  28
ATOM     28  O   UNL     1       8.948  -5.295  24.111  0.00  0.00    -0.389 OA
ATOM     29  H   UNL     1       9.220  -4.994  23.225  0.00  0.00    +0.210 HD
ENDBRANCH  27  28
BRANCH  27  30
ATOM     30  C   UNL     1       6.527  -5.053  24.359  0.00  0.00    +0.118 C 
BRANCH  30  32
ATOM     31  C   UNL     1       5.355  -6.079  26.213  0.00  0.00    +0.143 C 
ATOM     32  N   UNL     1       5.481  -4.824  25.386  0.00  0.00    -0.289 NA
ATOM     33  C   UNL     1       4.185  -4.440  24.792  0.00  0.00    +0.089 C 
ATOM     34  C   UNL     1       3.484  -5.568  24.016  0.00  0.00    +0.006 C 
ATOM     35  C   UNL     1       3.230  -6.749  24.967  0.00  0.00    -0.005 C 
ATOM     36  C   UNL     1       2.482  -7.884  24.259  0.00  0.00    +0.004 C 
ATOM     37  C   UNL     1       1.182  -7.377  23.634  0.00  0.00    +0.000 C 
ATOM     38  C   UNL     1       1.441  -6.220  22.675  0.00  0.00    +0.000 C 
ATOM     39  C   UNL     1       2.184  -5.078  23.366  0.00  0.00    +0.005 C 
ATOM     40  C   UNL     1       4.566  -7.227  25.549  0.00  0.00    +0.032 C 
BRANCH  31  43
ATOM     41  N   UNL     1       3.809  -6.628  28.031  0.00  0.00    -0.309 N 
ATOM     42  H   UNL     1       3.655  -7.413  27.400  0.00  0.00    +0.149 HD
ATOM     43  C   UNL     1       4.795  -5.764  27.620  0.00  0.00    +0.231 C 
ATOM     44  O   UNL     1       5.162  -4.784  28.269  0.00  0.00    -0.274 OA
BRANCH  41  46
ATOM     45  C   UNL     1       2.344  -5.310  29.523  0.00  0.00    +0.031 C 
ATOM     46  C   UNL     1       3.160  -6.600  29.343  0.00  0.00    +0.026 C 
ATOM     47  C   UNL     1       2.204  -7.803  29.425  0.00  0.00    +0.031 C 
ATOM     48  C   UNL     1       4.201  -6.717  30.469  0.00  0.00    +0.031 C 
ENDBRANCH  41  46
ENDBRANCH  31  43
ENDBRANCH  30  32
ENDBRANCH  27  30
ENDBRANCH   1  27
BRANCH   1  49
ATOM     49  C   UNL     1       9.498  -2.468  23.897  0.00  0.00    +0.060 C 
BRANCH  49  50
ATOM     50  C   UNL     1       9.731  -1.076  23.334  0.00  0.00    -0.046 A 
ATOM     51  C   UNL     1      10.228  -0.048  24.150  0.00  0.00    +0.004 A 
ATOM     52  C   UNL     1      10.425   1.237  23.637  0.00  0.00    +0.000 A 
ATOM     53  C   UNL     1      10.119   1.513  22.307  0.00  0.00    +0.000 A 
ATOM     54  C   UNL     1       9.613   0.505  21.489  0.00  0.00    +0.000 A 
ATOM     55  C   UNL     1       9.417  -0.782  21.999  0.00  0.00    +0.004 A 
ENDBRANCH  49  50
ENDBRANCH   1  49
TORSDOF 14
ENDMDL
MODEL 4
REMARK VINA RESULT:      -6.6      2.326      7.039
REMARK  Name = 
REMARK  17 active torsions:
REMARK  status: ('A' for Active; 'I' for Inactive)
REMARK    1  A    between atoms: C_1  and  C_2
REMARK    2  A    between atoms: C_2  and  C_3
REMARK    3  A    between atoms: C_2  and  C_4
REMARK    4  A    between atoms: C_2  and  N_5
REMARK    5  A    between atoms: C_6  and  C_8
REMARK    6  A    between atoms: N_17  and  C_18
REMARK    7  A    between atoms: C_18  and  C_19
REMARK    8  A    between atoms: C_19  and  C_21
REMARK    9  A    between atoms: C_19  and  O_51
REMARK   10  A    between atoms: C_21  and  C_23
REMARK   11  A    between atoms: C_21  and  N_30
REMARK   12  A    between atoms: C_23  and  C_24
REMARK   13  A    between atoms: C_31  and  C_33
REMARK   14  A    between atoms: C_33  and  C_34
REMARK   15  A    between atoms: C_33  and  N_38
REMARK   16  A    between atoms: C_34  and  C_35
REMARK   17  A    between atoms: C_39  and  C_41
REMARK                            x       y       z     vdW  Elec       q    Type
REMARK                         _______ _______ _______ _____ _____    ______ ____
ROOT
ATOM      1  C   UNL     1       6.274  -0.369  27.214  0.00  0.00    +0.107 C 
ENDROOT
BRANCH   1   2
ATOM      2  N   UNL     1       7.312  -0.102  26.209  0.00  0.00    -0.308 N 
ATOM      3  H   UNL     1       7.304   0.822  25.780  0.00  0.00    +0.149 HD
ATOM      4  C   UNL     1       8.554  -0.714  26.224  0.00  0.00    +0.234 C 
ATOM      5  O   UNL     1       8.904  -1.475  27.124  0.00  0.00    -0.274 OA
BRANCH   4   6
ATOM      6  C   UNL     1       9.517  -0.303  25.088  0.00  0.00    +0.168 C 
BRANCH   6   7
ATOM      7  N   UNL     1       9.151   1.040  24.660  0.00  0.00    -0.298 N 
ATOM      8  H   UNL     1       8.177   1.331  24.702  0.00  0.00    +0.150 HD
ATOM      9  C   UNL     1      10.063   1.936  24.167  0.00  0.00    +0.263 C 
ATOM     10  O   UNL     1      11.263   1.687  24.081  0.00  0.00    -0.269 OA
BRANCH   9  11
ATOM     11  C   UNL     1       9.518   3.270  23.751  0.00  0.00    +0.126 A 
ATOM     12  C   UNL     1      10.379   4.355  23.782  0.00  0.00    +0.033 A 
ATOM     13  C   UNL     1       9.851   5.607  23.529  0.00  0.00    +0.012 A 
ATOM     14  C   UNL     1       8.506   5.733  23.177  0.00  0.00    +0.000 A 
ATOM     15  C   UNL     1       7.720   4.562  23.074  0.00  0.00    +0.072 A 
ATOM     16  C   UNL     1       6.422   4.707  22.592  0.00  0.00    +0.028 A 
ATOM     17  C   UNL     1       5.898   5.958  22.243  0.00  0.00    +0.002 A 
ATOM     18  C   UNL     1       6.660   7.108  22.425  0.00  0.00    +0.001 A 
ATOM     19  C   UNL     1       7.960   6.996  22.902  0.00  0.00    +0.010 A 
ATOM     20  N   UNL     1       8.204   3.342  23.401  0.00  0.00    -0.242 NA
ENDBRANCH   9  11
ENDBRANCH   6   7
BRANCH   6  21
ATOM     21  C   UNL     1       9.603  -1.353  23.975  0.00  0.00    +0.127 C 
BRANCH  21  22
ATOM     22  C   UNL     1       8.716  -1.022  22.809  0.00  0.00    +0.213 C 
ATOM     23  N   UNL     1       9.304  -1.166  21.586  0.00  0.00    -0.329 N 
ATOM     24  H   UNL     1       8.726  -1.008  20.771  0.00  0.00    +0.145 HD
ATOM     25  H   UNL     1      10.184  -1.647  21.460  0.00  0.00    +0.145 HD
ATOM     26  O   UNL     1       7.564  -0.609  22.907  0.00  0.00    -0.276 OA
ENDBRANCH  21  22
ENDBRANCH   6  21
ENDBRANCH   4   6
ENDBRANCH   1   2
BRANCH   1  27
ATOM     27  C   UNL     1       4.931  -0.878  26.599  0.00  0.00    +0.149 C 
BRANCH  27  28
ATOM     28  O   UNL     1       4.094  -1.383  27.653  0.00  0.00    -0.389 OA
ATOM     29  H   UNL     1       4.685  -1.673  28.371  0.00  0.00    +0.210 HD
ENDBRANCH  27  28
BRANCH  27  30
ATOM     30  C   UNL     1       5.147  -1.980  25.528  0.00  0.00    +0.118 C 
BRANCH  30  32
ATOM     31  C   UNL     1       6.366  -3.849  26.467  0.00  0.00    +0.143 C 
ATOM     32  N   UNL     1       5.027  -3.400  25.940  0.00  0.00    -0.289 NA
ATOM     33  C   UNL     1       4.565  -4.268  24.838  0.00  0.00    +0.089 C 
ATOM     34  C   UNL     1       5.590  -4.455  23.707  0.00  0.00    +0.006 C 
ATOM     35  C   UNL     1       6.869  -5.079  24.288  0.00  0.00    -0.005 C 
ATOM     36  C   UNL     1       7.909  -5.341  23.192  0.00  0.00    +0.004 C 
ATOM     37  C   UNL     1       7.322  -6.202  22.074  0.00  0.00    +0.000 C 
ATOM     38  C   UNL     1       6.065  -5.569  21.487  0.00  0.00    +0.000 C 
ATOM     39  C   UNL     1       5.017  -5.305  22.566  0.00  0.00    +0.005 C 
ATOM     40  C   UNL     1       7.423  -4.166  25.388  0.00  0.00    +0.032 C 
BRANCH  31  43
ATOM     41  N   UNL     1       5.227  -4.840  28.394  0.00  0.00    -0.309 N 
ATOM     42  H   UNL     1       4.673  -3.998  28.251  0.00  0.00    +0.149 HD
ATOM     43  C   UNL     1       6.209  -5.030  27.453  0.00  0.00    +0.231 C 
ATOM     44  O   UNL     1       6.952  -6.012  27.425  0.00  0.00    -0.274 OA
BRANCH  41  46
ATOM     45  C   UNL     1       4.285  -7.100  28.733  0.00  0.00    +0.031 C 
ATOM     46  C   UNL     1       4.825  -5.825  29.399  0.00  0.00    +0.026 C 
ATOM     47  C   UNL     1       6.068  -6.192  30.229  0.00  0.00    +0.031 C 
ATOM     48  C   UNL     1       3.757  -5.239  30.339  0.00  0.00    +0.031 C 
ENDBRANCH  41  46
ENDBRANCH  31  43
ENDBRANCH  30  32
ENDBRANCH  27  30
ENDBRANCH   1  27
BRANCH   1  49
ATOM     49  C   UNL     1       6.054   0.849  28.153  0.00  0.00    +0.060 C 
BRANCH  49  50
ATOM     50  C   UNL     1       5.994   2.222  27.506  0.00  0.00    -0.046 A 
ATOM     51  C   UNL     1       4.766   2.772  27.106  0.00  0.00    +0.004 A 
ATOM     52  C   UNL     1       4.714   4.027  26.494  0.00  0.00    +0.000 A 
ATOM     53  C   UNL     1       5.884   4.744  26.265  0.00  0.00    +0.000 A 
ATOM     54  C   UNL     1       7.112   4.204  26.645  0.00  0.00    +0.000 A 
ATOM     55  C   UNL     1       7.168   2.949  27.260  0.00  0.00    +0.004 A 
ENDBRANCH  49  50
ENDBRANCH   1  49
TORSDOF 14
ENDMDL
MODEL 5
REMARK VINA RESULT:      -6.3      2.466      7.591
REMARK  Name = 
REMARK  17 active torsions:
REMARK  status: ('A' for Active; 'I' for Inactive)
REMARK    1  A    between atoms: C_1  and  C_2
REMARK    2  A    between atoms: C_2  and  C_3
REMARK    3  A    between atoms: C_2  and  C_4
REMARK    4  A    between atoms: C_2  and  N_5
REMARK    5  A    between atoms: C_6  and  C_8
REMARK    6  A    between atoms: N_17  and  C_18
REMARK    7  A    between atoms: C_18  and  C_19
REMARK    8  A    between atoms: C_19  and  C_21
REMARK    9  A    between atoms: C_19  and  O_51
REMARK   10  A    between atoms: C_21  and  C_23
REMARK   11  A    between atoms: C_21  and  N_30
REMARK   12  A    between atoms: C_23  and  C_24
REMARK   13  A    between atoms: C_31  and  C_33
REMARK   14  A    between atoms: C_33  and  C_34
REMARK   15  A    between atoms: C_33  and  N_38
REMARK   16  A    between atoms: C_34  and  C_35
REMARK   17  A    between atoms: C_39  and  C_41
REMARK                            x       y       z     vdW  Elec       q    Type
REMARK                         _______ _______ _______ _____ _____    ______ ____
ROOT
ATOM      1  C   UNL     1       8.138  -0.246  23.734  0.00  0.00    +0.107 C 
ENDROOT
BRANCH   1   2
ATOM      2  N   UNL     1       7.169  -0.765  24.709  0.00  0.00    -0.308 N 
ATOM      3  H   UNL     1       6.499  -1.450  24.364  0.00  0.00    +0.149 HD
ATOM      4  C   UNL     1       7.438  -0.861  26.064  0.00  0.00    +0.234 C 
ATOM      5  O   UNL     1       8.537  -0.581  26.540  0.00  0.00    -0.274 OA
BRANCH   4   6
ATOM      6  C   UNL     1       6.300  -1.436  26.935  0.00  0.00    +0.168 C 
BRANCH   6   7
ATOM      7  N   UNL     1       5.527  -2.351  26.106  0.00  0.00    -0.298 N 
ATOM      8  H   UNL     1       5.029  -1.992  25.294  0.00  0.00    +0.150 HD
ATOM      9  C   UNL     1       5.409  -3.687  26.387  0.00  0.00    +0.263 C 
ATOM     10  O   UNL     1       5.975  -4.220  27.338  0.00  0.00    -0.269 OA
BRANCH   9  11
ATOM     11  C   UNL     1       4.559  -4.486  25.444  0.00  0.00    +0.126 A 
ATOM     12  C   UNL     1       4.221  -3.905  24.233  0.00  0.00    +0.033 A 
ATOM     13  C   UNL     1       3.331  -4.579  23.417  0.00  0.00    +0.012 A 
ATOM     14  C   UNL     1       2.867  -5.840  23.794  0.00  0.00    +0.000 A 
ATOM     15  C   UNL     1       3.340  -6.403  25.002  0.00  0.00    +0.072 A 
ATOM     16  C   UNL     1       2.965  -7.715  25.282  0.00  0.00    +0.028 A 
ATOM     17  C   UNL     1       2.136  -8.447  24.423  0.00  0.00    +0.002 A 
ATOM     18  C   UNL     1       1.619  -7.850  23.278  0.00  0.00    +0.001 A 
ATOM     19  C   UNL     1       1.976  -6.543  22.969  0.00  0.00    +0.010 A 
ATOM     20  N   UNL     1       4.143  -5.719  25.847  0.00  0.00    -0.242 NA
ENDBRANCH   9  11
ENDBRANCH   6   7
BRANCH   6  21
ATOM     21  C   UNL     1       5.493  -0.347  27.650  0.00  0.00    +0.127 C 
BRANCH  21  22
ATOM     22  C   UNL     1       4.403   0.217  26.784  0.00  0.00    +0.213 C 
ATOM     23  N   UNL     1       3.136  -0.036  27.223  0.00  0.00    -0.329 N 
ATOM     24  H   UNL     1       2.373   0.374  26.701  0.00  0.00    +0.145 HD
ATOM     25  H   UNL     1       2.943  -0.389  28.150  0.00  0.00    +0.145 HD
ATOM     26  O   UNL     1       4.594   0.825  25.734  0.00  0.00    -0.276 OA
ENDBRANCH  21  22
ENDBRANCH   6  21
ENDBRANCH   4   6
ENDBRANCH   1   2
BRANCH   1  27
ATOM     27  C   UNL     1       7.490   0.661  22.638  0.00  0.00    +0.149 C 
BRANCH  27  28
ATOM     28  O   UNL     1       8.420   0.822  21.553  0.00  0.00    -0.389 OA
ATOM     29  H   UNL     1       9.188   1.306  21.906  0.00  0.00    +0.210 HD
ENDBRANCH  27  28
BRANCH  27  30
ATOM     30  C   UNL     1       7.078   2.053  23.186  0.00  0.00    +0.118 C 
BRANCH  30  32
ATOM     31  C   UNL     1       7.033   3.837  24.822  0.00  0.00    +0.143 C 
ATOM     32  N   UNL     1       7.584   2.467  24.518  0.00  0.00    -0.289 NA
ATOM     33  C   UNL     1       9.060   2.455  24.586  0.00  0.00    +0.089 C 
ATOM     34  C   UNL     1       9.742   3.547  23.745  0.00  0.00    +0.006 C 
ATOM     35  C   UNL     1       9.264   4.926  24.228  0.00  0.00    -0.005 C 
ATOM     36  C   UNL     1       9.955   6.057  23.459  0.00  0.00    +0.004 C 
ATOM     37  C   UNL     1      11.476   5.929  23.546  0.00  0.00    +0.000 C 
ATOM     38  C   UNL     1      11.948   4.568  23.046  0.00  0.00    +0.000 C 
ATOM     39  C   UNL     1      11.270   3.428  23.805  0.00  0.00    +0.005 C 
ATOM     40  C   UNL     1       7.737   5.004  24.100  0.00  0.00    +0.032 C 
BRANCH  31  43
ATOM     41  N   UNL     1       5.798   3.672  26.930  0.00  0.00    -0.309 N 
ATOM     42  H   UNL     1       5.175   3.170  26.299  0.00  0.00    +0.149 HD
ATOM     43  C   UNL     1       6.971   4.085  26.348  0.00  0.00    +0.231 C 
ATOM     44  O   UNL     1       7.872   4.664  26.956  0.00  0.00    -0.274 OA
BRANCH  41  46
ATOM     45  C   UNL     1       5.608   5.166  28.891  0.00  0.00    +0.031 C 
ATOM     46  C   UNL     1       5.506   3.726  28.364  0.00  0.00    +0.026 C 
ATOM     47  C   UNL     1       4.067   3.224  28.575  0.00  0.00    +0.031 C 
ATOM     48  C   UNL     1       6.468   2.817  29.149  0.00  0.00    +0.031 C 
ENDBRANCH  41  46
ENDBRANCH  31  43
ENDBRANCH  30  32
ENDBRANCH  27  30
ENDBRANCH   1  27
BRANCH   1  49
ATOM     49  C   UNL     1       8.994  -1.384  23.110  0.00  0.00    +0.060 C 
BRANCH  49  50
ATOM     50  C   UNL     1       8.399  -2.781  23.115  0.00  0.00    -0.046 A 
ATOM     51  C   UNL     1       8.723  -3.694  24.131  0.00  0.00    +0.004 A 
ATOM     52  C   UNL     1       8.189  -4.985  24.125  0.00  0.00    +0.000 A 
ATOM     53  C   UNL     1       7.336  -5.385  23.102  0.00  0.00    +0.000 A 
ATOM     54  C   UNL     1       7.016  -4.494  22.079  0.00  0.00    +0.000 A 
ATOM     55  C   UNL     1       7.546  -3.200  22.083  0.00  0.00    +0.004 A 
ENDBRANCH  49  50
ENDBRANCH   1  49
TORSDOF 14
ENDMDL
MODEL 6
REMARK VINA RESULT:      -6.2      1.964      7.106
REMARK  Name = 
REMARK  17 active torsions:
REMARK  status: ('A' for Active; 'I' for Inactive)
REMARK    1  A    between atoms: C_1  and  C_2
REMARK    2  A    between atoms: C_2  and  C_3
REMARK    3  A    between atoms: C_2  and  C_4
REMARK    4  A    between atoms: C_2  and  N_5
REMARK    5  A    between atoms: C_6  and  C_8
REMARK    6  A    between atoms: N_17  and  C_18
REMARK    7  A    between atoms: C_18  and  C_19
REMARK    8  A    between atoms: C_19  and  C_21
REMARK    9  A    between atoms: C_19  and  O_51
REMARK   10  A    between atoms: C_21  and  C_23
REMARK   11  A    between atoms: C_21  and  N_30
REMARK   12  A    between atoms: C_23  and  C_24
REMARK   13  A    between atoms: C_31  and  C_33
REMARK   14  A    between atoms: C_33  and  C_34
REMARK   15  A    between atoms: C_33  and  N_38
REMARK   16  A    between atoms: C_34  and  C_35
REMARK   17  A    between atoms: C_39  and  C_41
REMARK                            x       y       z     vdW  Elec       q    Type
REMARK                         _______ _______ _______ _____ _____    ______ ____
ROOT
ATOM      1  C   UNL     1       9.155  -1.545  24.606  0.00  0.00    +0.107 C 
ENDROOT
BRANCH   1   2
ATOM      2  N   UNL     1       7.900  -1.684  25.356  0.00  0.00    -0.308 N 
ATOM      3  H   UNL     1       7.047  -1.411  24.871  0.00  0.00    +0.149 HD
ATOM      4  C   UNL     1       7.714  -2.630  26.351  0.00  0.00    +0.234 C 
ATOM      5  O   UNL     1       8.567  -3.470  26.630  0.00  0.00    -0.274 OA
BRANCH   4   6
ATOM      6  C   UNL     1       6.325  -2.629  27.026  0.00  0.00    +0.168 C 
BRANCH   6   7
ATOM      7  N   UNL     1       5.447  -3.480  26.234  0.00  0.00    -0.298 N 
ATOM      8  H   UNL     1       5.085  -3.138  25.346  0.00  0.00    +0.150 HD
ATOM      9  C   UNL     1       5.052  -4.726  26.645  0.00  0.00    +0.263 C 
ATOM     10  O   UNL     1       5.437  -5.233  27.696  0.00  0.00    -0.269 OA
BRANCH   9  11
ATOM     11  C   UNL     1       4.129  -5.463  25.722  0.00  0.00    +0.126 A 
ATOM     12  C   UNL     1       4.341  -6.821  25.550  0.00  0.00    +0.033 A 
ATOM     13  C   UNL     1       3.581  -7.480  24.602  0.00  0.00    +0.012 A 
ATOM     14  C   UNL     1       2.584  -6.788  23.911  0.00  0.00    +0.000 A 
ATOM     15  C   UNL     1       2.369  -5.424  24.219  0.00  0.00    +0.072 A 
ATOM     16  C   UNL     1       1.282  -4.800  23.613  0.00  0.00    +0.028 A 
ATOM     17  C   UNL     1       0.444  -5.476  22.717  0.00  0.00    +0.002 A 
ATOM     18  C   UNL     1       0.717  -6.795  22.368  0.00  0.00    +0.001 A 
ATOM     19  C   UNL     1       1.793  -7.448  22.957  0.00  0.00    +0.010 A 
ATOM     20  N   UNL     1       3.160  -4.750  25.082  0.00  0.00    -0.242 NA
ENDBRANCH   9  11
ENDBRANCH   6   7
BRANCH   6  21
ATOM     21  C   UNL     1       5.803  -1.216  27.305  0.00  0.00    +0.127 C 
BRANCH  21  22
ATOM     22  C   UNL     1       4.381  -1.218  27.791  0.00  0.00    +0.213 C 
ATOM     23  N   UNL     1       3.592  -0.244  27.254  0.00  0.00    -0.329 N 
ATOM     24  H   UNL     1       2.613  -0.244  27.510  0.00  0.00    +0.145 HD
ATOM     25  H   UNL     1       3.873   0.300  26.449  0.00  0.00    +0.145 HD
ATOM     26  O   UNL     1       3.937  -1.990  28.638  0.00  0.00    -0.276 OA
ENDBRANCH  21  22
ENDBRANCH   6  21
ENDBRANCH   4   6
ENDBRANCH   1   2
BRANCH   1  27
ATOM     27  C   UNL     1       9.627  -0.063  24.454  0.00  0.00    +0.149 C 
BRANCH  27  28
ATOM     28  O   UNL     1      10.279   0.348  25.667  0.00  0.00    -0.389 OA
ATOM     29  H   UNL     1      10.068   1.290  25.799  0.00  0.00    +0.210 HD
ENDBRANCH  27  28
BRANCH  27  30
ATOM     30  C   UNL     1       8.456   0.904  24.135  0.00  0.00    +0.118 C 
BRANCH  30  32
ATOM     31  C   UNL     1       6.515   1.789  25.280  0.00  0.00    +0.143 C 
ATOM     32  N   UNL     1       8.019   1.855  25.186  0.00  0.00    -0.289 NA
ATOM     33  C   UNL     1       8.480   3.234  24.922  0.00  0.00    +0.089 C 
ATOM     34  C   UNL     1       7.800   3.910  23.719  0.00  0.00    +0.006 C 
ATOM     35  C   UNL     1       6.284   3.964  23.964  0.00  0.00    -0.005 C 
ATOM     36  C   UNL     1       5.559   4.680  22.818  0.00  0.00    +0.004 C 
ATOM     37  C   UNL     1       6.140   6.075  22.589  0.00  0.00    +0.000 C 
ATOM     38  C   UNL     1       7.641   6.015  22.325  0.00  0.00    +0.000 C 
ATOM     39  C   UNL     1       8.379   5.307  23.460  0.00  0.00    +0.005 C 
ATOM     40  C   UNL     1       5.753   2.539  24.168  0.00  0.00    +0.032 C 
BRANCH  31  43
ATOM     41  N   UNL     1       6.946   2.025  27.679  0.00  0.00    -0.309 N 
ATOM     42  H   UNL     1       7.856   1.710  27.346  0.00  0.00    +0.149 HD
ATOM     43  C   UNL     1       6.026   2.229  26.680  0.00  0.00    +0.231 C 
ATOM     44  O   UNL     1       4.886   2.655  26.874  0.00  0.00    -0.274 OA
BRANCH  41  46
ATOM     45  C   UNL     1       5.401   1.951  29.606  0.00  0.00    +0.031 C 
ATOM     46  C   UNL     1       6.768   2.414  29.079  0.00  0.00    +0.026 C 
ATOM     47  C   UNL     1       7.872   1.733  29.905  0.00  0.00    +0.031 C 
ATOM     48  C   UNL     1       6.897   3.939  29.241  0.00  0.00    +0.031 C 
ENDBRANCH  41  46
ENDBRANCH  31  43
ENDBRANCH  30  32
ENDBRANCH  27  30
ENDBRANCH   1  27
BRANCH   1  49
ATOM     49  C   UNL     1       9.091  -2.275  23.235  0.00  0.00    +0.060 C 
BRANCH  49  50
ATOM     50  C   UNL     1       7.878  -3.148  22.971  0.00  0.00    -0.046 A 
ATOM     51  C   UNL     1       7.909  -4.523  23.255  0.00  0.00    +0.004 A 
ATOM     52  C   UNL     1       6.798  -5.329  22.995  0.00  0.00    +0.000 A 
ATOM     53  C   UNL     1       5.648  -4.778  22.439  0.00  0.00    +0.000 A 
ATOM     54  C   UNL     1       5.607  -3.418  22.139  0.00  0.00    +0.000 A 
ATOM     55  C   UNL     1       6.716  -2.607  22.401  0.00  0.00    +0.004 A 
ENDBRANCH  49  50
ENDBRANCH   1  49
TORSDOF 14
ENDMDL
MODEL 7
REMARK VINA RESULT:      -6.1      2.081      6.559
REMARK  Name = 
REMARK  17 active torsions:
REMARK  status: ('A' for Active; 'I' for Inactive)
REMARK    1  A    between atoms: C_1  and  C_2
REMARK    2  A    between atoms: C_2  and  C_3
REMARK    3  A    between atoms: C_2  and  C_4
REMARK    4  A    between atoms: C_2  and  N_5
REMARK    5  A    between atoms: C_6  and  C_8
REMARK    6  A    between atoms: N_17  and  C_18
REMARK    7  A    between atoms: C_18  and  C_19
REMARK    8  A    between atoms: C_19  and  C_21
REMARK    9  A    between atoms: C_19  and  O_51
REMARK   10  A    between atoms: C_21  and  C_23
REMARK   11  A    between atoms: C_21  and  N_30
REMARK   12  A    between atoms: C_23  and  C_24
REMARK   13  A    between atoms: C_31  and  C_33
REMARK   14  A    between atoms: C_33  and  C_34
REMARK   15  A    between atoms: C_33  and  N_38
REMARK   16  A    between atoms: C_34  and  C_35
REMARK   17  A    between atoms: C_39  and  C_41
REMARK                            x       y       z     vdW  Elec       q    Type
REMARK                         _______ _______ _______ _____ _____    ______ ____
ROOT
ATOM      1  C   UNL     1       7.425  -4.096  26.101  0.00  0.00    +0.107 C 
ENDROOT
BRANCH   1   2
ATOM      2  N   UNL     1       7.125  -3.681  24.723  0.00  0.00    -0.308 N 
ATOM      3  H   UNL     1       6.796  -2.726  24.597  0.00  0.00    +0.149 HD
ATOM      4  C   UNL     1       7.762  -4.218  23.617  0.00  0.00    +0.234 C 
ATOM      5  O   UNL     1       8.677  -5.033  23.713  0.00  0.00    -0.274 OA
BRANCH   4   6
ATOM      6  C   UNL     1       7.317  -3.654  22.249  0.00  0.00    +0.168 C 
BRANCH   6   7
ATOM      7  N   UNL     1       7.425  -2.202  22.312  0.00  0.00    -0.298 N 
ATOM      8  H   UNL     1       6.594  -1.647  22.505  0.00  0.00    +0.150 HD
ATOM      9  C   UNL     1       8.601  -1.536  22.090  0.00  0.00    +0.263 C 
ATOM     10  O   UNL     1       9.660  -2.112  21.857  0.00  0.00    -0.269 OA
BRANCH   9  11
ATOM     11  C   UNL     1       8.535  -0.039  22.171  0.00  0.00    +0.126 A 
ATOM     12  C   UNL     1       9.725   0.663  22.068  0.00  0.00    +0.033 A 
ATOM     13  C   UNL     1       9.690   2.030  22.274  0.00  0.00    +0.012 A 
ATOM     14  C   UNL     1       8.466   2.664  22.499  0.00  0.00    +0.000 A 
ATOM     15  C   UNL     1       7.287   1.884  22.492  0.00  0.00    +0.072 A 
ATOM     16  C   UNL     1       6.075   2.563  22.583  0.00  0.00    +0.028 A 
ATOM     17  C   UNL     1       6.014   3.957  22.702  0.00  0.00    +0.002 A 
ATOM     18  C   UNL     1       7.187   4.700  22.785  0.00  0.00    +0.001 A 
ATOM     19  C   UNL     1       8.413   4.053  22.694  0.00  0.00    +0.010 A 
ATOM     20  N   UNL     1       7.318   0.537  22.375  0.00  0.00    -0.242 NA
ENDBRANCH   9  11
ENDBRANCH   6   7
BRANCH   6  21
ATOM     21  C   UNL     1       5.959  -4.199  21.797  0.00  0.00    +0.127 C 
BRANCH  21  22
ATOM     22  C   UNL     1       6.058  -5.594  21.246  0.00  0.00    +0.213 C 
ATOM     23  N   UNL     1       6.208  -6.570  22.187  0.00  0.00    -0.329 N 
ATOM     24  H   UNL     1       6.223  -7.528  21.864  0.00  0.00    +0.145 HD
ATOM     25  H   UNL     1       6.059  -6.401  23.172  0.00  0.00    +0.145 HD
ATOM     26  O   UNL     1       6.054  -5.870  20.049  0.00  0.00    -0.276 OA
ENDBRANCH  21  22
ENDBRANCH   6  21
ENDBRANCH   4   6
ENDBRANCH   1   2
BRANCH   1  27
ATOM     27  C   UNL     1       6.591  -5.330  26.574  0.00  0.00    +0.149 C 
BRANCH  27  28
ATOM     28  O   UNL     1       6.416  -6.229  25.466  0.00  0.00    -0.389 OA
ATOM     29  H   UNL     1       5.837  -6.951  25.773  0.00  0.00    +0.210 HD
ENDBRANCH  27  28
BRANCH  27  30
ATOM     30  C   UNL     1       5.206  -4.927  27.145  0.00  0.00    +0.118 C 
BRANCH  30  32
ATOM     31  C   UNL     1       3.262  -3.498  27.358  0.00  0.00    +0.143 C 
ATOM     32  N   UNL     1       4.505  -3.763  26.547  0.00  0.00    -0.289 NA
ATOM     33  C   UNL     1       4.181  -3.974  25.121  0.00  0.00    +0.089 C 
ATOM     34  C   UNL     1       3.097  -5.034  24.868  0.00  0.00    +0.006 C 
ATOM     35  C   UNL     1       1.803  -4.610  25.583  0.00  0.00    -0.005 C 
ATOM     36  C   UNL     1       0.668  -5.606  25.319  0.00  0.00    +0.004 C 
ATOM     37  C   UNL     1       0.443  -5.795  23.819  0.00  0.00    +0.000 C 
ATOM     38  C   UNL     1       1.723  -6.237  23.117  0.00  0.00    +0.000 C 
ATOM     39  C   UNL     1       2.865  -5.253  23.368  0.00  0.00    +0.005 C 
ATOM     40  C   UNL     1       2.082  -4.454  27.083  0.00  0.00    +0.032 C 
BRANCH  31  43
ATOM     41  N   UNL     1       3.407  -1.187  28.152  0.00  0.00    -0.309 N 
ATOM     42  H   UNL     1       4.125  -1.634  28.720  0.00  0.00    +0.149 HD
ATOM     43  C   UNL     1       2.820  -2.021  27.233  0.00  0.00    +0.231 C 
ATOM     44  O   UNL     1       1.967  -1.658  26.423  0.00  0.00    -0.274 OA
BRANCH  41  46
ATOM     45  C   UNL     1       3.413   0.899  26.825  0.00  0.00    +0.031 C 
ATOM     46  C   UNL     1       3.219   0.264  28.211  0.00  0.00    +0.026 C 
ATOM     47  C   UNL     1       1.779   0.537  28.680  0.00  0.00    +0.031 C 
ATOM     48  C   UNL     1       4.196   0.899  29.215  0.00  0.00    +0.031 C 
ENDBRANCH  41  46
ENDBRANCH  31  43
ENDBRANCH  30  32
ENDBRANCH  27  30
ENDBRANCH   1  27
BRANCH   1  49
ATOM     49  C   UNL     1       7.316  -2.908  27.097  0.00  0.00    +0.060 C 
BRANCH  49  50
ATOM     50  C   UNL     1       7.691  -1.531  26.578  0.00  0.00    -0.046 A 
ATOM     51  C   UNL     1       8.999  -1.261  26.144  0.00  0.00    +0.004 A 
ATOM     52  C   UNL     1       9.348   0.011  25.684  0.00  0.00    +0.000 A 
ATOM     53  C   UNL     1       8.402   1.031  25.660  0.00  0.00    +0.000 A 
ATOM     54  C   UNL     1       7.103   0.781  26.101  0.00  0.00    +0.000 A 
ATOM     55  C   UNL     1       6.750  -0.492  26.559  0.00  0.00    +0.004 A 
ENDBRANCH  49  50
ENDBRANCH   1  49
TORSDOF 14
ENDMDL
MODEL 8
REMARK VINA RESULT:      -6.1      1.975      6.402
REMARK  Name = 
REMARK  17 active torsions:
REMARK  status: ('A' for Active; 'I' for Inactive)
REMARK    1  A    between atoms: C_1  and  C_2
REMARK    2  A    between atoms: C_2  and  C_3
REMARK    3  A    between atoms: C_2  and  C_4
REMARK    4  A    between atoms: C_2  and  N_5
REMARK    5  A    between atoms: C_6  and  C_8
REMARK    6  A    between atoms: N_17  and  C_18
REMARK    7  A    between atoms: C_18  and  C_19
REMARK    8  A    between atoms: C_19  and  C_21
REMARK    9  A    between atoms: C_19  and  O_51
REMARK   10  A    between atoms: C_21  and  C_23
REMARK   11  A    between atoms: C_21  and  N_30
REMARK   12  A    between atoms: C_23  and  C_24
REMARK   13  A    between atoms: C_31  and  C_33
REMARK   14  A    between atoms: C_33  and  C_34
REMARK   15  A    between atoms: C_33  and  N_38
REMARK   16  A    between atoms: C_34  and  C_35
REMARK   17  A    between atoms: C_39  and  C_41
REMARK                            x       y       z     vdW  Elec       q    Type
REMARK                         _______ _______ _______ _____ _____    ______ ____
ROOT
ATOM      1  C   UNL     1       8.874  -3.342  25.957  0.00  0.00    +0.107 C 
ENDROOT
BRANCH   1   2
ATOM      2  N   UNL     1       8.197  -3.101  24.675  0.00  0.00    -0.308 N 
ATOM      3  H   UNL     1       7.304  -2.615  24.717  0.00  0.00    +0.149 HD
ATOM      4  C   UNL     1       8.877  -2.947  23.479  0.00  0.00    +0.234 C 
ATOM      5  O   UNL     1      10.105  -2.931  23.415  0.00  0.00    -0.274 OA
BRANCH   4   6
ATOM      6  C   UNL     1       7.996  -2.696  22.235  0.00  0.00    +0.168 C 
BRANCH   6   7
ATOM      7  N   UNL     1       7.820  -1.256  22.100  0.00  0.00    -0.298 N 
ATOM      8  H   UNL     1       8.371  -0.747  21.412  0.00  0.00    +0.150 HD
ATOM      9  C   UNL     1       6.959  -0.537  22.887  0.00  0.00    +0.263 C 
ATOM     10  O   UNL     1       6.245  -1.056  23.741  0.00  0.00    -0.269 OA
BRANCH   9  11
ATOM     11  C   UNL     1       6.914   0.941  22.633  0.00  0.00    +0.126 A 
ATOM     12  C   UNL     1       7.947   1.500  21.898  0.00  0.00    +0.033 A 
ATOM     13  C   UNL     1       7.982   2.876  21.774  0.00  0.00    +0.012 A 
ATOM     14  C   UNL     1       6.951   3.646  22.315  0.00  0.00    +0.000 A 
ATOM     15  C   UNL     1       5.883   2.986  22.966  0.00  0.00    +0.072 A 
ATOM     16  C   UNL     1       4.806   3.770  23.374  0.00  0.00    +0.028 A 
ATOM     17  C   UNL     1       4.782   5.156  23.176  0.00  0.00    +0.002 A 
ATOM     18  C   UNL     1       5.876   5.797  22.603  0.00  0.00    +0.001 A 
ATOM     19  C   UNL     1       6.965   5.043  22.182  0.00  0.00    +0.010 A 
ATOM     20  N   UNL     1       5.880   1.650  23.166  0.00  0.00    -0.242 NA
ENDBRANCH   9  11
ENDBRANCH   6   7
BRANCH   6  21
ATOM     21  C   UNL     1       6.706  -3.523  22.245  0.00  0.00    +0.127 C 
BRANCH  21  22
ATOM     22  C   UNL     1       6.966  -4.987  22.031  0.00  0.00    +0.213 C 
ATOM     23  N   UNL     1       6.310  -5.534  20.968  0.00  0.00    -0.329 N 
ATOM     24  H   UNL     1       6.499  -6.504  20.753  0.00  0.00    +0.145 HD
ATOM     25  H   UNL     1       5.855  -4.971  20.263  0.00  0.00    +0.145 HD
ATOM     26  O   UNL     1       7.670  -5.682  22.759  0.00  0.00    -0.276 OA
ENDBRANCH  21  22
ENDBRANCH   6  21
ENDBRANCH   4   6
ENDBRANCH   1   2
BRANCH   1  27
ATOM     27  C   UNL     1       8.555  -4.742  26.574  0.00  0.00    +0.149 C 
BRANCH  27  28
ATOM     28  O   UNL     1       8.805  -5.757  25.587  0.00  0.00    -0.389 OA
ATOM     29  H   UNL     1       9.695  -6.113  25.762  0.00  0.00    +0.210 HD
ENDBRANCH  27  28
BRANCH  27  30
ATOM     30  C   UNL     1       7.092  -4.850  27.078  0.00  0.00    +0.118 C 
BRANCH  30  32
ATOM     31  C   UNL     1       5.072  -3.561  27.426  0.00  0.00    +0.143 C 
ATOM     32  N   UNL     1       6.045  -4.057  26.387  0.00  0.00    -0.289 NA
ATOM     33  C   UNL     1       5.358  -4.832  25.333  0.00  0.00    +0.089 C 
ATOM     34  C   UNL     1       4.460  -5.962  25.862  0.00  0.00    +0.006 C 
ATOM     35  C   UNL     1       3.382  -5.361  26.778  0.00  0.00    -0.005 C 
ATOM     36  C   UNL     1       2.421  -6.440  27.292  0.00  0.00    +0.004 C 
ATOM     37  C   UNL     1       1.801  -7.219  26.132  0.00  0.00    +0.000 C 
ATOM     38  C   UNL     1       2.873  -7.831  25.238  0.00  0.00    +0.000 C 
ATOM     39  C   UNL     1       3.838  -6.768  24.715  0.00  0.00    +0.005 C 
ATOM     40  C   UNL     1       4.059  -4.610  27.931  0.00  0.00    +0.032 C 
BRANCH  31  43
ATOM     41  N   UNL     1       4.078  -1.386  27.952  0.00  0.00    -0.309 N 
ATOM     42  H   UNL     1       4.477  -1.642  28.854  0.00  0.00    +0.149 HD
ATOM     43  C   UNL     1       4.350  -2.280  26.946  0.00  0.00    +0.231 C 
ATOM     44  O   UNL     1       3.998  -2.124  25.776  0.00  0.00    -0.274 OA
BRANCH  41  46
ATOM     45  C   UNL     1       3.751   0.844  28.966  0.00  0.00    +0.031 C 
ATOM     46  C   UNL     1       3.466  -0.070  27.764  0.00  0.00    +0.026 C 
ATOM     47  C   UNL     1       4.083   0.565  26.506  0.00  0.00    +0.031 C 
ATOM     48  C   UNL     1       1.947  -0.199  27.559  0.00  0.00    +0.031 C 
ENDBRANCH  41  46
ENDBRANCH  31  43
ENDBRANCH  30  32
ENDBRANCH  27  30
ENDBRANCH   1  27
BRANCH   1  49
ATOM     49  C   UNL     1       8.617  -2.192  26.970  0.00  0.00    +0.060 C 
BRANCH  49  50
ATOM     50  C   UNL     1       8.628  -0.774  26.427  0.00  0.00    -0.046 A 
ATOM     51  C   UNL     1       7.585   0.116  26.726  0.00  0.00    +0.004 A 
ATOM     52  C   UNL     1       7.587   1.415  26.211  0.00  0.00    +0.000 A 
ATOM     53  C   UNL     1       8.624   1.838  25.385  0.00  0.00    +0.000 A 
ATOM     54  C   UNL     1       9.660   0.961  25.069  0.00  0.00    +0.000 A 
ATOM     55  C   UNL     1       9.662  -0.339  25.585  0.00  0.00    +0.004 A 
ENDBRANCH  49  50
ENDBRANCH   1  49
TORSDOF 14
ENDMDL
MODEL 9
REMARK VINA RESULT:      -6.0      3.193      6.895
REMARK  Name = 
REMARK  17 active torsions:
REMARK  status: ('A' for Active; 'I' for Inactive)
REMARK    1  A    between atoms: C_1  and  C_2
REMARK    2  A    between atoms: C_2  and  C_3
REMARK    3  A    between atoms: C_2  and  C_4
REMARK    4  A    between atoms: C_2  and  N_5
REMARK    5  A    between atoms: C_6  and  C_8
REMARK    6  A    between atoms: N_17  and  C_18
REMARK    7  A    between atoms: C_18  and  C_19
REMARK    8  A    between atoms: C_19  and  C_21
REMARK    9  A    between atoms: C_19  and  O_51
REMARK   10  A    between atoms: C_21  and  C_23
REMARK   11  A    between atoms: C_21  and  N_30
REMARK   12  A    between atoms: C_23  and  C_24
REMARK   13  A    between atoms: C_31  and  C_33
REMARK   14  A    between atoms: C_33  and  C_34
REMARK   15  A    between atoms: C_33  and  N_38
REMARK   16  A    between atoms: C_34  and  C_35
REMARK   17  A    between atoms: C_39  and  C_41
REMARK                            x       y       z     vdW  Elec       q    Type
REMARK                         _______ _______ _______ _____ _____    ______ ____
ROOT
ATOM      1  C   UNL     1       7.408   0.334  25.839  0.00  0.00    +0.107 C 
ENDROOT
BRANCH   1   2
ATOM      2  N   UNL     1       6.546   1.495  26.103  0.00  0.00    -0.308 N 
ATOM      3  H   UNL     1       6.951   2.412  25.926  0.00  0.00    +0.149 HD
ATOM      4  C   UNL     1       5.166   1.450  26.001  0.00  0.00    +0.234 C 
ATOM      5  O   UNL     1       4.565   0.450  25.612  0.00  0.00    -0.274 OA
BRANCH   4   6
ATOM      6  C   UNL     1       4.427   2.771  26.312  0.00  0.00    +0.168 C 
BRANCH   6   7
ATOM      7  N   UNL     1       4.103   3.407  25.041  0.00  0.00    -0.298 N 
ATOM      8  H   UNL     1       4.795   4.000  24.588  0.00  0.00    +0.150 HD
ATOM      9  C   UNL     1       2.884   3.269  24.433  0.00  0.00    +0.263 C 
ATOM     10  O   UNL     1       1.984   2.571  24.893  0.00  0.00    -0.269 OA
BRANCH   9  11
ATOM     11  C   UNL     1       2.706   4.007  23.139  0.00  0.00    +0.126 A 
ATOM     12  C   UNL     1       2.922   5.376  23.145  0.00  0.00    +0.033 A 
ATOM     13  C   UNL     1       2.632   6.082  21.993  0.00  0.00    +0.012 A 
ATOM     14  C   UNL     1       2.212   5.399  20.850  0.00  0.00    +0.000 A 
ATOM     15  C   UNL     1       2.111   3.989  20.902  0.00  0.00    +0.072 A 
ATOM     16  C   UNL     1       1.822   3.327  19.712  0.00  0.00    +0.028 A 
ATOM     17  C   UNL     1       1.613   4.020  18.512  0.00  0.00    +0.002 A 
ATOM     18  C   UNL     1       1.640   5.410  18.497  0.00  0.00    +0.001 A 
ATOM     19  C   UNL     1       1.929   6.100  19.668  0.00  0.00    +0.010 A 
ATOM     20  N   UNL     1       2.311   3.297  22.046  0.00  0.00    -0.242 NA
ENDBRANCH   9  11
ENDBRANCH   6   7
BRANCH   6  21
ATOM     21  C   UNL     1       5.179   3.647  27.319  0.00  0.00    +0.127 C 
BRANCH  21  22
ATOM     22  C   UNL     1       4.856   5.105  27.159  0.00  0.00    +0.213 C 
ATOM     23  N   UNL     1       5.943   5.927  27.100  0.00  0.00    -0.329 N 
ATOM     24  H   UNL     1       5.774   6.911  26.936  0.00  0.00    +0.145 HD
ATOM     25  H   UNL     1       6.882   5.577  26.966  0.00  0.00    +0.145 HD
ATOM     26  O   UNL     1       3.718   5.566  27.127  0.00  0.00    -0.276 OA
ENDBRANCH  21  22
ENDBRANCH   6  21
ENDBRANCH   4   6
ENDBRANCH   1   2
BRANCH   1  27
ATOM     27  C   UNL     1       7.627  -0.574  27.092  0.00  0.00    +0.149 C 
BRANCH  27  28
ATOM     28  O   UNL     1       8.750  -0.077  27.840  0.00  0.00    -0.389 OA
ATOM     29  H   UNL     1       9.442   0.154  27.194  0.00  0.00    +0.210 HD
ENDBRANCH  27  28
BRANCH  27  30
ATOM     30  C   UNL     1       7.864  -2.060  26.715  0.00  0.00    +0.118 C 
BRANCH  30  32
ATOM     31  C   UNL     1       7.218  -4.391  26.806  0.00  0.00    +0.143 C 
ATOM     32  N   UNL     1       6.700  -2.979  26.695  0.00  0.00    -0.289 NA
ATOM     33  C   UNL     1       5.869  -2.806  25.486  0.00  0.00    +0.089 C 
ATOM     34  C   UNL     1       6.539  -3.275  24.183  0.00  0.00    +0.006 C 
ATOM     35  C   UNL     1       6.882  -4.768  24.304  0.00  0.00    -0.005 C 
ATOM     36  C   UNL     1       7.504  -5.304  23.009  0.00  0.00    +0.004 C 
ATOM     37  C   UNL     1       6.595  -5.032  21.811  0.00  0.00    +0.000 C 
ATOM     38  C   UNL     1       6.275  -3.547  21.683  0.00  0.00    +0.000 C 
ATOM     39  C   UNL     1       5.651  -2.997  22.964  0.00  0.00    +0.005 C 
ATOM     40  C   UNL     1       7.809  -4.979  25.508  0.00  0.00    +0.032 C 
BRANCH  31  43
ATOM     41  N   UNL     1       5.345  -4.735  28.346  0.00  0.00    -0.309 N 
ATOM     42  H   UNL     1       5.503  -3.734  28.450  0.00  0.00    +0.149 HD
ATOM     43  C   UNL     1       6.144  -5.332  27.401  0.00  0.00    +0.231 C 
ATOM     44  O   UNL     1       6.071  -6.523  27.095  0.00  0.00    -0.274 OA
BRANCH  41  46
ATOM     45  C   UNL     1       4.690  -6.474  29.975  0.00  0.00    +0.031 C 
ATOM     46  C   UNL     1       4.211  -5.375  29.014  0.00  0.00    +0.026 C 
ATOM     47  C   UNL     1       3.469  -4.300  29.827  0.00  0.00    +0.031 C 
ATOM     48  C   UNL     1       3.239  -5.974  27.983  0.00  0.00    +0.031 C 
ENDBRANCH  41  46
ENDBRANCH  31  43
ENDBRANCH  30  32
ENDBRANCH  27  30
ENDBRANCH   1  27
BRANCH   1  49
ATOM     49  C   UNL     1       8.755   0.753  25.187  0.00  0.00    +0.060 C 
BRANCH  49  50
ATOM     50  C   UNL     1       9.059   0.196  23.807  0.00  0.00    -0.046 A 
ATOM     51  C   UNL     1       8.913   0.996  22.663  0.00  0.00    +0.004 A 
ATOM     52  C   UNL     1       9.176   0.477  21.393  0.00  0.00    +0.000 A 
ATOM     53  C   UNL     1       9.578  -0.847  21.247  0.00  0.00    +0.000 A 
ATOM     54  C   UNL     1       9.715  -1.657  22.373  0.00  0.00    +0.000 A 
ATOM     55  C   UNL     1       9.455  -1.140  23.646  0.00  0.00    +0.004 A 
ENDBRANCH  49  50
ENDBRANCH   1  49
TORSDOF 14
ENDMDL
