MODEL 1
REMARK VINA RESULT:      -6.9      0.000      0.000
REMARK  Name = 
REMARK  12 active torsions:
REMARK  status: ('A' for Active; 'I' for Inactive)
REMARK    1  A    between atoms: C_1  and  C_2
REMARK    2  A    between atoms: C_2  and  C_3
REMARK    3  A    between atoms: C_3  and  C_4
REMARK    4  A    between atoms: C_3  and  C_6
REMARK    5  A    between atoms: C_4  and  C_5
REMARK    6  A    between atoms: C_6  and  C_8
REMARK    7  A    between atoms: C_6  and  N_22
REMARK    8  A    between atoms: C_9  and  O_21
REMARK    9  A    between atoms: C_11  and  C_18
REMARK   10  A    between atoms: C_13  and  N_14
REMARK   11  A    between atoms: C_18  and  O_20
REMARK   12  A    between atoms: C_23  and  C_25
REMARK                            x       y       z     vdW  Elec       q    Type
REMARK                         _______ _______ _______ _____ _____    ______ ____
ROOT
ATOM      1  C   UNL     1       7.060  -3.061  23.424  0.00  0.00    +0.079 C 
ATOM      2  C   UNL     1       7.954  -4.269  23.829  0.00  0.00    +0.196 C 
ATOM      3  C   UNL     1       7.676  -5.389  22.805  0.00  0.00    +0.062 C 
ATOM      4  C   UNL     1       6.439  -4.971  22.030  0.00  0.00    +0.130 C 
ATOM      5  C   UNL     1       6.526  -3.447  22.037  0.00  0.00    +0.137 C 
ENDROOT
BRANCH   2   6
ATOM      6  N   UNL     1       7.575  -4.780  25.144  0.00  0.00    -0.110 NA
ATOM      7  C   UNL     1       8.443  -5.329  25.905  0.00  0.00    +0.377 C 
ATOM      8  N   UNL     1       8.056  -5.892  27.072  0.00  0.00    -0.289 N 
ATOM      9  H   UNL     1       8.538  -6.760  27.261  0.00  0.00    +0.255 HD
ATOM     10  H   UNL     1       7.049  -6.015  27.088  0.00  0.00    +0.255 HD
ATOM     11  N   UNL     1       9.771  -5.526  25.752  0.00  0.00    -0.289 N 
ATOM     12  H   UNL     1      10.284  -5.461  26.622  0.00  0.00    +0.255 HD
ATOM     13  H   UNL     1      10.245  -4.937  25.067  0.00  0.00    +0.255 HD
ENDBRANCH   2   6
BRANCH   4  14
ATOM     14  C   UNL     1       5.157  -5.510  22.640  0.00  0.00    +0.310 C 
ATOM     15  O   UNL     1       4.092  -4.912  22.668  0.00  0.00    -0.251 OA
BRANCH  14  16
ATOM     16  O   UNL     1       5.274  -6.787  23.072  0.00  0.00    -0.480 OA
ATOM     17  H   UNL     1       4.423  -7.205  23.298  0.00  0.00    +0.295 HD
ENDBRANCH  14  16
ENDBRANCH   4  14
BRANCH   5  18
ATOM     18  O   UNL     1       5.271  -2.874  21.712  0.00  0.00    -0.391 OA
ATOM     19  H   UNL     1       5.432  -2.004  21.281  0.00  0.00    +0.210 HD
ENDBRANCH   5  18
BRANCH   1  20
ATOM     20  C   UNL     1       7.807  -1.688  23.535  0.00  0.00    +0.085 C 
BRANCH  20  21
ATOM     21  N   UNL     1       7.078  -0.692  24.337  0.00  0.00    -0.312 N 
ATOM     22  H   UNL     1       6.968  -0.851  25.332  0.00  0.00    +0.149 HD
ATOM     23  C   UNL     1       6.619   0.490  23.793  0.00  0.00    +0.210 C 
ATOM     24  C   UNL     1       5.800   1.344  24.725  0.00  0.00    +0.109 C 
ATOM     25  O   UNL     1       6.759   0.795  22.610  0.00  0.00    -0.276 OA
ENDBRANCH  20  21
BRANCH  20  26
ATOM     26  C   UNL     1       9.338  -1.693  23.901  0.00  0.00    +0.009 C 
BRANCH  26  28
ATOM     27  C   UNL     1       9.618  -0.885  21.433  0.00  0.00    +0.004 C 
ATOM     28  C   UNL     1      10.270  -1.457  22.684  0.00  0.00    +0.002 C 
ENDBRANCH  26  28
BRANCH  26  29
ATOM     29  C   UNL     1       9.653  -0.763  25.098  0.00  0.00    +0.002 C 
ATOM     30  C   UNL     1      10.564   0.415  24.756  0.00  0.00    +0.004 C 
ENDBRANCH  26  29
ENDBRANCH  20  26
ENDBRANCH   1  20
TORSDOF 9
ENDMDL
MODEL 2
REMARK VINA RESULT:      -6.6      1.436      2.406
REMARK  Name = 
REMARK  12 active torsions:
REMARK  status: ('A' for Active; 'I' for Inactive)
REMARK    1  A    between atoms: C_1  and  C_2
REMARK    2  A    between atoms: C_2  and  C_3
REMARK    3  A    between atoms: C_3  and  C_4
REMARK    4  A    between atoms: C_3  and  C_6
REMARK    5  A    between atoms: C_4  and  C_5
REMARK    6  A    between atoms: C_6  and  C_8
REMARK    7  A    between atoms: C_6  and  N_22
REMARK    8  A    between atoms: C_9  and  O_21
REMARK    9  A    between atoms: C_11  and  C_18
REMARK   10  A    between atoms: C_13  and  N_14
REMARK   11  A    between atoms: C_18  and  O_20
REMARK   12  A    between atoms: C_23  and  C_25
REMARK                            x       y       z     vdW  Elec       q    Type
REMARK                         _______ _______ _______ _____ _____    ______ ____
ROOT
ATOM      1  C   UNL     1       7.317  -3.391  23.741  0.00  0.00    +0.079 C 
ATOM      2  C   UNL     1       7.958  -4.792  23.963  0.00  0.00    +0.196 C 
ATOM      3  C   UNL     1       7.457  -5.695  22.817  0.00  0.00    +0.062 C 
ATOM      4  C   UNL     1       6.320  -4.948  22.141  0.00  0.00    +0.130 C 
ATOM      5  C   UNL     1       6.706  -3.484  22.335  0.00  0.00    +0.137 C 
ENDROOT
BRANCH   2   6
ATOM      6  N   UNL     1       7.496  -5.384  25.216  0.00  0.00    -0.110 NA
ATOM      7  C   UNL     1       8.244  -5.383  26.252  0.00  0.00    +0.377 C 
ATOM      8  N   UNL     1       7.846  -6.029  27.372  0.00  0.00    -0.289 N 
ATOM      9  H   UNL     1       8.604  -6.517  27.827  0.00  0.00    +0.255 HD
ATOM     10  H   UNL     1       7.073  -6.653  27.163  0.00  0.00    +0.255 HD
ATOM     11  N   UNL     1       9.475  -4.871  26.467  0.00  0.00    -0.289 N 
ATOM     12  H   UNL     1       9.602  -4.524  27.409  0.00  0.00    +0.255 HD
ATOM     13  H   UNL     1       9.788  -4.143  25.823  0.00  0.00    +0.255 HD
ENDBRANCH   2   6
BRANCH   4  14
ATOM     14  C   UNL     1       4.961  -5.301  22.722  0.00  0.00    +0.310 C 
ATOM     15  O   UNL     1       3.948  -4.633  22.583  0.00  0.00    -0.251 OA
BRANCH  14  16
ATOM     16  O   UNL     1       4.947  -6.506  23.337  0.00  0.00    -0.480 OA
ATOM     17  H   UNL     1       4.461  -7.193  22.845  0.00  0.00    +0.295 HD
ENDBRANCH  14  16
ENDBRANCH   4  14
BRANCH   5  18
ATOM     18  O   UNL     1       5.587  -2.640  22.125  0.00  0.00    -0.391 OA
ATOM     19  H   UNL     1       4.771  -3.178  22.233  0.00  0.00    +0.210 HD
ENDBRANCH   5  18
BRANCH   1  20
ATOM     20  C   UNL     1       8.321  -2.216  23.997  0.00  0.00    +0.085 C 
BRANCH  20  21
ATOM     21  N   UNL     1       8.311  -1.199  22.932  0.00  0.00    -0.312 N 
ATOM     22  H   UNL     1       7.518  -0.573  22.862  0.00  0.00    +0.149 HD
ATOM     23  C   UNL     1       9.385  -1.017  22.085  0.00  0.00    +0.210 C 
ATOM     24  C   UNL     1       9.165  -0.012  20.985  0.00  0.00    +0.109 C 
ATOM     25  O   UNL     1      10.413  -1.691  22.134  0.00  0.00    -0.276 OA
ENDBRANCH  20  21
BRANCH  20  26
ATOM     26  C   UNL     1       8.340  -1.540  25.418  0.00  0.00    +0.009 C 
BRANCH  26  28
ATOM     27  C   UNL     1      10.233   0.260  25.347  0.00  0.00    +0.004 C 
ATOM     28  C   UNL     1       8.741  -0.041  25.390  0.00  0.00    +0.002 C 
ENDBRANCH  26  28
BRANCH  26  29
ATOM     29  C   UNL     1       7.035  -1.805  26.207  0.00  0.00    +0.002 C 
ATOM     30  C   UNL     1       5.929  -0.783  25.953  0.00  0.00    +0.004 C 
ENDBRANCH  26  29
ENDBRANCH  20  26
ENDBRANCH   1  20
TORSDOF 9
ENDMDL
MODEL 3
REMARK VINA RESULT:      -6.5      2.625      5.758
REMARK  Name = 
REMARK  12 active torsions:
REMARK  status: ('A' for Active; 'I' for Inactive)
REMARK    1  A    between atoms: C_1  and  C_2
REMARK    2  A    between atoms: C_2  and  C_3
REMARK    3  A    between atoms: C_3  and  C_4
REMARK    4  A    between atoms: C_3  and  C_6
REMARK    5  A    between atoms: C_4  and  C_5
REMARK    6  A    between atoms: C_6  and  C_8
REMARK    7  A    between atoms: C_6  and  N_22
REMARK    8  A    between atoms: C_9  and  O_21
REMARK    9  A    between atoms: C_11  and  C_18
REMARK   10  A    between atoms: C_13  and  N_14
REMARK   11  A    between atoms: C_18  and  O_20
REMARK   12  A    between atoms: C_23  and  C_25
REMARK                            x       y       z     vdW  Elec       q    Type
REMARK                         _______ _______ _______ _____ _____    ______ ____
ROOT
ATOM      1  C   UNL     1       8.723  -1.712  23.261  0.00  0.00    +0.079 C 
ATOM      2  C   UNL     1       7.915  -0.813  24.241  0.00  0.00    +0.196 C 
ATOM      3  C   UNL     1       7.640   0.513  23.501  0.00  0.00    +0.062 C 
ATOM      4  C   UNL     1       8.526   0.513  22.267  0.00  0.00    +0.130 C 
ATOM      5  C   UNL     1       8.632  -0.969  21.920  0.00  0.00    +0.137 C 
ENDROOT
BRANCH   2   6
ATOM      6  N   UNL     1       8.705  -0.492  25.427  0.00  0.00    -0.110 NA
ATOM      7  C   UNL     1       8.240  -0.706  26.598  0.00  0.00    +0.377 C 
ATOM      8  N   UNL     1       8.938  -0.306  27.685  0.00  0.00    -0.289 N 
ATOM      9  H   UNL     1       8.345   0.080  28.406  0.00  0.00    +0.255 HD
ATOM     10  H   UNL     1       9.667   0.347  27.415  0.00  0.00    +0.255 HD
ATOM     11  N   UNL     1       7.074  -1.249  27.013  0.00  0.00    -0.289 N 
ATOM     12  H   UNL     1       7.167  -1.783  27.867  0.00  0.00    +0.255 HD
ATOM     13  H   UNL     1       6.572  -1.827  26.338  0.00  0.00    +0.255 HD
ENDBRANCH   2   6
BRANCH   4  14
ATOM     14  C   UNL     1       9.869   1.180  22.511  0.00  0.00    +0.310 C 
ATOM     15  O   UNL     1      10.714   0.779  23.297  0.00  0.00    -0.251 OA
BRANCH  14  16
ATOM     16  O   UNL     1      10.096   2.227  21.684  0.00  0.00    -0.480 OA
ATOM     17  H   UNL     1      10.661   2.919  22.074  0.00  0.00    +0.295 HD
ENDBRANCH  14  16
ENDBRANCH   4  14
BRANCH   5  18
ATOM     18  O   UNL     1       9.725  -1.200  21.047  0.00  0.00    -0.391 OA
ATOM     19  H   UNL     1      10.493  -0.676  21.369  0.00  0.00    +0.210 HD
ENDBRANCH   5  18
BRANCH   1  20
ATOM     20  C   UNL     1       8.248  -3.205  23.274  0.00  0.00    +0.085 C 
BRANCH  20  21
ATOM     21  N   UNL     1       7.950  -3.709  24.625  0.00  0.00    -0.312 N 
ATOM     22  H   UNL     1       7.064  -3.469  25.052  0.00  0.00    +0.149 HD
ATOM     23  C   UNL     1       8.802  -4.569  25.287  0.00  0.00    +0.210 C 
ATOM     24  C   UNL     1       8.400  -4.900  26.701  0.00  0.00    +0.109 C 
ATOM     25  O   UNL     1       9.871  -4.961  24.823  0.00  0.00    -0.276 OA
ENDBRANCH  20  21
BRANCH  20  26
ATOM     26  C   UNL     1       7.136  -3.647  22.252  0.00  0.00    +0.009 C 
BRANCH  26  28
ATOM     27  C   UNL     1       6.264  -5.689  20.875  0.00  0.00    +0.004 C 
ATOM     28  C   UNL     1       6.994  -5.186  22.113  0.00  0.00    +0.002 C 
ENDBRANCH  26  28
BRANCH  26  29
ATOM     29  C   UNL     1       5.787  -2.934  22.514  0.00  0.00    +0.002 C 
ATOM     30  C   UNL     1       4.843  -3.697  23.442  0.00  0.00    +0.004 C 
ENDBRANCH  26  29
ENDBRANCH  20  26
ENDBRANCH   1  20
TORSDOF 9
ENDMDL
MODEL 4
REMARK VINA RESULT:      -6.4      1.527      2.522
REMARK  Name = 
REMARK  12 active torsions:
REMARK  status: ('A' for Active; 'I' for Inactive)
REMARK    1  A    between atoms: C_1  and  C_2
REMARK    2  A    between atoms: C_2  and  C_3
REMARK    3  A    between atoms: C_3  and  C_4
REMARK    4  A    between atoms: C_3  and  C_6
REMARK    5  A    between atoms: C_4  and  C_5
REMARK    6  A    between atoms: C_6  and  C_8
REMARK    7  A    between atoms: C_6  and  N_22
REMARK    8  A    between atoms: C_9  and  O_21
REMARK    9  A    between atoms: C_11  and  C_18
REMARK   10  A    between atoms: C_13  and  N_14
REMARK   11  A    between atoms: C_18  and  O_20
REMARK   12  A    between atoms: C_23  and  C_25
REMARK                            x       y       z     vdW  Elec       q    Type
REMARK                         _______ _______ _______ _____ _____    ______ ____
ROOT
ATOM      1  C   UNL     1       7.138  -3.371  23.795  0.00  0.00    +0.079 C 
ATOM      2  C   UNL     1       7.885  -4.715  24.030  0.00  0.00    +0.196 C 
ATOM      3  C   UNL     1       7.501  -5.647  22.861  0.00  0.00    +0.062 C 
ATOM      4  C   UNL     1       6.331  -4.990  22.150  0.00  0.00    +0.130 C 
ATOM      5  C   UNL     1       6.587  -3.502  22.367  0.00  0.00    +0.137 C 
ENDROOT
BRANCH   2   6
ATOM      6  N   UNL     1       7.431  -5.356  25.262  0.00  0.00    -0.110 NA
ATOM      7  C   UNL     1       8.163  -5.348  26.309  0.00  0.00    +0.377 C 
ATOM      8  N   UNL     1       7.777  -6.036  27.408  0.00  0.00    -0.289 N 
ATOM      9  H   UNL     1       8.548  -6.503  27.864  0.00  0.00    +0.255 HD
ATOM     10  H   UNL     1       7.034  -6.686  27.173  0.00  0.00    +0.255 HD
ATOM     11  N   UNL     1       9.369  -4.790  26.554  0.00  0.00    -0.289 N 
ATOM     12  H   UNL     1       9.468  -4.460  27.506  0.00  0.00    +0.255 HD
ATOM     13  H   UNL     1       9.660  -4.035  25.932  0.00  0.00    +0.255 HD
ENDBRANCH   2   6
BRANCH   4  14
ATOM     14  C   UNL     1       4.987  -5.460  22.680  0.00  0.00    +0.310 C 
ATOM     15  O   UNL     1       3.927  -4.876  22.510  0.00  0.00    -0.251 OA
BRANCH  14  16
ATOM     16  O   UNL     1       5.051  -6.669  23.285  0.00  0.00    -0.480 OA
ATOM     17  H   UNL     1       4.197  -6.977  23.640  0.00  0.00    +0.295 HD
ENDBRANCH  14  16
ENDBRANCH   4  14
BRANCH   5  18
ATOM     18  O   UNL     1       5.409  -2.752  22.123  0.00  0.00    -0.391 OA
ATOM     19  H   UNL     1       4.883  -3.219  21.436  0.00  0.00    +0.210 HD
ENDBRANCH   5  18
BRANCH   1  20
ATOM     20  C   UNL     1       8.032  -2.119  24.093  0.00  0.00    +0.085 C 
BRANCH  20  21
ATOM     21  N   UNL     1       8.164  -1.211  22.942  0.00  0.00    -0.312 N 
ATOM     22  H   UNL     1       7.402  -0.581  22.725  0.00  0.00    +0.149 HD
ATOM     23  C   UNL     1       9.328  -1.132  22.205  0.00  0.00    +0.210 C 
ATOM     24  C   UNL     1       9.257  -0.235  20.996  0.00  0.00    +0.109 C 
ATOM     25  O   UNL     1      10.325  -1.815  22.430  0.00  0.00    -0.276 OA
ENDBRANCH  20  21
BRANCH  20  26
ATOM     26  C   UNL     1       7.773  -1.310  25.419  0.00  0.00    +0.009 C 
BRANCH  26  28
ATOM     27  C   UNL     1       5.517  -1.067  26.714  0.00  0.00    +0.004 C 
ATOM     28  C   UNL     1       6.700  -1.950  26.338  0.00  0.00    +0.002 C 
ENDBRANCH  26  28
BRANCH  26  29
ATOM     29  C   UNL     1       9.088  -0.975  26.162  0.00  0.00    +0.002 C 
ATOM     30  C   UNL     1       9.883   0.174  25.544  0.00  0.00    +0.004 C 
ENDBRANCH  26  29
ENDBRANCH  20  26
ENDBRANCH   1  20
TORSDOF 9
ENDMDL
MODEL 5
REMARK VINA RESULT:      -6.4      3.413      5.383
REMARK  Name = 
REMARK  12 active torsions:
REMARK  status: ('A' for Active; 'I' for Inactive)
REMARK    1  A    between atoms: C_1  and  C_2
REMARK    2  A    between atoms: C_2  and  C_3
REMARK    3  A    between atoms: C_3  and  C_4
REMARK    4  A    between atoms: C_3  and  C_6
REMARK    5  A    between atoms: C_4  and  C_5
REMARK    6  A    between atoms: C_6  and  C_8
REMARK    7  A    between atoms: C_6  and  N_22
REMARK    8  A    between atoms: C_9  and  O_21
REMARK    9  A    between atoms: C_11  and  C_18
REMARK   10  A    between atoms: C_13  and  N_14
REMARK   11  A    between atoms: C_18  and  O_20
REMARK   12  A    between atoms: C_23  and  C_25
REMARK                            x       y       z     vdW  Elec       q    Type
REMARK                         _______ _______ _______ _____ _____    ______ ____
ROOT
ATOM      1  C   UNL     1       6.402  -5.597  25.673  0.00  0.00    +0.079 C 
ATOM      2  C   UNL     1       4.871  -5.368  25.514  0.00  0.00    +0.196 C 
ATOM      3  C   UNL     1       4.318  -5.074  26.924  0.00  0.00    +0.062 C 
ATOM      4  C   UNL     1       5.419  -5.436  27.906  0.00  0.00    +0.130 C 
ATOM      5  C   UNL     1       6.692  -5.153  27.114  0.00  0.00    +0.137 C 
ENDROOT
BRANCH   2   6
ATOM      6  N   UNL     1       4.210  -6.578  25.031  0.00  0.00    -0.110 NA
ATOM      7  C   UNL     1       3.455  -6.542  24.001  0.00  0.00    +0.377 C 
ATOM      8  N   UNL     1       2.766  -7.646  23.631  0.00  0.00    -0.289 N 
ATOM      9  H   UNL     1       1.831  -7.431  23.316  0.00  0.00    +0.255 HD
ATOM     10  H   UNL     1       2.759  -8.326  24.384  0.00  0.00    +0.255 HD
ATOM     11  N   UNL     1       3.134  -5.534  23.161  0.00  0.00    -0.289 N 
ATOM     12  H   UNL     1       3.005  -5.839  22.205  0.00  0.00    +0.255 HD
ATOM     13  H   UNL     1       3.763  -4.730  23.148  0.00  0.00    +0.255 HD
ENDBRANCH   2   6
BRANCH   4  14
ATOM     14  C   UNL     1       5.314  -6.868  28.400  0.00  0.00    +0.310 C 
ATOM     15  O   UNL     1       6.154  -7.432  29.086  0.00  0.00    -0.251 OA
BRANCH  14  16
ATOM     16  O   UNL     1       4.131  -7.448  28.093  0.00  0.00    -0.480 OA
ATOM     17  H   UNL     1       3.582  -7.657  28.871  0.00  0.00    +0.295 HD
ENDBRANCH  14  16
ENDBRANCH   4  14
BRANCH   5  18
ATOM     18  O   UNL     1       7.805  -5.796  27.713  0.00  0.00    -0.391 OA
ATOM     19  H   UNL     1       8.364  -6.173  26.998  0.00  0.00    +0.210 HD
ENDBRANCH   5  18
BRANCH   1  20
ATOM     20  C   UNL     1       7.240  -4.910  24.541  0.00  0.00    +0.085 C 
BRANCH  20  21
ATOM     21  N   UNL     1       6.569  -4.924  23.231  0.00  0.00    -0.312 N 
ATOM     22  H   UNL     1       5.751  -4.342  23.094  0.00  0.00    +0.149 HD
ATOM     23  C   UNL     1       7.072  -5.635  22.160  0.00  0.00    +0.210 C 
ATOM     24  C   UNL     1       6.205  -5.629  20.928  0.00  0.00    +0.109 C 
ATOM     25  O   UNL     1       8.091  -6.322  22.216  0.00  0.00    -0.276 OA
ENDBRANCH  20  21
BRANCH  20  26
ATOM     26  C   UNL     1       7.880  -3.501  24.830  0.00  0.00    +0.009 C 
BRANCH  26  28
ATOM     27  C   UNL     1       9.874  -2.325  23.621  0.00  0.00    +0.004 C 
ATOM     28  C   UNL     1       9.404  -3.439  24.545  0.00  0.00    +0.002 C 
ENDBRANCH  26  28
BRANCH  26  29
ATOM     29  C   UNL     1       7.088  -2.354  24.157  0.00  0.00    +0.002 C 
ATOM     30  C   UNL     1       5.928  -1.816  24.993  0.00  0.00    +0.004 C 
ENDBRANCH  26  29
ENDBRANCH  20  26
ENDBRANCH   1  20
TORSDOF 9
ENDMDL
MODEL 6
REMARK VINA RESULT:      -6.1      1.503      1.873
REMARK  Name = 
REMARK  12 active torsions:
REMARK  status: ('A' for Active; 'I' for Inactive)
REMARK    1  A    between atoms: C_1  and  C_2
REMARK    2  A    between atoms: C_2  and  C_3
REMARK    3  A    between atoms: C_3  and  C_4
REMARK    4  A    between atoms: C_3  and  C_6
REMARK    5  A    between atoms: C_4  and  C_5
REMARK    6  A    between atoms: C_6  and  C_8
REMARK    7  A    between atoms: C_6  and  N_22
REMARK    8  A    between atoms: C_9  and  O_21
REMARK    9  A    between atoms: C_11  and  C_18
REMARK   10  A    between atoms: C_13  and  N_14
REMARK   11  A    between atoms: C_18  and  O_20
REMARK   12  A    between atoms: C_23  and  C_25
REMARK                            x       y       z     vdW  Elec       q    Type
REMARK                         _______ _______ _______ _____ _____    ______ ____
ROOT
ATOM      1  C   UNL     1       6.572  -3.120  23.589  0.00  0.00    +0.079 C 
ATOM      2  C   UNL     1       7.560  -4.014  24.392  0.00  0.00    +0.196 C 
ATOM      3  C   UNL     1       8.027  -5.130  23.434  0.00  0.00    +0.062 C 
ATOM      4  C   UNL     1       7.106  -5.079  22.228  0.00  0.00    +0.130 C 
ATOM      5  C   UNL     1       6.735  -3.602  22.140  0.00  0.00    +0.137 C 
ENDROOT
BRANCH   2   6
ATOM      6  N   UNL     1       6.884  -4.661  25.515  0.00  0.00    -0.110 NA
ATOM      7  C   UNL     1       7.555  -5.147  26.487  0.00  0.00    +0.377 C 
ATOM      8  N   UNL     1       6.923  -5.836  27.464  0.00  0.00    -0.289 N 
ATOM      9  H   UNL     1       7.445  -6.647  27.767  0.00  0.00    +0.255 HD
ATOM     10  H   UNL     1       5.985  -6.086  27.169  0.00  0.00    +0.255 HD
ATOM     11  N   UNL     1       8.882  -5.163  26.740  0.00  0.00    -0.289 N 
ATOM     12  H   UNL     1       9.099  -5.095  27.726  0.00  0.00    +0.255 HD
ATOM     13  H   UNL     1       9.451  -4.472  26.249  0.00  0.00    +0.255 HD
ENDBRANCH   2   6
BRANCH   4  14
ATOM     14  C   UNL     1       5.907  -6.001  22.368  0.00  0.00    +0.310 C 
ATOM     15  O   UNL     1       5.446  -6.390  23.430  0.00  0.00    -0.251 OA
BRANCH  14  16
ATOM     16  O   UNL     1       5.315  -6.281  21.184  0.00  0.00    -0.480 OA
ATOM     17  H   UNL     1       4.772  -7.090  21.198  0.00  0.00    +0.295 HD
ENDBRANCH  14  16
ENDBRANCH   4  14
BRANCH   5  18
ATOM     18  O   UNL     1       5.585  -3.424  21.331  0.00  0.00    -0.391 OA
ATOM     19  H   UNL     1       5.121  -2.609  21.629  0.00  0.00    +0.210 HD
ENDBRANCH   5  18
BRANCH   1  20
ATOM     20  C   UNL     1       6.787  -1.590  23.851  0.00  0.00    +0.085 C 
BRANCH  20  21
ATOM     21  N   UNL     1       6.890  -1.254  25.281  0.00  0.00    -0.312 N 
ATOM     22  H   UNL     1       7.730  -1.514  25.785  0.00  0.00    +0.149 HD
ATOM     23  C   UNL     1       5.920  -0.519  25.931  0.00  0.00    +0.210 C 
ATOM     24  C   UNL     1       6.128  -0.360  27.415  0.00  0.00    +0.109 C 
ATOM     25  O   UNL     1       4.896  -0.111  25.386  0.00  0.00    -0.276 OA
ENDBRANCH  20  21
BRANCH  20  26
ATOM     26  C   UNL     1       7.884  -0.831  23.015  0.00  0.00    +0.009 C 
BRANCH  26  28
ATOM     27  C   UNL     1       8.361   1.324  21.618  0.00  0.00    +0.004 C 
ATOM     28  C   UNL     1       7.497   0.629  22.661  0.00  0.00    +0.002 C 
ENDBRANCH  26  28
BRANCH  26  29
ATOM     29  C   UNL     1       9.288  -0.950  23.655  0.00  0.00    +0.002 C 
ATOM     30  C   UNL     1      10.279  -1.785  22.845  0.00  0.00    +0.004 C 
ENDBRANCH  26  29
ENDBRANCH  20  26
ENDBRANCH   1  20
TORSDOF 9
ENDMDL
MODEL 7
REMARK VINA RESULT:      -6.0      2.345      5.514
REMARK  Name = 
REMARK  12 active torsions:
REMARK  status: ('A' for Active; 'I' for Inactive)
REMARK    1  A    between atoms: C_1  and  C_2
REMARK    2  A    between atoms: C_2  and  C_3
REMARK    3  A    between atoms: C_3  and  C_4
REMARK    4  A    between atoms: C_3  and  C_6
REMARK    5  A    between atoms: C_4  and  C_5
REMARK    6  A    between atoms: C_6  and  C_8
REMARK    7  A    between atoms: C_6  and  N_22
REMARK    8  A    between atoms: C_9  and  O_21
REMARK    9  A    between atoms: C_11  and  C_18
REMARK   10  A    between atoms: C_13  and  N_14
REMARK   11  A    between atoms: C_18  and  O_20
REMARK   12  A    between atoms: C_23  and  C_25
REMARK                            x       y       z     vdW  Elec       q    Type
REMARK                         _______ _______ _______ _____ _____    ______ ____
ROOT
ATOM      1  C   UNL     1       6.715  -3.049  24.457  0.00  0.00    +0.079 C 
ATOM      2  C   UNL     1       7.516  -3.204  25.782  0.00  0.00    +0.196 C 
ATOM      3  C   UNL     1       7.736  -1.781  26.336  0.00  0.00    +0.062 C 
ATOM      4  C   UNL     1       7.365  -0.819  25.221  0.00  0.00    +0.130 C 
ATOM      5  C   UNL     1       6.280  -1.576  24.461  0.00  0.00    +0.137 C 
ENDROOT
BRANCH   2   6
ATOM      6  N   UNL     1       8.834  -3.781  25.531  0.00  0.00    -0.110 NA
ATOM      7  C   UNL     1       9.133  -4.942  25.973  0.00  0.00    +0.377 C 
ATOM      8  N   UNL     1      10.390  -5.417  25.826  0.00  0.00    -0.289 N 
ATOM      9  H   UNL     1      10.714  -5.917  26.642  0.00  0.00    +0.255 HD
ATOM     10  H   UNL     1      11.024  -4.665  25.574  0.00  0.00    +0.255 HD
ATOM     11  N   UNL     1       8.408  -5.852  26.661  0.00  0.00    -0.289 N 
ATOM     12  H   UNL     1       8.639  -6.807  26.420  0.00  0.00    +0.255 HD
ATOM     13  H   UNL     1       7.393  -5.757  26.617  0.00  0.00    +0.255 HD
ENDBRANCH   2   6
BRANCH   4  14
ATOM     14  C   UNL     1       8.555  -0.434  24.360  0.00  0.00    +0.310 C 
ATOM     15  O   UNL     1       8.498   0.273  23.366  0.00  0.00    -0.251 OA
BRANCH  14  16
ATOM     16  O   UNL     1       9.734  -0.870  24.863  0.00  0.00    -0.480 OA
ATOM     17  H   UNL     1       9.962  -1.779  24.596  0.00  0.00    +0.295 HD
ENDBRANCH  14  16
ENDBRANCH   4  14
BRANCH   5  18
ATOM     18  O   UNL     1       6.092  -1.018  23.171  0.00  0.00    -0.391 OA
ATOM     19  H   UNL     1       6.727  -0.275  23.061  0.00  0.00    +0.210 HD
ENDBRANCH   5  18
BRANCH   1  20
ATOM     20  C   UNL     1       5.581  -4.119  24.303  0.00  0.00    +0.085 C 
BRANCH  20  21
ATOM     21  N   UNL     1       5.832  -5.081  23.217  0.00  0.00    -0.312 N 
ATOM     22  H   UNL     1       5.992  -6.053  23.452  0.00  0.00    +0.149 HD
ATOM     23  C   UNL     1       5.767  -4.716  21.888  0.00  0.00    +0.210 C 
ATOM     24  C   UNL     1       6.158  -5.794  20.911  0.00  0.00    +0.109 C 
ATOM     25  O   UNL     1       5.521  -3.573  21.508  0.00  0.00    -0.276 OA
ENDBRANCH  20  21
BRANCH  20  26
ATOM     26  C   UNL     1       5.061  -4.853  25.595  0.00  0.00    +0.009 C 
BRANCH  26  28
ATOM     27  C   UNL     1       3.067  -3.190  25.318  0.00  0.00    +0.004 C 
ATOM     28  C   UNL     1       3.654  -4.387  26.053  0.00  0.00    +0.002 C 
ENDBRANCH  26  28
BRANCH  26  29
ATOM     29  C   UNL     1       5.183  -6.392  25.479  0.00  0.00    +0.002 C 
ATOM     30  C   UNL     1       3.845  -7.128  25.442  0.00  0.00    +0.004 C 
ENDBRANCH  26  29
ENDBRANCH  20  26
ENDBRANCH   1  20
TORSDOF 9
ENDMDL
MODEL 8
REMARK VINA RESULT:      -5.8      2.285      5.781
REMARK  Name = 
REMARK  12 active torsions:
REMARK  status: ('A' for Active; 'I' for Inactive)
REMARK    1  A    between atoms: C_1  and  C_2
REMARK    2  A    between atoms: C_2  and  C_3
REMARK    3  A    between atoms: C_3  and  C_4
REMARK    4  A    between atoms: C_3  and  C_6
REMARK    5  A    between atoms: C_4  and  C_5
REMARK    6  A    between atoms: C_6  and  C_8
REMARK    7  A    between atoms: C_6  and  N_22
REMARK    8  A    between atoms: C_9  and  O_21
REMARK    9  A    between atoms: C_11  and  C_18
REMARK   10  A    between atoms: C_13  and  N_14
REMARK   11  A    between atoms: C_18  and  O_20
REMARK   12  A    between atoms: C_23  and  C_25
REMARK                            x       y       z     vdW  Elec       q    Type
REMARK                         _______ _______ _______ _____ _____    ______ ____
ROOT
ATOM      1  C   UNL     1       6.227  -2.411  24.328  0.00  0.00    +0.079 C 
ATOM      2  C   UNL     1       7.713  -1.975  24.175  0.00  0.00    +0.196 C 
ATOM      3  C   UNL     1       7.931  -0.796  25.147  0.00  0.00    +0.062 C 
ATOM      4  C   UNL     1       6.554  -0.354  25.608  0.00  0.00    +0.130 C 
ATOM      5  C   UNL     1       5.746  -1.648  25.571  0.00  0.00    +0.137 C 
ENDROOT
BRANCH   2   6
ATOM      6  N   UNL     1       7.975  -1.479  22.826  0.00  0.00    -0.110 NA
ATOM      7  C   UNL     1       9.160  -1.480  22.350  0.00  0.00    +0.377 C 
ATOM      8  N   UNL     1       9.403  -0.920  21.143  0.00  0.00    -0.289 N 
ATOM      9  H   UNL     1      10.271  -0.404  21.123  0.00  0.00    +0.255 HD
ATOM     10  H   UNL     1       8.619  -0.342  20.859  0.00  0.00    +0.255 HD
ATOM     11  N   UNL     1      10.331  -1.916  22.864  0.00  0.00    -0.289 N 
ATOM     12  H   UNL     1      10.954  -2.300  22.165  0.00  0.00    +0.255 HD
ATOM     13  H   UNL     1      10.274  -2.586  23.631  0.00  0.00    +0.255 HD
ENDBRANCH   2   6
BRANCH   4  14
ATOM     14  C   UNL     1       5.974   0.751  24.743  0.00  0.00    +0.310 C 
ATOM     15  O   UNL     1       4.864   1.242  24.888  0.00  0.00    -0.251 OA
BRANCH  14  16
ATOM     16  O   UNL     1       6.857   1.231  23.836  0.00  0.00    -0.480 OA
ATOM     17  H   UNL     1       7.348   0.535  23.361  0.00  0.00    +0.295 HD
ENDBRANCH  14  16
ENDBRANCH   4  14
BRANCH   5  18
ATOM     18  O   UNL     1       4.356  -1.369  25.586  0.00  0.00    -0.391 OA
ATOM     19  H   UNL     1       4.205  -0.526  25.102  0.00  0.00    +0.210 HD
ENDBRANCH   5  18
BRANCH   1  20
ATOM     20  C   UNL     1       6.049  -3.968  24.344  0.00  0.00    +0.085 C 
BRANCH  20  21
ATOM     21  N   UNL     1       6.575  -4.625  23.136  0.00  0.00    -0.312 N 
ATOM     22  H   UNL     1       7.575  -4.632  22.979  0.00  0.00    +0.149 HD
ATOM     23  C   UNL     1       5.755  -5.308  22.260  0.00  0.00    +0.210 C 
ATOM     24  C   UNL     1       6.438  -5.826  21.021  0.00  0.00    +0.109 C 
ATOM     25  O   UNL     1       4.537  -5.402  22.401  0.00  0.00    -0.276 OA
ENDBRANCH  20  21
BRANCH  20  26
ATOM     26  C   UNL     1       6.464  -4.758  25.640  0.00  0.00    +0.009 C 
BRANCH  26  28
ATOM     27  C   UNL     1       5.424  -6.284  27.487  0.00  0.00    +0.004 C 
ATOM     28  C   UNL     1       5.482  -5.898  26.015  0.00  0.00    +0.002 C 
ENDBRANCH  26  28
BRANCH  26  29
ATOM     29  C   UNL     1       7.941  -5.219  25.592  0.00  0.00    +0.002 C 
ATOM     30  C   UNL     1       8.855  -4.506  26.587  0.00  0.00    +0.004 C 
ENDBRANCH  26  29
ENDBRANCH  20  26
ENDBRANCH   1  20
TORSDOF 9
ENDMDL
MODEL 9
REMARK VINA RESULT:      -5.8      2.248      5.595
REMARK  Name = 
REMARK  12 active torsions:
REMARK  status: ('A' for Active; 'I' for Inactive)
REMARK    1  A    between atoms: C_1  and  C_2
REMARK    2  A    between atoms: C_2  and  C_3
REMARK    3  A    between atoms: C_3  and  C_4
REMARK    4  A    between atoms: C_3  and  C_6
REMARK    5  A    between atoms: C_4  and  C_5
REMARK    6  A    between atoms: C_6  and  C_8
REMARK    7  A    between atoms: C_6  and  N_22
REMARK    8  A    between atoms: C_9  and  O_21
REMARK    9  A    between atoms: C_11  and  C_18
REMARK   10  A    between atoms: C_13  and  N_14
REMARK   11  A    between atoms: C_18  and  O_20
REMARK   12  A    between atoms: C_23  and  C_25
REMARK                            x       y       z     vdW  Elec       q    Type
REMARK                         _______ _______ _______ _____ _____    ______ ____
ROOT
ATOM      1  C   UNL     1       7.999  -1.827  23.708  0.00  0.00    +0.079 C 
ATOM      2  C   UNL     1       7.311  -0.566  24.305  0.00  0.00    +0.196 C 
ATOM      3  C   UNL     1       7.415   0.543  23.237  0.00  0.00    +0.062 C 
ATOM      4  C   UNL     1       8.404   0.050  22.195  0.00  0.00    +0.130 C 
ATOM      5  C   UNL     1       8.217  -1.464  22.232  0.00  0.00    +0.137 C 
ENDROOT
BRANCH   2   6
ATOM      6  N   UNL     1       8.022  -0.095  25.490  0.00  0.00    -0.110 NA
ATOM      7  C   UNL     1       7.530  -0.268  26.657  0.00  0.00    +0.377 C 
ATOM      8  N   UNL     1       8.147   0.268  27.735  0.00  0.00    -0.289 N 
ATOM      9  H   UNL     1       7.495   0.648  28.406  0.00  0.00    +0.255 HD
ATOM     10  H   UNL     1       8.827   0.963  27.443  0.00  0.00    +0.255 HD
ATOM     11  N   UNL     1       6.401  -0.882  27.071  0.00  0.00    -0.289 N 
ATOM     12  H   UNL     1       6.505  -1.345  27.964  0.00  0.00    +0.255 HD
ATOM     13  H   UNL     1       5.978  -1.549  26.423  0.00  0.00    +0.255 HD
ENDBRANCH   2   6
BRANCH   4  14
ATOM     14  C   UNL     1       9.828   0.494  22.483  0.00  0.00    +0.310 C 
ATOM     15  O   UNL     1      10.610  -0.097  23.211  0.00  0.00    -0.251 OA
BRANCH  14  16
ATOM     16  O   UNL     1      10.199   1.578  21.761  0.00  0.00    -0.480 OA
ATOM     17  H   UNL     1       9.474   1.970  21.241  0.00  0.00    +0.295 HD
ENDBRANCH  14  16
ENDBRANCH   4  14
BRANCH   5  18
ATOM     18  O   UNL     1       9.317  -2.118  21.623  0.00  0.00    -0.391 OA
ATOM     19  H   UNL     1       9.755  -2.681  22.301  0.00  0.00    +0.210 HD
ENDBRANCH   5  18
BRANCH   1  20
ATOM     20  C   UNL     1       7.207  -3.147  24.000  0.00  0.00    +0.085 C 
BRANCH  20  21
ATOM     21  N   UNL     1       7.271  -4.121  22.897  0.00  0.00    -0.312 N 
ATOM     22  H   UNL     1       8.147  -4.596  22.715  0.00  0.00    +0.149 HD
ATOM     23  C   UNL     1       6.156  -4.468  22.163  0.00  0.00    +0.210 C 
ATOM     24  C   UNL     1       6.419  -5.392  21.003  0.00  0.00    +0.109 C 
ATOM     25  O   UNL     1       5.040  -3.987  22.351  0.00  0.00    -0.276 OA
ENDBRANCH  20  21
BRANCH  20  26
ATOM     26  C   UNL     1       7.416  -3.858  25.388  0.00  0.00    +0.009 C 
BRANCH  26  28
ATOM     27  C   UNL     1       5.310  -5.365  25.727  0.00  0.00    +0.004 C 
ATOM     28  C   UNL     1       6.806  -5.283  25.457  0.00  0.00    +0.002 C 
ENDBRANCH  26  28
BRANCH  26  29
ATOM     29  C   UNL     1       8.892  -3.806  25.852  0.00  0.00    +0.002 C 
ATOM     30  C   UNL     1       9.717  -5.030  25.460  0.00  0.00    +0.004 C 
ENDBRANCH  26  29
ENDBRANCH  20  26
ENDBRANCH   1  20
TORSDOF 9
ENDMDL
