MODEL 1
REMARK VINA RESULT:      -6.8      0.000      0.000
REMARK  Name = 
REMARK  4 active torsions:
REMARK  status: ('A' for Active; 'I' for Inactive)
REMARK    1  A    between atoms: C_3  and  N_13
REMARK    2  A    between atoms: C_6  and  O_12
REMARK    3  A    between atoms: C_8  and  C_10
REMARK    4  A    between atoms: C_10  and  O_11
REMARK                            x       y       z     vdW  Elec       q    Type
REMARK                         _______ _______ _______ _____ _____    ______ ____
ROOT
ATOM      1  N   UNL     1       8.701  -1.593  23.343  0.00  0.00    -0.172 N 
ATOM      2  C   UNL     1       8.736  -2.787  24.050  0.00  0.00    +0.337 C 
ATOM      3  N   UNL     1       9.695  -3.581  24.383  0.00  0.00    +0.023 NA
ATOM      4  C   UNL     1       9.399  -4.518  25.351  0.00  0.00    +0.450 C 
ATOM      5  N   UNL     1      10.232  -5.564  25.540  0.00  0.00    -0.241 N 
ATOM      6  H   UNL     1       9.853  -6.211  26.222  0.00  0.00    +0.242 HD
ATOM      7  H   UNL     1      10.519  -6.022  24.684  0.00  0.00    +0.242 HD
ATOM      8  N   UNL     1       8.377  -4.456  26.150  0.00  0.00    +0.008 NA
ATOM      9  C   UNL     1       7.473  -3.437  25.989  0.00  0.00    +0.347 C 
ATOM     10  O   UNL     1       6.796  -3.003  26.915  0.00  0.00    -0.251 OA
ATOM     11  C   UNL     1       7.324  -2.999  24.557  0.00  0.00    +0.329 C 
ATOM     12  N   UNL     1       6.645  -1.671  24.373  0.00  0.00    -0.228 NA
ATOM     13  C   UNL     1       7.506  -0.994  23.672  0.00  0.00    +0.302 C 
ENDROOT
BRANCH   1  19
ATOM     14  C   UNL     1      10.864   0.368  24.932  0.00  0.00    +0.012 C 
ATOM     15  C   UNL     1      10.150   0.373  23.793  0.00  0.00    -0.026 C 
ATOM     16  C   UNL     1       9.635   1.636  23.131  0.00  0.00    +0.072 C 
ATOM     17  C   UNL     1       9.508   1.235  21.651  0.00  0.00    +0.128 C 
ATOM     18  C   UNL     1       9.810  -0.264  21.531  0.00  0.00    +0.084 C 
ATOM     19  C   UNL     1       9.895  -0.856  22.938  0.00  0.00    +0.203 C 
BRANCH  17  20
ATOM     20  O   UNL     1       8.248   1.534  21.063  0.00  0.00    -0.391 OA
ATOM     21  H   UNL     1       7.595   1.600  21.791  0.00  0.00    +0.210 HD
ENDBRANCH  17  20
BRANCH  16  22
ATOM     22  C   UNL     1       8.353   2.198  23.763  0.00  0.00    +0.166 C 
BRANCH  22  23
ATOM     23  O   UNL     1       8.056   3.494  23.243  0.00  0.00    -0.394 OA
ATOM     24  H   UNL     1       7.300   3.838  23.756  0.00  0.00    +0.209 HD
ENDBRANCH  22  23
ENDBRANCH  16  22
ENDBRANCH   1  19
TORSDOF 4
ENDMDL
MODEL 2
REMARK VINA RESULT:      -6.8      1.938      2.297
REMARK  Name = 
REMARK  4 active torsions:
REMARK  status: ('A' for Active; 'I' for Inactive)
REMARK    1  A    between atoms: C_3  and  N_13
REMARK    2  A    between atoms: C_6  and  O_12
REMARK    3  A    between atoms: C_8  and  C_10
REMARK    4  A    between atoms: C_10  and  O_11
REMARK                            x       y       z     vdW  Elec       q    Type
REMARK                         _______ _______ _______ _____ _____    ______ ____
ROOT
ATOM      1  N   UNL     1       8.699  -3.251  23.418  0.00  0.00    -0.172 N 
ATOM      2  C   UNL     1       8.173  -4.206  24.278  0.00  0.00    +0.337 C 
ATOM      3  N   UNL     1       8.448  -4.537  25.492  0.00  0.00    +0.023 NA
ATOM      4  C   UNL     1       7.514  -5.325  26.133  0.00  0.00    +0.450 C 
ATOM      5  N   UNL     1       7.851  -5.959  27.276  0.00  0.00    -0.241 N 
ATOM      6  H   UNL     1       7.099  -6.561  27.593  0.00  0.00    +0.242 HD
ATOM      7  H   UNL     1       8.743  -6.436  27.236  0.00  0.00    +0.242 HD
ATOM      8  N   UNL     1       6.286  -5.481  25.739  0.00  0.00    +0.008 NA
ATOM      9  C   UNL     1       5.888  -4.891  24.566  0.00  0.00    +0.347 C 
ATOM     10  O   UNL     1       4.725  -4.562  24.355  0.00  0.00    -0.251 OA
ATOM     11  C   UNL     1       6.990  -4.804  23.545  0.00  0.00    +0.329 C 
ATOM     12  N   UNL     1       6.720  -3.856  22.410  0.00  0.00    -0.228 NA
ATOM     13  C   UNL     1       7.749  -3.060  22.440  0.00  0.00    +0.302 C 
ENDROOT
BRANCH   1  19
ATOM     14  C   UNL     1       8.673  -0.838  25.704  0.00  0.00    +0.012 C 
ATOM     15  C   UNL     1       8.991  -0.992  24.408  0.00  0.00    -0.026 C 
ATOM     16  C   UNL     1       8.866   0.112  23.377  0.00  0.00    +0.072 C 
ATOM     17  C   UNL     1       9.902  -0.279  22.308  0.00  0.00    +0.128 C 
ATOM     18  C   UNL     1      10.480  -1.651  22.679  0.00  0.00    +0.084 C 
ATOM     19  C   UNL     1       9.657  -2.229  23.831  0.00  0.00    +0.203 C 
BRANCH  17  20
ATOM     20  O   UNL     1       9.403  -0.297  20.976  0.00  0.00    -0.391 OA
ATOM     21  H   UNL     1      10.129  -0.611  20.398  0.00  0.00    +0.210 HD
ENDBRANCH  17  20
BRANCH  16  22
ATOM     22  C   UNL     1       7.439   0.321  22.849  0.00  0.00    +0.166 C 
BRANCH  22  23
ATOM     23  O   UNL     1       7.368   1.480  22.018  0.00  0.00    -0.394 OA
ATOM     24  H   UNL     1       6.435   1.578  21.749  0.00  0.00    +0.209 HD
ENDBRANCH  22  23
ENDBRANCH  16  22
ENDBRANCH   1  19
TORSDOF 4
ENDMDL
MODEL 3
REMARK VINA RESULT:      -6.4      2.069      2.137
REMARK  Name = 
REMARK  4 active torsions:
REMARK  status: ('A' for Active; 'I' for Inactive)
REMARK    1  A    between atoms: C_3  and  N_13
REMARK    2  A    between atoms: C_6  and  O_12
REMARK    3  A    between atoms: C_8  and  C_10
REMARK    4  A    between atoms: C_10  and  O_11
REMARK                            x       y       z     vdW  Elec       q    Type
REMARK                         _______ _______ _______ _____ _____    ______ ____
ROOT
ATOM      1  N   UNL     1       7.705  -1.386  23.263  0.00  0.00    -0.172 N 
ATOM      2  C   UNL     1       7.144  -2.609  22.920  0.00  0.00    +0.337 C 
ATOM      3  N   UNL     1       7.612  -3.651  22.324  0.00  0.00    +0.023 NA
ATOM      4  C   UNL     1       6.856  -4.800  22.427  0.00  0.00    +0.450 C 
ATOM      5  N   UNL     1       7.107  -5.838  21.600  0.00  0.00    -0.241 N 
ATOM      6  H   UNL     1       6.430  -6.580  21.733  0.00  0.00    +0.242 HD
ATOM      7  H   UNL     1       7.213  -5.574  20.628  0.00  0.00    +0.242 HD
ATOM      8  N   UNL     1       5.921  -4.991  23.308  0.00  0.00    +0.008 NA
ATOM      9  C   UNL     1       5.593  -3.965  24.157  0.00  0.00    +0.347 C 
ATOM     10  O   UNL     1       5.124  -4.157  25.274  0.00  0.00    -0.251 OA
ATOM     11  C   UNL     1       5.759  -2.606  23.533  0.00  0.00    +0.329 C 
ATOM     12  N   UNL     1       5.772  -1.463  24.510  0.00  0.00    -0.228 NA
ATOM     13  C   UNL     1       6.893  -0.860  24.243  0.00  0.00    +0.302 C 
ENDROOT
BRANCH   1  19
ATOM     14  C   UNL     1       9.959   0.019  25.261  0.00  0.00    +0.012 C 
ATOM     15  C   UNL     1       9.557   0.104  23.982  0.00  0.00    -0.026 C 
ATOM     16  C   UNL     1       9.625   1.379  23.164  0.00  0.00    +0.072 C 
ATOM     17  C   UNL     1       9.713   0.868  21.715  0.00  0.00    +0.128 C 
ATOM     18  C   UNL     1       9.550  -0.658  21.732  0.00  0.00    +0.084 C 
ATOM     19  C   UNL     1       9.128  -1.084  23.138  0.00  0.00    +0.203 C 
BRANCH  17  20
ATOM     20  O   UNL     1       8.776   1.456  20.821  0.00  0.00    -0.391 OA
ATOM     21  H   UNL     1       9.275   2.060  20.232  0.00  0.00    +0.210 HD
ENDBRANCH  17  20
BRANCH  16  22
ATOM     22  C   UNL     1       8.476   2.362  23.435  0.00  0.00    +0.166 C 
BRANCH  22  23
ATOM     23  O   UNL     1       8.672   3.583  22.722  0.00  0.00    -0.394 OA
ATOM     24  H   UNL     1       9.596   3.856  22.879  0.00  0.00    +0.209 HD
ENDBRANCH  22  23
ENDBRANCH  16  22
ENDBRANCH   1  19
TORSDOF 4
ENDMDL
MODEL 4
REMARK VINA RESULT:      -6.4      2.274      5.975
REMARK  Name = 
REMARK  4 active torsions:
REMARK  status: ('A' for Active; 'I' for Inactive)
REMARK    1  A    between atoms: C_3  and  N_13
REMARK    2  A    between atoms: C_6  and  O_12
REMARK    3  A    between atoms: C_8  and  C_10
REMARK    4  A    between atoms: C_10  and  O_11
REMARK                            x       y       z     vdW  Elec       q    Type
REMARK                         _______ _______ _______ _____ _____    ______ ____
ROOT
ATOM      1  N   UNL     1       8.344  -1.810  24.431  0.00  0.00    -0.172 N 
ATOM      2  C   UNL     1       8.709  -0.662  23.742  0.00  0.00    +0.337 C 
ATOM      3  N   UNL     1       8.505  -0.262  22.534  0.00  0.00    +0.023 NA
ATOM      4  C   UNL     1       8.752   1.073  22.286  0.00  0.00    +0.450 C 
ATOM      5  N   UNL     1       8.855   1.504  21.011  0.00  0.00    -0.241 N 
ATOM      6  H   UNL     1       9.115   2.483  20.978  0.00  0.00    +0.242 HD
ATOM      7  H   UNL     1       9.445   0.923  20.426  0.00  0.00    +0.242 HD
ATOM      8  N   UNL     1       8.854   1.987  23.203  0.00  0.00    +0.008 NA
ATOM      9  C   UNL     1       8.792   1.611  24.521  0.00  0.00    +0.347 C 
ATOM     10  O   UNL     1       8.398   2.365  25.405  0.00  0.00    -0.251 OA
ATOM     11  C   UNL     1       9.359   0.239  24.772  0.00  0.00    +0.329 C 
ATOM     12  N   UNL     1       8.987  -0.361  26.099  0.00  0.00    -0.228 NA
ATOM     13  C   UNL     1       8.450  -1.499  25.767  0.00  0.00    +0.302 C 
ENDROOT
BRANCH   1  19
ATOM     14  C   UNL     1       5.393  -2.993  25.400  0.00  0.00    +0.012 C 
ATOM     15  C   UNL     1       6.577  -3.467  24.979  0.00  0.00    -0.026 C 
ATOM     16  C   UNL     1       7.150  -4.801  25.415  0.00  0.00    +0.072 C 
ATOM     17  C   UNL     1       8.079  -5.188  24.251  0.00  0.00    +0.128 C 
ATOM     18  C   UNL     1       8.124  -4.016  23.262  0.00  0.00    +0.084 C 
ATOM     19  C   UNL     1       7.426  -2.815  23.901  0.00  0.00    +0.203 C 
BRANCH  17  20
ATOM     20  O   UNL     1       9.397  -5.556  24.642  0.00  0.00    -0.391 OA
ATOM     21  H   UNL     1       9.365  -6.495  24.921  0.00  0.00    +0.210 HD
ENDBRANCH  17  20
BRANCH  16  22
ATOM     22  C   UNL     1       7.820  -4.776  26.798  0.00  0.00    +0.166 C 
BRANCH  22  23
ATOM     23  O   UNL     1       8.069  -6.101  27.267  0.00  0.00    -0.394 OA
ATOM     24  H   UNL     1       7.199  -6.534  27.364  0.00  0.00    +0.209 HD
ENDBRANCH  22  23
ENDBRANCH  16  22
ENDBRANCH   1  19
TORSDOF 4
ENDMDL
MODEL 5
REMARK VINA RESULT:      -6.3      2.716      6.148
REMARK  Name = 
REMARK  4 active torsions:
REMARK  status: ('A' for Active; 'I' for Inactive)
REMARK    1  A    between atoms: C_3  and  N_13
REMARK    2  A    between atoms: C_6  and  O_12
REMARK    3  A    between atoms: C_8  and  C_10
REMARK    4  A    between atoms: C_10  and  O_11
REMARK                            x       y       z     vdW  Elec       q    Type
REMARK                         _______ _______ _______ _____ _____    ______ ____
ROOT
ATOM      1  N   UNL     1       8.313  -2.168  23.197  0.00  0.00    -0.172 N 
ATOM      2  C   UNL     1       7.927  -0.914  22.745  0.00  0.00    +0.337 C 
ATOM      3  N   UNL     1       6.899  -0.175  22.984  0.00  0.00    +0.023 NA
ATOM      4  C   UNL     1       6.997   1.146  22.595  0.00  0.00    +0.450 C 
ATOM      5  N   UNL     1       5.881   1.904  22.531  0.00  0.00    -0.241 N 
ATOM      6  H   UNL     1       6.088   2.823  22.157  0.00  0.00    +0.242 HD
ATOM      7  H   UNL     1       5.105   1.456  22.060  0.00  0.00    +0.242 HD
ATOM      8  N   UNL     1       8.111   1.752  22.316  0.00  0.00    +0.008 NA
ATOM      9  C   UNL     1       9.277   1.030  22.330  0.00  0.00    +0.347 C 
ATOM     10  O   UNL     1      10.367   1.542  22.564  0.00  0.00    -0.251 OA
ATOM     11  C   UNL     1       9.089  -0.405  21.918  0.00  0.00    +0.329 C 
ATOM     12  N   UNL     1      10.236  -1.313  22.264  0.00  0.00    -0.228 NA
ATOM     13  C   UNL     1       9.666  -2.255  22.958  0.00  0.00    +0.302 C 
ENDROOT
BRANCH   1  19
ATOM     14  C   UNL     1       8.923  -4.988  24.848  0.00  0.00    +0.012 C 
ATOM     15  C   UNL     1       7.892  -4.386  24.232  0.00  0.00    -0.026 C 
ATOM     16  C   UNL     1       6.767  -5.138  23.550  0.00  0.00    +0.072 C 
ATOM     17  C   UNL     1       5.590  -4.149  23.608  0.00  0.00    +0.128 C 
ATOM     18  C   UNL     1       6.104  -2.823  24.182  0.00  0.00    +0.084 C 
ATOM     19  C   UNL     1       7.630  -2.890  24.267  0.00  0.00    +0.203 C 
BRANCH  17  20
ATOM     20  O   UNL     1       4.939  -3.929  22.362  0.00  0.00    -0.391 OA
ATOM     21  H   UNL     1       5.307  -3.102  21.984  0.00  0.00    +0.210 HD
ENDBRANCH  17  20
BRANCH  16  22
ATOM     22  C   UNL     1       7.115  -5.650  22.144  0.00  0.00    +0.166 C 
BRANCH  22  23
ATOM     23  O   UNL     1       6.083  -6.500  21.642  0.00  0.00    -0.394 OA
ATOM     24  H   UNL     1       6.413  -7.416  21.712  0.00  0.00    +0.209 HD
ENDBRANCH  22  23
ENDBRANCH  16  22
ENDBRANCH   1  19
TORSDOF 4
ENDMDL
MODEL 6
REMARK VINA RESULT:      -6.3      1.418      1.796
REMARK  Name = 
REMARK  4 active torsions:
REMARK  status: ('A' for Active; 'I' for Inactive)
REMARK    1  A    between atoms: C_3  and  N_13
REMARK    2  A    between atoms: C_6  and  O_12
REMARK    3  A    between atoms: C_8  and  C_10
REMARK    4  A    between atoms: C_10  and  O_11
REMARK                            x       y       z     vdW  Elec       q    Type
REMARK                         _______ _______ _______ _____ _____    ______ ____
ROOT
ATOM      1  N   UNL     1       8.193  -2.001  24.308  0.00  0.00    -0.172 N 
ATOM      2  C   UNL     1       7.720  -3.033  25.107  0.00  0.00    +0.337 C 
ATOM      3  N   UNL     1       8.306  -3.992  25.737  0.00  0.00    +0.023 NA
ATOM      4  C   UNL     1       7.547  -4.649  26.684  0.00  0.00    +0.450 C 
ATOM      5  N   UNL     1       7.971  -5.837  27.167  0.00  0.00    -0.241 N 
ATOM      6  H   UNL     1       7.282  -6.241  27.791  0.00  0.00    +0.242 HD
ATOM      7  H   UNL     1       8.280  -6.485  26.453  0.00  0.00    +0.242 HD
ATOM      8  N   UNL     1       6.447  -4.189  27.197  0.00  0.00    +0.008 NA
ATOM      9  C   UNL     1       5.944  -3.002  26.726  0.00  0.00    +0.347 C 
ATOM     10  O   UNL     1       5.248  -2.261  27.413  0.00  0.00    -0.251 OA
ATOM     11  C   UNL     1       6.236  -2.774  25.267  0.00  0.00    +0.329 C 
ATOM     12  N   UNL     1       6.039  -1.358  24.802  0.00  0.00    -0.228 NA
ATOM     13  C   UNL     1       7.191  -1.058  24.276  0.00  0.00    +0.302 C 
ENDROOT
BRANCH   1  19
ATOM     14  C   UNL     1      10.167   0.435  25.409  0.00  0.00    +0.012 C 
ATOM     15  C   UNL     1       9.902  -0.200  24.255  0.00  0.00    -0.026 C 
ATOM     16  C   UNL     1      10.012   0.454  22.892  0.00  0.00    +0.072 C 
ATOM     17  C   UNL     1      10.274  -0.732  21.947  0.00  0.00    +0.128 C 
ATOM     18  C   UNL     1      10.164  -2.028  22.761  0.00  0.00    +0.084 C 
ATOM     19  C   UNL     1       9.610  -1.687  24.144  0.00  0.00    +0.203 C 
BRANCH  17  20
ATOM     20  O   UNL     1       9.417  -0.786  20.813  0.00  0.00    -0.391 OA
ATOM     21  H   UNL     1       9.922  -1.211  20.088  0.00  0.00    +0.210 HD
ENDBRANCH  17  20
BRANCH  16  22
ATOM     22  C   UNL     1       8.806   1.328  22.516  0.00  0.00    +0.166 C 
BRANCH  22  23
ATOM     23  O   UNL     1       9.121   2.185  21.418  0.00  0.00    -0.394 OA
ATOM     24  H   UNL     1       8.617   3.010  21.550  0.00  0.00    +0.209 HD
ENDBRANCH  22  23
ENDBRANCH  16  22
ENDBRANCH   1  19
TORSDOF 4
ENDMDL
MODEL 7
REMARK VINA RESULT:      -6.3      2.029      3.147
REMARK  Name = 
REMARK  4 active torsions:
REMARK  status: ('A' for Active; 'I' for Inactive)
REMARK    1  A    between atoms: C_3  and  N_13
REMARK    2  A    between atoms: C_6  and  O_12
REMARK    3  A    between atoms: C_8  and  C_10
REMARK    4  A    between atoms: C_10  and  O_11
REMARK                            x       y       z     vdW  Elec       q    Type
REMARK                         _______ _______ _______ _____ _____    ______ ____
ROOT
ATOM      1  N   UNL     1       8.564  -1.574  24.019  0.00  0.00    -0.172 N 
ATOM      2  C   UNL     1       7.890  -2.609  24.653  0.00  0.00    +0.337 C 
ATOM      3  N   UNL     1       6.646  -2.811  24.919  0.00  0.00    +0.023 NA
ATOM      4  C   UNL     1       6.305  -4.096  25.288  0.00  0.00    +0.450 C 
ATOM      5  N   UNL     1       5.107  -4.326  25.867  0.00  0.00    -0.241 N 
ATOM      6  H   UNL     1       5.023  -5.294  26.156  0.00  0.00    +0.242 HD
ATOM      7  H   UNL     1       4.875  -3.675  26.607  0.00  0.00    +0.242 HD
ATOM      8  N   UNL     1       7.045  -5.144  25.082  0.00  0.00    +0.008 NA
ATOM      9  C   UNL     1       8.289  -4.976  24.528  0.00  0.00    +0.347 C 
ATOM     10  O   UNL     1       8.840  -5.850  23.866  0.00  0.00    -0.251 OA
ATOM     11  C   UNL     1       8.936  -3.673  24.914  0.00  0.00    +0.329 C 
ATOM     12  N   UNL     1      10.110  -3.279  24.060  0.00  0.00    -0.228 NA
ATOM     13  C   UNL     1       9.782  -2.092  23.640  0.00  0.00    +0.302 C 
ENDROOT
BRANCH   1  19
ATOM     14  C   UNL     1       9.342   0.329  21.407  0.00  0.00    +0.012 C 
ATOM     15  C   UNL     1       8.867   0.480  22.655  0.00  0.00    -0.026 C 
ATOM     16  C   UNL     1       9.118   1.708  23.506  0.00  0.00    +0.072 C 
ATOM     17  C   UNL     1       7.918   1.727  24.469  0.00  0.00    +0.128 C 
ATOM     18  C   UNL     1       7.101   0.448  24.243  0.00  0.00    +0.084 C 
ATOM     19  C   UNL     1       7.895  -0.479  23.322  0.00  0.00    +0.203 C 
BRANCH  17  20
ATOM     20  O   UNL     1       8.263   1.857  25.843  0.00  0.00    -0.391 OA
ATOM     21  H   UNL     1       7.533   1.460  26.364  0.00  0.00    +0.210 HD
ENDBRANCH  17  20
BRANCH  16  22
ATOM     22  C   UNL     1      10.496   1.730  24.187  0.00  0.00    +0.166 C 
BRANCH  22  23
ATOM     23  O   UNL     1      10.596   0.694  25.164  0.00  0.00    -0.394 OA
ATOM     24  H   UNL     1      11.241   0.045  24.822  0.00  0.00    +0.209 HD
ENDBRANCH  22  23
ENDBRANCH  16  22
ENDBRANCH   1  19
TORSDOF 4
ENDMDL
MODEL 8
REMARK VINA RESULT:      -6.1      3.164      6.177
REMARK  Name = 
REMARK  4 active torsions:
REMARK  status: ('A' for Active; 'I' for Inactive)
REMARK    1  A    between atoms: C_3  and  N_13
REMARK    2  A    between atoms: C_6  and  O_12
REMARK    3  A    between atoms: C_8  and  C_10
REMARK    4  A    between atoms: C_10  and  O_11
REMARK                            x       y       z     vdW  Elec       q    Type
REMARK                         _______ _______ _______ _____ _____    ______ ____
ROOT
ATOM      1  N   UNL     1       6.842  -3.391  24.117  0.00  0.00    -0.172 N 
ATOM      2  C   UNL     1       8.025  -2.788  23.715  0.00  0.00    +0.337 C 
ATOM      3  N   UNL     1       8.419  -2.291  22.593  0.00  0.00    +0.023 NA
ATOM      4  C   UNL     1       9.546  -1.497  22.643  0.00  0.00    +0.450 C 
ATOM      5  N   UNL     1      10.193  -1.189  21.498  0.00  0.00    -0.241 N 
ATOM      6  H   UNL     1      11.042  -0.670  21.689  0.00  0.00    +0.242 HD
ATOM      7  H   UNL     1      10.347  -1.981  20.886  0.00  0.00    +0.242 HD
ATOM      8  N   UNL     1      10.030  -0.970  23.727  0.00  0.00    +0.008 NA
ATOM      9  C   UNL     1       9.440  -1.270  24.928  0.00  0.00    +0.347 C 
ATOM     10  O   UNL     1       9.474  -0.507  25.888  0.00  0.00    -0.251 OA
ATOM     11  C   UNL     1       8.861  -2.659  24.972  0.00  0.00    +0.329 C 
ATOM     12  N   UNL     1       7.900  -2.902  26.102  0.00  0.00    -0.228 NA
ATOM     13  C   UNL     1       6.829  -3.320  25.492  0.00  0.00    +0.302 C 
ENDROOT
BRANCH   1  19
ATOM     14  C   UNL     1       3.586  -3.458  24.783  0.00  0.00    +0.012 C 
ATOM     15  C   UNL     1       4.465  -4.103  23.998  0.00  0.00    -0.026 C 
ATOM     16  C   UNL     1       4.315  -5.554  23.587  0.00  0.00    +0.072 C 
ATOM     17  C   UNL     1       5.095  -5.631  22.262  0.00  0.00    +0.128 C 
ATOM     18  C   UNL     1       5.780  -4.279  22.028  0.00  0.00    +0.084 C 
ATOM     19  C   UNL     1       5.635  -3.436  23.295  0.00  0.00    +0.203 C 
BRANCH  17  20
ATOM     20  O   UNL     1       6.047  -6.686  22.195  0.00  0.00    -0.391 OA
ATOM     21  H   UNL     1       6.389  -6.827  23.103  0.00  0.00    +0.210 HD
ENDBRANCH  17  20
BRANCH  16  22
ATOM     22  C   UNL     1       4.760  -6.560  24.659  0.00  0.00    +0.166 C 
BRANCH  22  23
ATOM     23  O   UNL     1       4.155  -7.835  24.442  0.00  0.00    -0.394 OA
ATOM     24  H   UNL     1       4.877  -8.457  24.227  0.00  0.00    +0.209 HD
ENDBRANCH  22  23
ENDBRANCH  16  22
ENDBRANCH   1  19
TORSDOF 4
ENDMDL
MODEL 9
REMARK VINA RESULT:      -6.1      2.358      5.998
REMARK  Name = 
REMARK  4 active torsions:
REMARK  status: ('A' for Active; 'I' for Inactive)
REMARK    1  A    between atoms: C_3  and  N_13
REMARK    2  A    between atoms: C_6  and  O_12
REMARK    3  A    between atoms: C_8  and  C_10
REMARK    4  A    between atoms: C_10  and  O_11
REMARK                            x       y       z     vdW  Elec       q    Type
REMARK                         _______ _______ _______ _____ _____    ______ ____
ROOT
ATOM      1  N   UNL     1       8.013  -2.077  24.693  0.00  0.00    -0.172 N 
ATOM      2  C   UNL     1       8.165  -0.875  24.016  0.00  0.00    +0.337 C 
ATOM      3  N   UNL     1       8.619  -0.579  22.848  0.00  0.00    +0.023 NA
ATOM      4  C   UNL     1       8.334   0.691  22.389  0.00  0.00    +0.450 C 
ATOM      5  N   UNL     1       9.012   1.183  21.330  0.00  0.00    -0.241 N 
ATOM      6  H   UNL     1       8.758   2.148  21.153  0.00  0.00    +0.242 HD
ATOM      7  H   UNL     1      10.014   1.045  21.381  0.00  0.00    +0.242 HD
ATOM      8  N   UNL     1       7.411   1.463  22.880  0.00  0.00    +0.008 NA
ATOM      9  C   UNL     1       6.709   1.037  23.978  0.00  0.00    +0.347 C 
ATOM     10  O   UNL     1       5.564   1.409  24.214  0.00  0.00    -0.251 OA
ATOM     11  C   UNL     1       7.524   0.173  24.903  0.00  0.00    +0.329 C 
ATOM     12  N   UNL     1       6.719  -0.608  25.904  0.00  0.00    -0.228 NA
ATOM     13  C   UNL     1       7.098  -1.835  25.693  0.00  0.00    +0.302 C 
ENDROOT
BRANCH   1  19
ATOM     14  C   UNL     1       5.994  -4.580  23.854  0.00  0.00    +0.012 C 
ATOM     15  C   UNL     1       7.165  -4.402  24.489  0.00  0.00    -0.026 C 
ATOM     16  C   UNL     1       7.659  -5.299  25.607  0.00  0.00    +0.072 C 
ATOM     17  C   UNL     1       9.188  -5.146  25.538  0.00  0.00    +0.128 C 
ATOM     18  C   UNL     1       9.517  -4.072  24.493  0.00  0.00    +0.084 C 
ATOM     19  C   UNL     1       8.216  -3.385  24.077  0.00  0.00    +0.203 C 
BRANCH  17  20
ATOM     20  O   UNL     1       9.809  -4.836  26.779  0.00  0.00    -0.391 OA
ATOM     21  H   UNL     1       9.119  -4.895  27.473  0.00  0.00    +0.210 HD
ENDBRANCH  17  20
BRANCH  16  22
ATOM     22  C   UNL     1       7.038  -4.993  26.978  0.00  0.00    +0.166 C 
BRANCH  22  23
ATOM     23  O   UNL     1       7.466  -5.943  27.954  0.00  0.00    -0.394 OA
ATOM     24  H   UNL     1       6.677  -6.455  28.214  0.00  0.00    +0.209 HD
ENDBRANCH  22  23
ENDBRANCH  16  22
ENDBRANCH   1  19
TORSDOF 4
ENDMDL
