MODEL 1
REMARK VINA RESULT:      -6.1      0.000      0.000
REMARK  Name = 
REMARK  7 active torsions:
REMARK  status: ('A' for Active; 'I' for Inactive)
REMARK    1  A    between atoms: N_11  and  C_12
REMARK    2  A    between atoms: C_12  and  C_13
REMARK    3  A    between atoms: C_13  and  C_14
REMARK    4  A    between atoms: C_14  and  C_15
REMARK    5  A    between atoms: C_14  and  C_17
REMARK    6  A    between atoms: C_15  and  O_16
REMARK    7  A    between atoms: C_17  and  O_18
REMARK                            x       y       z     vdW  Elec       q    Type
REMARK                         _______ _______ _______ _____ _____    ______ ____
ROOT
ATOM      1  C   UNL     1       7.770  -2.825  22.483  0.00  0.00    +0.302 C 
ATOM      2  N   UNL     1       8.750  -3.232  23.346  0.00  0.00    -0.179 N 
ATOM      3  C   UNL     1       8.198  -4.195  24.151  0.00  0.00    +0.337 C 
ATOM      4  N   UNL     1       8.501  -4.588  25.330  0.00  0.00    +0.023 NA
ATOM      5  C   UNL     1       7.567  -5.332  25.996  0.00  0.00    +0.450 C 
ATOM      6  N   UNL     1       7.931  -5.874  27.177  0.00  0.00    -0.241 N 
ATOM      7  H   UNL     1       7.263  -6.541  27.540  0.00  0.00    +0.242 HD
ATOM      8  H   UNL     1       8.903  -6.138  27.252  0.00  0.00    +0.242 HD
ATOM      9  N   UNL     1       6.346  -5.518  25.604  0.00  0.00    +0.008 NA
ATOM     10  C   UNL     1       5.899  -4.967  24.428  0.00  0.00    +0.347 C 
ATOM     11  O   UNL     1       4.700  -4.868  24.174  0.00  0.00    -0.251 OA
ATOM     12  C   UNL     1       6.967  -4.663  23.416  0.00  0.00    +0.329 C 
ATOM     13  N   UNL     1       6.667  -3.525  22.456  0.00  0.00    -0.228 NA
ENDROOT
BRANCH   2  14
ATOM     14  C   UNL     1       9.839  -2.356  23.754  0.00  0.00    +0.233 C 
BRANCH  14  15
ATOM     15  C   UNL     1      10.336  -1.471  22.599  0.00  0.00    +0.052 C 
BRANCH  15  16
ATOM     16  C   UNL     1      10.218   0.055  22.875  0.00  0.00    +0.043 C 
BRANCH  16  17
ATOM     17  C   UNL     1       9.460   0.334  24.181  0.00  0.00    +0.161 C 
BRANCH  17  18
ATOM     18  O   UNL     1      10.348   0.799  25.186  0.00  0.00    -0.395 OA
ATOM     19  H   UNL     1      11.176   0.296  25.110  0.00  0.00    +0.209 HD
ENDBRANCH  17  18
ENDBRANCH  16  17
BRANCH  16  20
ATOM     20  C   UNL     1       9.524   0.824  21.744  0.00  0.00    +0.161 C 
BRANCH  20  21
ATOM     21  O   UNL     1      10.106   2.109  21.571  0.00  0.00    -0.395 OA
ATOM     22  H   UNL     1      11.023   2.064  21.896  0.00  0.00    +0.209 HD
ENDBRANCH  20  21
ENDBRANCH  16  20
ENDBRANCH  15  16
ENDBRANCH  14  15
ENDBRANCH   2  14
TORSDOF 7
ENDMDL
MODEL 2
REMARK VINA RESULT:      -6.1      1.650      2.071
REMARK  Name = 
REMARK  7 active torsions:
REMARK  status: ('A' for Active; 'I' for Inactive)
REMARK    1  A    between atoms: N_11  and  C_12
REMARK    2  A    between atoms: C_12  and  C_13
REMARK    3  A    between atoms: C_13  and  C_14
REMARK    4  A    between atoms: C_14  and  C_15
REMARK    5  A    between atoms: C_14  and  C_17
REMARK    6  A    between atoms: C_15  and  O_16
REMARK    7  A    between atoms: C_17  and  O_18
REMARK                            x       y       z     vdW  Elec       q    Type
REMARK                         _______ _______ _______ _____ _____    ______ ____
ROOT
ATOM      1  C   UNL     1       7.894  -1.104  23.024  0.00  0.00    +0.302 C 
ATOM      2  N   UNL     1       9.156  -1.563  23.284  0.00  0.00    -0.179 N 
ATOM      3  C   UNL     1       9.031  -2.866  23.693  0.00  0.00    +0.337 C 
ATOM      4  N   UNL     1       9.782  -3.599  24.425  0.00  0.00    +0.023 NA
ATOM      5  C   UNL     1       9.232  -4.746  24.927  0.00  0.00    +0.450 C 
ATOM      6  N   UNL     1      10.053  -5.597  25.576  0.00  0.00    -0.241 N 
ATOM      7  H   UNL     1       9.631  -6.494  25.778  0.00  0.00    +0.242 HD
ATOM      8  H   UNL     1      11.004  -5.625  25.237  0.00  0.00    +0.242 HD
ATOM      9  N   UNL     1       7.974  -5.056  24.868  0.00  0.00    +0.008 NA
ATOM     10  C   UNL     1       7.077  -4.218  24.252  0.00  0.00    +0.347 C 
ATOM     11  O   UNL     1       5.865  -4.323  24.431  0.00  0.00    -0.251 OA
ATOM     12  C   UNL     1       7.665  -3.296  23.222  0.00  0.00    +0.329 C 
ATOM     13  N   UNL     1       6.929  -1.985  23.008  0.00  0.00    -0.228 NA
ENDROOT
BRANCH   2  14
ATOM     14  C   UNL     1      10.233  -0.678  23.704  0.00  0.00    +0.233 C 
BRANCH  14  15
ATOM     15  C   UNL     1       9.704   0.625  24.326  0.00  0.00    +0.052 C 
BRANCH  15  16
ATOM     16  C   UNL     1      10.169   1.913  23.587  0.00  0.00    +0.043 C 
BRANCH  16  17
ATOM     17  C   UNL     1       9.280   3.115  23.937  0.00  0.00    +0.161 C 
BRANCH  17  18
ATOM     18  O   UNL     1       9.777   4.299  23.333  0.00  0.00    -0.395 OA
ATOM     19  H   UNL     1       9.796   4.158  22.372  0.00  0.00    +0.209 HD
ENDBRANCH  17  18
ENDBRANCH  16  17
BRANCH  16  20
ATOM     20  C   UNL     1      10.193   1.762  22.062  0.00  0.00    +0.161 C 
BRANCH  20  21
ATOM     21  O   UNL     1       8.990   2.253  21.483  0.00  0.00    -0.395 OA
ATOM     22  H   UNL     1       8.419   1.487  21.293  0.00  0.00    +0.209 HD
ENDBRANCH  20  21
ENDBRANCH  16  20
ENDBRANCH  15  16
ENDBRANCH  14  15
ENDBRANCH   2  14
TORSDOF 7
ENDMDL
MODEL 3
REMARK VINA RESULT:      -6.0      1.925      2.752
REMARK  Name = 
REMARK  7 active torsions:
REMARK  status: ('A' for Active; 'I' for Inactive)
REMARK    1  A    between atoms: N_11  and  C_12
REMARK    2  A    between atoms: C_12  and  C_13
REMARK    3  A    between atoms: C_13  and  C_14
REMARK    4  A    between atoms: C_14  and  C_15
REMARK    5  A    between atoms: C_14  and  C_17
REMARK    6  A    between atoms: C_15  and  O_16
REMARK    7  A    between atoms: C_17  and  O_18
REMARK                            x       y       z     vdW  Elec       q    Type
REMARK                         _______ _______ _______ _____ _____    ______ ____
ROOT
ATOM      1  C   UNL     1       5.443  -3.576  23.561  0.00  0.00    +0.302 C 
ATOM      2  N   UNL     1       6.721  -3.681  23.086  0.00  0.00    -0.179 N 
ATOM      3  C   UNL     1       7.401  -4.501  23.949  0.00  0.00    +0.337 C 
ATOM      4  N   UNL     1       8.648  -4.596  24.221  0.00  0.00    +0.023 NA
ATOM      5  C   UNL     1       8.985  -5.274  25.360  0.00  0.00    +0.450 C 
ATOM      6  N   UNL     1      10.296  -5.507  25.579  0.00  0.00    -0.241 N 
ATOM      7  H   UNL     1      10.472  -6.148  26.342  0.00  0.00    +0.242 HD
ATOM      8  H   UNL     1      10.857  -5.644  24.751  0.00  0.00    +0.242 HD
ATOM      9  N   UNL     1       8.148  -5.670  26.267  0.00  0.00    +0.008 NA
ATOM     10  C   UNL     1       6.802  -5.435  26.123  0.00  0.00    +0.347 C 
ATOM     11  O   UNL     1       6.025  -5.521  27.073  0.00  0.00    -0.251 OA
ATOM     12  C   UNL     1       6.332  -5.244  24.709  0.00  0.00    +0.329 C 
ATOM     13  N   UNL     1       5.097  -4.379  24.532  0.00  0.00    -0.228 NA
ENDROOT
BRANCH   2  14
ATOM     14  C   UNL     1       7.348  -2.627  22.301  0.00  0.00    +0.233 C 
BRANCH  14  15
ATOM     15  C   UNL     1       7.484  -1.317  23.094  0.00  0.00    +0.052 C 
BRANCH  15  16
ATOM     16  C   UNL     1       8.942  -0.782  23.187  0.00  0.00    +0.043 C 
BRANCH  16  17
ATOM     17  C   UNL     1       9.906  -1.626  22.340  0.00  0.00    +0.161 C 
BRANCH  17  18
ATOM     18  O   UNL     1      10.619  -2.543  23.155  0.00  0.00    -0.395 OA
ATOM     19  H   UNL     1       9.987  -2.946  23.774  0.00  0.00    +0.209 HD
ENDBRANCH  17  18
ENDBRANCH  16  17
BRANCH  16  20
ATOM     20  C   UNL     1       9.480  -0.735  24.622  0.00  0.00    +0.161 C 
BRANCH  20  21
ATOM     21  O   UNL     1       8.904  -1.764  25.415  0.00  0.00    -0.395 OA
ATOM     22  H   UNL     1       8.125  -1.390  25.865  0.00  0.00    +0.209 HD
ENDBRANCH  20  21
ENDBRANCH  16  20
ENDBRANCH  15  16
ENDBRANCH  14  15
ENDBRANCH   2  14
TORSDOF 7
ENDMDL
MODEL 4
REMARK VINA RESULT:      -5.9      2.908      6.231
REMARK  Name = 
REMARK  7 active torsions:
REMARK  status: ('A' for Active; 'I' for Inactive)
REMARK    1  A    between atoms: N_11  and  C_12
REMARK    2  A    between atoms: C_12  and  C_13
REMARK    3  A    between atoms: C_13  and  C_14
REMARK    4  A    between atoms: C_14  and  C_15
REMARK    5  A    between atoms: C_14  and  C_17
REMARK    6  A    between atoms: C_15  and  O_16
REMARK    7  A    between atoms: C_17  and  O_18
REMARK                            x       y       z     vdW  Elec       q    Type
REMARK                         _______ _______ _______ _____ _____    ______ ____
ROOT
ATOM      1  C   UNL     1       9.691  -2.310  23.332  0.00  0.00    +0.302 C 
ATOM      2  N   UNL     1       8.338  -2.226  23.521  0.00  0.00    -0.179 N 
ATOM      3  C   UNL     1       7.924  -1.060  22.931  0.00  0.00    +0.337 C 
ATOM      4  N   UNL     1       6.911  -0.311  23.156  0.00  0.00    +0.023 NA
ATOM      5  C   UNL     1       6.944   0.952  22.632  0.00  0.00    +0.450 C 
ATOM      6  N   UNL     1       5.824   1.698  22.736  0.00  0.00    -0.241 N 
ATOM      7  H   UNL     1       5.853   2.550  22.192  0.00  0.00    +0.242 HD
ATOM      8  H   UNL     1       4.956   1.183  22.703  0.00  0.00    +0.242 HD
ATOM      9  N   UNL     1       7.982   1.504  22.085  0.00  0.00    +0.008 NA
ATOM     10  C   UNL     1       9.164   0.814  21.977  0.00  0.00    +0.347 C 
ATOM     11  O   UNL     1      10.229   1.385  21.746  0.00  0.00    -0.251 OA
ATOM     12  C   UNL     1       9.035  -0.683  21.984  0.00  0.00    +0.329 C 
ATOM     13  N   UNL     1      10.235  -1.450  22.513  0.00  0.00    -0.228 NA
ENDROOT
BRANCH   2  14
ATOM     14  C   UNL     1       7.673  -2.843  24.661  0.00  0.00    +0.233 C 
BRANCH  14  15
ATOM     15  C   UNL     1       7.517  -4.362  24.489  0.00  0.00    +0.052 C 
BRANCH  15  16
ATOM     16  C   UNL     1       8.085  -5.195  25.673  0.00  0.00    +0.043 C 
BRANCH  16  17
ATOM     17  C   UNL     1       7.176  -5.112  26.908  0.00  0.00    +0.161 C 
BRANCH  17  18
ATOM     18  O   UNL     1       7.539  -6.095  27.865  0.00  0.00    -0.395 OA
ATOM     19  H   UNL     1       7.561  -5.667  28.738  0.00  0.00    +0.209 HD
ENDBRANCH  17  18
ENDBRANCH  16  17
BRANCH  16  20
ATOM     20  C   UNL     1       9.499  -4.771  26.090  0.00  0.00    +0.161 C 
BRANCH  20  21
ATOM     21  O   UNL     1      10.482  -5.541  25.411  0.00  0.00    -0.395 OA
ATOM     22  H   UNL     1      10.839  -6.190  26.045  0.00  0.00    +0.209 HD
ENDBRANCH  20  21
ENDBRANCH  16  20
ENDBRANCH  15  16
ENDBRANCH  14  15
ENDBRANCH   2  14
TORSDOF 7
ENDMDL
MODEL 5
REMARK VINA RESULT:      -5.6      1.377      2.378
REMARK  Name = 
REMARK  7 active torsions:
REMARK  status: ('A' for Active; 'I' for Inactive)
REMARK    1  A    between atoms: N_11  and  C_12
REMARK    2  A    between atoms: C_12  and  C_13
REMARK    3  A    between atoms: C_13  and  C_14
REMARK    4  A    between atoms: C_14  and  C_15
REMARK    5  A    between atoms: C_14  and  C_17
REMARK    6  A    between atoms: C_15  and  O_16
REMARK    7  A    between atoms: C_17  and  O_18
REMARK                            x       y       z     vdW  Elec       q    Type
REMARK                         _______ _______ _______ _____ _____    ______ ____
ROOT
ATOM      1  C   UNL     1       8.450  -2.785  25.515  0.00  0.00    +0.302 C 
ATOM      2  N   UNL     1       8.535  -2.696  24.152  0.00  0.00    -0.179 N 
ATOM      3  C   UNL     1       7.602  -3.558  23.637  0.00  0.00    +0.337 C 
ATOM      4  N   UNL     1       7.538  -4.163  22.511  0.00  0.00    +0.023 NA
ATOM      5  C   UNL     1       6.661  -5.207  22.416  0.00  0.00    +0.450 C 
ATOM      6  N   UNL     1       6.479  -5.757  21.197  0.00  0.00    -0.241 N 
ATOM      7  H   UNL     1       5.706  -6.409  21.158  0.00  0.00    +0.242 HD
ATOM      8  H   UNL     1       6.557  -5.120  20.418  0.00  0.00    +0.242 HD
ATOM      9  N   UNL     1       6.028  -5.741  23.414  0.00  0.00    +0.008 NA
ATOM     10  C   UNL     1       6.193  -5.253  24.686  0.00  0.00    +0.347 C 
ATOM     11  O   UNL     1       5.856  -5.900  25.677  0.00  0.00    -0.251 OA
ATOM     12  C   UNL     1       6.644  -3.822  24.771  0.00  0.00    +0.329 C 
ATOM     13  N   UNL     1       7.440  -3.449  26.009  0.00  0.00    -0.228 NA
ENDROOT
BRANCH   2  14
ATOM     14  C   UNL     1       9.772  -2.335  23.473  0.00  0.00    +0.233 C 
BRANCH  14  15
ATOM     15  C   UNL     1       9.534  -1.335  22.329  0.00  0.00    +0.052 C 
BRANCH  15  16
ATOM     16  C   UNL     1      10.222   0.044  22.540  0.00  0.00    +0.043 C 
BRANCH  16  17
ATOM     17  C   UNL     1      10.553   0.287  24.020  0.00  0.00    +0.161 C 
BRANCH  17  18
ATOM     18  O   UNL     1      10.291   1.636  24.377  0.00  0.00    -0.395 OA
ATOM     19  H   UNL     1      11.108   2.010  24.748  0.00  0.00    +0.209 HD
ENDBRANCH  17  18
ENDBRANCH  16  17
BRANCH  16  20
ATOM     20  C   UNL     1       9.383   1.224  22.036  0.00  0.00    +0.161 C 
BRANCH  20  21
ATOM     21  O   UNL     1      10.215   2.271  21.554  0.00  0.00    -0.395 OA
ATOM     22  H   UNL     1      10.514   2.788  22.323  0.00  0.00    +0.209 HD
ENDBRANCH  20  21
ENDBRANCH  16  20
ENDBRANCH  15  16
ENDBRANCH  14  15
ENDBRANCH   2  14
TORSDOF 7
ENDMDL
MODEL 6
REMARK VINA RESULT:      -5.5      2.118      2.925
REMARK  Name = 
REMARK  7 active torsions:
REMARK  status: ('A' for Active; 'I' for Inactive)
REMARK    1  A    between atoms: N_11  and  C_12
REMARK    2  A    between atoms: C_12  and  C_13
REMARK    3  A    between atoms: C_13  and  C_14
REMARK    4  A    between atoms: C_14  and  C_15
REMARK    5  A    between atoms: C_14  and  C_17
REMARK    6  A    between atoms: C_15  and  O_16
REMARK    7  A    between atoms: C_17  and  O_18
REMARK                            x       y       z     vdW  Elec       q    Type
REMARK                         _______ _______ _______ _____ _____    ______ ____
ROOT
ATOM      1  C   UNL     1      10.054  -1.087  23.001  0.00  0.00    +0.302 C 
ATOM      2  N   UNL     1       9.904  -0.964  24.356  0.00  0.00    -0.179 N 
ATOM      3  C   UNL     1       9.147  -2.028  24.772  0.00  0.00    +0.337 C 
ATOM      4  N   UNL     1       8.388  -2.181  25.791  0.00  0.00    +0.023 NA
ATOM      5  C   UNL     1       7.511  -3.229  25.761  0.00  0.00    +0.450 C 
ATOM      6  N   UNL     1       6.811  -3.487  26.886  0.00  0.00    -0.241 N 
ATOM      7  H   UNL     1       6.307  -4.363  26.858  0.00  0.00    +0.242 HD
ATOM      8  H   UNL     1       7.290  -3.282  27.751  0.00  0.00    +0.242 HD
ATOM      9  N   UNL     1       7.265  -3.965  24.722  0.00  0.00    +0.008 NA
ATOM     10  C   UNL     1       7.917  -3.736  23.535  0.00  0.00    +0.347 C 
ATOM     11  O   UNL     1       7.508  -4.201  22.472  0.00  0.00    -0.251 OA
ATOM     12  C   UNL     1       9.241  -3.038  23.655  0.00  0.00    +0.329 C 
ATOM     13  N   UNL     1       9.666  -2.208  22.456  0.00  0.00    -0.228 NA
ENDROOT
BRANCH   2  14
ATOM     14  C   UNL     1       9.929   0.328  25.026  0.00  0.00    +0.233 C 
BRANCH  14  15
ATOM     15  C   UNL     1      10.881   1.321  24.338  0.00  0.00    +0.052 C 
BRANCH  15  16
ATOM     16  C   UNL     1      10.191   2.630  23.859  0.00  0.00    +0.043 C 
BRANCH  16  17
ATOM     17  C   UNL     1       9.222   2.364  22.698  0.00  0.00    +0.161 C 
BRANCH  17  18
ATOM     18  O   UNL     1       9.928   2.243  21.472  0.00  0.00    -0.395 OA
ATOM     19  H   UNL     1       9.274   2.186  20.756  0.00  0.00    +0.209 HD
ENDBRANCH  17  18
ENDBRANCH  16  17
BRANCH  16  20
ATOM     20  C   UNL     1      11.184   3.711  23.416  0.00  0.00    +0.161 C 
BRANCH  20  21
ATOM     21  O   UNL     1      10.509   4.919  23.091  0.00  0.00    -0.395 OA
ATOM     22  H   UNL     1      10.414   4.953  22.122  0.00  0.00    +0.209 HD
ENDBRANCH  20  21
ENDBRANCH  16  20
ENDBRANCH  15  16
ENDBRANCH  14  15
ENDBRANCH   2  14
TORSDOF 7
ENDMDL
MODEL 7
REMARK VINA RESULT:      -5.5      2.108      3.396
REMARK  Name = 
REMARK  7 active torsions:
REMARK  status: ('A' for Active; 'I' for Inactive)
REMARK    1  A    between atoms: N_11  and  C_12
REMARK    2  A    between atoms: C_12  and  C_13
REMARK    3  A    between atoms: C_13  and  C_14
REMARK    4  A    between atoms: C_14  and  C_15
REMARK    5  A    between atoms: C_14  and  C_17
REMARK    6  A    between atoms: C_15  and  O_16
REMARK    7  A    between atoms: C_17  and  O_18
REMARK                            x       y       z     vdW  Elec       q    Type
REMARK                         _______ _______ _______ _____ _____    ______ ____
ROOT
ATOM      1  C   UNL     1      10.444  -1.857  22.976  0.00  0.00    +0.302 C 
ATOM      2  N   UNL     1       9.281  -1.262  22.569  0.00  0.00    -0.179 N 
ATOM      3  C   UNL     1       8.256  -2.092  22.944  0.00  0.00    +0.337 C 
ATOM      4  N   UNL     1       7.074  -2.243  22.477  0.00  0.00    +0.023 NA
ATOM      5  C   UNL     1       6.400  -3.374  22.846  0.00  0.00    +0.450 C 
ATOM      6  N   UNL     1       5.105  -3.473  22.480  0.00  0.00    -0.241 N 
ATOM      7  H   UNL     1       4.618  -4.245  22.916  0.00  0.00    +0.242 HD
ATOM      8  H   UNL     1       4.598  -2.601  22.437  0.00  0.00    +0.242 HD
ATOM      9  N   UNL     1       6.921  -4.378  23.479  0.00  0.00    +0.008 NA
ATOM     10  C   UNL     1       8.242  -4.358  23.852  0.00  0.00    +0.347 C 
ATOM     11  O   UNL     1       8.839  -5.384  24.178  0.00  0.00    -0.251 OA
ATOM     12  C   UNL     1       8.845  -2.990  24.002  0.00  0.00    +0.329 C 
ATOM     13  N   UNL     1      10.342  -2.895  23.762  0.00  0.00    -0.228 NA
ENDROOT
BRANCH   2  14
ATOM     14  C   UNL     1       9.225  -0.369  21.421  0.00  0.00    +0.233 C 
BRANCH  14  15
ATOM     15  C   UNL     1       9.557   1.084  21.800  0.00  0.00    +0.052 C 
BRANCH  15  16
ATOM     16  C   UNL     1       8.910   1.553  23.134  0.00  0.00    +0.043 C 
BRANCH  16  17
ATOM     17  C   UNL     1       7.788   2.572  22.889  0.00  0.00    +0.161 C 
BRANCH  17  18
ATOM     18  O   UNL     1       8.233   3.611  22.030  0.00  0.00    -0.395 OA
ATOM     19  H   UNL     1       7.572   3.720  21.326  0.00  0.00    +0.209 HD
ENDBRANCH  17  18
ENDBRANCH  16  17
BRANCH  16  20
ATOM     20  C   UNL     1       9.917   2.174  24.110  0.00  0.00    +0.161 C 
BRANCH  20  21
ATOM     21  O   UNL     1      11.032   1.313  24.307  0.00  0.00    -0.395 OA
ATOM     22  H   UNL     1      11.506   1.621  25.101  0.00  0.00    +0.209 HD
ENDBRANCH  20  21
ENDBRANCH  16  20
ENDBRANCH  15  16
ENDBRANCH  14  15
ENDBRANCH   2  14
TORSDOF 7
ENDMDL
MODEL 8
REMARK VINA RESULT:      -5.4      1.783      2.467
REMARK  Name = 
REMARK  7 active torsions:
REMARK  status: ('A' for Active; 'I' for Inactive)
REMARK    1  A    between atoms: N_11  and  C_12
REMARK    2  A    between atoms: C_12  and  C_13
REMARK    3  A    between atoms: C_13  and  C_14
REMARK    4  A    between atoms: C_14  and  C_15
REMARK    5  A    between atoms: C_14  and  C_17
REMARK    6  A    between atoms: C_15  and  O_16
REMARK    7  A    between atoms: C_17  and  O_18
REMARK                            x       y       z     vdW  Elec       q    Type
REMARK                         _______ _______ _______ _____ _____    ______ ____
ROOT
ATOM      1  C   UNL     1       6.778  -1.565  24.111  0.00  0.00    +0.302 C 
ATOM      2  N   UNL     1       7.920  -2.094  23.574  0.00  0.00    -0.179 N 
ATOM      3  C   UNL     1       8.199  -3.238  24.276  0.00  0.00    +0.337 C 
ATOM      4  N   UNL     1       9.299  -3.860  24.479  0.00  0.00    +0.023 NA
ATOM      5  C   UNL     1       9.313  -4.782  25.488  0.00  0.00    +0.450 C 
ATOM      6  N   UNL     1      10.419  -5.546  25.616  0.00  0.00    -0.241 N 
ATOM      7  H   UNL     1      10.309  -6.313  26.267  0.00  0.00    +0.242 HD
ATOM      8  H   UNL     1      10.897  -5.764  24.754  0.00  0.00    +0.242 HD
ATOM      9  N   UNL     1       8.367  -4.948  26.359  0.00  0.00    +0.008 NA
ATOM     10  C   UNL     1       7.230  -4.182  26.308  0.00  0.00    +0.347 C 
ATOM     11  O   UNL     1       6.461  -4.098  27.265  0.00  0.00    -0.251 OA
ATOM     12  C   UNL     1       6.906  -3.605  24.959  0.00  0.00    +0.329 C 
ATOM     13  N   UNL     1       6.120  -2.305  24.964  0.00  0.00    -0.228 NA
ENDROOT
BRANCH   2  14
ATOM     14  C   UNL     1       8.931  -1.266  22.931  0.00  0.00    +0.233 C 
BRANCH  14  15
ATOM     15  C   UNL     1       8.446   0.176  22.710  0.00  0.00    +0.052 C 
BRANCH  15  16
ATOM     16  C   UNL     1       9.054   1.207  23.703  0.00  0.00    +0.043 C 
BRANCH  16  17
ATOM     17  C   UNL     1       9.723   2.375  22.963  0.00  0.00    +0.161 C 
BRANCH  17  18
ATOM     18  O   UNL     1      10.095   1.988  21.649  0.00  0.00    -0.395 OA
ATOM     19  H   UNL     1       9.286   1.938  21.112  0.00  0.00    +0.209 HD
ENDBRANCH  17  18
ENDBRANCH  16  17
BRANCH  16  20
ATOM     20  C   UNL     1      10.084   0.593  24.660  0.00  0.00    +0.161 C 
BRANCH  20  21
ATOM     21  O   UNL     1      11.402   1.007  24.322  0.00  0.00    -0.395 OA
ATOM     22  H   UNL     1      12.015   0.310  24.617  0.00  0.00    +0.209 HD
ENDBRANCH  20  21
ENDBRANCH  16  20
ENDBRANCH  15  16
ENDBRANCH  14  15
ENDBRANCH   2  14
TORSDOF 7
ENDMDL
MODEL 9
REMARK VINA RESULT:      -5.4      2.039      2.821
REMARK  Name = 
REMARK  7 active torsions:
REMARK  status: ('A' for Active; 'I' for Inactive)
REMARK    1  A    between atoms: N_11  and  C_12
REMARK    2  A    between atoms: C_12  and  C_13
REMARK    3  A    between atoms: C_13  and  C_14
REMARK    4  A    between atoms: C_14  and  C_15
REMARK    5  A    between atoms: C_14  and  C_17
REMARK    6  A    between atoms: C_15  and  O_16
REMARK    7  A    between atoms: C_17  and  O_18
REMARK                            x       y       z     vdW  Elec       q    Type
REMARK                         _______ _______ _______ _____ _____    ______ ____
ROOT
ATOM      1  C   UNL     1       9.854  -1.923  23.425  0.00  0.00    +0.302 C 
ATOM      2  N   UNL     1       8.599  -1.466  23.722  0.00  0.00    -0.179 N 
ATOM      3  C   UNL     1       7.904  -2.524  24.250  0.00  0.00    +0.337 C 
ATOM      4  N   UNL     1       6.650  -2.773  24.300  0.00  0.00    +0.023 NA
ATOM      5  C   UNL     1       6.283  -4.057  24.593  0.00  0.00    +0.450 C 
ATOM      6  N   UNL     1       4.971  -4.299  24.792  0.00  0.00    -0.241 N 
ATOM      7  H   UNL     1       4.779  -5.220  25.164  0.00  0.00    +0.242 HD
ATOM      8  H   UNL     1       4.448  -3.540  25.206  0.00  0.00    +0.242 HD
ATOM      9  N   UNL     1       7.093  -5.069  24.649  0.00  0.00    +0.008 NA
ATOM     10  C   UNL     1       8.436  -4.900  24.424  0.00  0.00    +0.347 C 
ATOM     11  O   UNL     1       9.176  -5.852  24.175  0.00  0.00    -0.251 OA
ATOM     12  C   UNL     1       8.960  -3.514  24.674  0.00  0.00    +0.329 C 
ATOM     13  N   UNL     1      10.179  -3.109  23.865  0.00  0.00    -0.228 NA
ENDROOT
BRANCH   2  14
ATOM     14  C   UNL     1       7.979  -0.367  22.995  0.00  0.00    +0.233 C 
BRANCH  14  15
ATOM     15  C   UNL     1       8.879   0.162  21.867  0.00  0.00    +0.052 C 
BRANCH  15  16
ATOM     16  C   UNL     1       9.061   1.707  21.874  0.00  0.00    +0.043 C 
BRANCH  16  17
ATOM     17  C   UNL     1      10.019   2.156  22.988  0.00  0.00    +0.161 C 
BRANCH  17  18
ATOM     18  O   UNL     1      10.868   3.197  22.529  0.00  0.00    -0.395 OA
ATOM     19  H   UNL     1      11.202   2.945  21.653  0.00  0.00    +0.209 HD
ENDBRANCH  17  18
ENDBRANCH  16  17
BRANCH  16  20
ATOM     20  C   UNL     1       7.742   2.472  22.039  0.00  0.00    +0.161 C 
BRANCH  20  21
ATOM     21  O   UNL     1       7.982   3.843  22.328  0.00  0.00    -0.395 OA
ATOM     22  H   UNL     1       7.338   4.369  21.821  0.00  0.00    +0.209 HD
ENDBRANCH  20  21
ENDBRANCH  16  20
ENDBRANCH  15  16
ENDBRANCH  14  15
ENDBRANCH   2  14
TORSDOF 7
ENDMDL
