MODEL 1
REMARK VINA RESULT:      -7.3      0.000      0.000
REMARK  Name = 
REMARK  27 active torsions:
REMARK  status: ('A' for Active; 'I' for Inactive)
REMARK    1  A    between atoms: C_1  and  C_2
REMARK    2  A    between atoms: C_2  and  C_3
REMARK    3  A    between atoms: C_2  and  C_4
REMARK    4  A    between atoms: C_2  and  C_5
REMARK    5  A    between atoms: C_5  and  C_7
REMARK    6  A    between atoms: C_5  and  N_50
REMARK    7  A    between atoms: N_9  and  C_10
REMARK    8  A    between atoms: C_10  and  C_12
REMARK    9  A    between atoms: C_10  and  C_19
REMARK   10  A    between atoms: C_12  and  C_13
REMARK   11  A    between atoms: C_19  and  C_20
REMARK   12  A    between atoms: C_19  and  O_49
REMARK   13  A    between atoms: C_20  and  N_21
REMARK   14  A    between atoms: N_21  and  C_22
REMARK   15  A    between atoms: N_21  and  N_35
REMARK   16  A    between atoms: C_22  and  C_23
REMARK   17  A    between atoms: C_26  and  C_29
REMARK   18  A    between atoms: C_36  and  C_38
REMARK   19  A    between atoms: C_38  and  C_40
REMARK   20  A    between atoms: C_38  and  N_44
REMARK   21  A    between atoms: C_40  and  C_41
REMARK   22  A    between atoms: C_40  and  C_42
REMARK   23  A    between atoms: C_40  and  C_43
REMARK   24  A    between atoms: C_45  and  O_47
REMARK   25  A    between atoms: O_47  and  C_48
REMARK   26  A    between atoms: C_51  and  O_53
REMARK   27  A    between atoms: O_53  and  C_54
REMARK                            x       y       z     vdW  Elec       q    Type
REMARK                         _______ _______ _______ _____ _____    ______ ____
ROOT
ATOM      1  N   UNL     1       9.059  -2.627  24.354  0.00  0.00    -0.220 NA
ENDROOT
BRANCH   1   2
ATOM      2  N   UNL     1       7.863  -1.860  24.717  0.00  0.00    -0.246 N 
ATOM      3  H   UNL     1       7.254  -1.538  23.966  0.00  0.00    +0.169 HD
ATOM      4  C   UNL     1       7.760  -1.272  25.979  0.00  0.00    +0.248 C 
ATOM      5  O   UNL     1       8.654  -1.324  26.829  0.00  0.00    -0.272 OA
BRANCH   4   6
ATOM      6  C   UNL     1       6.410  -0.531  26.263  0.00  0.00    +0.169 C 
BRANCH   6   7
ATOM      7  C   UNL     1       6.339   0.907  25.615  0.00  0.00    -0.011 C 
ATOM      8  C   UNL     1       7.623   1.696  25.937  0.00  0.00    +0.013 C 
ATOM      9  C   UNL     1       5.152   1.730  26.174  0.00  0.00    +0.013 C 
ATOM     10  C   UNL     1       6.162   0.854  24.083  0.00  0.00    +0.013 C 
ENDBRANCH   6   7
BRANCH   6  11
ATOM     11  N   UNL     1       5.360  -1.408  25.749  0.00  0.00    -0.269 N 
ATOM     12  H   UNL     1       5.436  -1.735  24.794  0.00  0.00    +0.153 HD
ATOM     13  C   UNL     1       4.211  -1.711  26.410  0.00  0.00    +0.401 C 
ATOM     14  O   UNL     1       3.931  -1.370  27.547  0.00  0.00    -0.226 OA
BRANCH  13  15
ATOM     15  O   UNL     1       3.410  -2.422  25.575  0.00  0.00    -0.454 OA
ATOM     16  C   UNL     1       2.105  -2.705  26.088  0.00  0.00    +0.282 C 
ENDBRANCH  13  15
ENDBRANCH   6  11
ENDBRANCH   4   6
ENDBRANCH   1   2
BRANCH   1  17
ATOM     17  C   UNL     1       8.667  -4.075  24.381  0.00  0.00    +0.139 C 
BRANCH  17  18
ATOM     18  C   UNL     1       8.462  -4.948  25.671  0.00  0.00    +0.151 C 
BRANCH  18  19
ATOM     19  O   UNL     1       9.202  -4.327  26.739  0.00  0.00    -0.389 OA
ATOM     20  H   UNL     1       9.000  -3.377  26.660  0.00  0.00    +0.210 HD
ENDBRANCH  18  19
BRANCH  18  21
ATOM     21  C   UNL     1       7.019  -5.288  26.178  0.00  0.00    +0.107 C 
BRANCH  21  23
ATOM     22  C   UNL     1       4.955  -6.347  25.011  0.00  0.00    +0.234 C 
ATOM     23  N   UNL     1       5.957  -5.409  25.096  0.00  0.00    -0.308 N 
ATOM     24  H   UNL     1       6.072  -4.781  24.312  0.00  0.00    +0.149 HD
ATOM     25  O   UNL     1       4.893  -7.234  25.863  0.00  0.00    -0.274 OA
BRANCH  22  26
ATOM     26  C   UNL     1       3.953  -6.363  23.775  0.00  0.00    +0.167 C 
BRANCH  26  28
ATOM     27  C   UNL     1       1.635  -5.477  22.974  0.00  0.00    +0.013 C 
ATOM     28  C   UNL     1       2.389  -6.461  23.876  0.00  0.00    -0.011 C 
ATOM     29  C   UNL     1       1.936  -7.899  23.475  0.00  0.00    +0.013 C 
ATOM     30  C   UNL     1       1.906  -6.265  25.328  0.00  0.00    +0.013 C 
ENDBRANCH  26  28
BRANCH  26  31
ATOM     31  N   UNL     1       4.364  -5.284  22.881  0.00  0.00    -0.269 N 
ATOM     32  H   UNL     1       3.944  -4.367  22.926  0.00  0.00    +0.153 HD
ATOM     33  C   UNL     1       5.473  -5.392  22.093  0.00  0.00    +0.401 C 
ATOM     34  O   UNL     1       6.147  -6.399  21.948  0.00  0.00    -0.226 OA
BRANCH  33  35
ATOM     35  O   UNL     1       5.719  -4.195  21.509  0.00  0.00    -0.454 OA
ATOM     36  C   UNL     1       5.582  -3.093  22.408  0.00  0.00    +0.282 C 
ENDBRANCH  33  35
ENDBRANCH  26  31
ENDBRANCH  22  26
ENDBRANCH  21  23
BRANCH  21  37
ATOM     37  C   UNL     1       6.512  -4.598  27.491  0.00  0.00    +0.060 C 
BRANCH  37  38
ATOM     38  C   UNL     1       5.518  -5.072  28.544  0.00  0.00    -0.046 A 
ATOM     39  C   UNL     1       4.151  -4.764  28.305  0.00  0.00    +0.004 A 
ATOM     40  C   UNL     1       3.122  -5.241  29.107  0.00  0.00    +0.000 A 
ATOM     41  C   UNL     1       3.420  -6.057  30.199  0.00  0.00    +0.000 A 
ATOM     42  C   UNL     1       4.764  -6.330  30.485  0.00  0.00    +0.000 A 
ATOM     43  C   UNL     1       5.803  -5.834  29.674  0.00  0.00    +0.004 A 
ENDBRANCH  37  38
ENDBRANCH  21  37
ENDBRANCH  18  21
ENDBRANCH  17  18
ENDBRANCH   1  17
BRANCH   1  44
ATOM     44  C   UNL     1       9.608  -2.171  23.033  0.00  0.00    +0.140 C 
BRANCH  44  45
ATOM     45  C   UNL     1      10.027  -0.695  23.000  0.00  0.00    -0.032 A 
ATOM     46  C   UNL     1       9.669   0.134  21.928  0.00  0.00    +0.005 A 
ATOM     47  C   UNL     1       9.766   1.532  22.041  0.00  0.00    +0.010 A 
ATOM     48  C   UNL     1      10.228   2.150  23.219  0.00  0.00    +0.000 A 
ATOM     49  C   UNL     1      10.818   1.295  24.167  0.00  0.00    +0.010 A 
ATOM     50  C   UNL     1      10.721  -0.104  24.060  0.00  0.00    +0.005 A 
BRANCH  48  51
ATOM     51  C   UNL     1       9.943   3.593  23.487  0.00  0.00    +0.071 A 
ATOM     52  N   UNL     1      11.037   4.394  23.611  0.00  0.00    -0.255 NA
ATOM     53  C   UNL     1      10.863   5.737  23.627  0.00  0.00    +0.111 A 
ATOM     54  C   UNL     1       9.631   6.354  23.543  0.00  0.00    +0.020 A 
ATOM     55  C   UNL     1       8.510   5.544  23.456  0.00  0.00    +0.004 A 
ATOM     56  C   UNL     1       8.664   4.156  23.432  0.00  0.00    +0.028 A 
ENDBRANCH  48  51
ENDBRANCH  44  45
ENDBRANCH   1  44
TORSDOF 19
ENDMDL
MODEL 2
REMARK VINA RESULT:      -6.4      2.814      8.444
REMARK  Name = 
REMARK  27 active torsions:
REMARK  status: ('A' for Active; 'I' for Inactive)
REMARK    1  A    between atoms: C_1  and  C_2
REMARK    2  A    between atoms: C_2  and  C_3
REMARK    3  A    between atoms: C_2  and  C_4
REMARK    4  A    between atoms: C_2  and  C_5
REMARK    5  A    between atoms: C_5  and  C_7
REMARK    6  A    between atoms: C_5  and  N_50
REMARK    7  A    between atoms: N_9  and  C_10
REMARK    8  A    between atoms: C_10  and  C_12
REMARK    9  A    between atoms: C_10  and  C_19
REMARK   10  A    between atoms: C_12  and  C_13
REMARK   11  A    between atoms: C_19  and  C_20
REMARK   12  A    between atoms: C_19  and  O_49
REMARK   13  A    between atoms: C_20  and  N_21
REMARK   14  A    between atoms: N_21  and  C_22
REMARK   15  A    between atoms: N_21  and  N_35
REMARK   16  A    between atoms: C_22  and  C_23
REMARK   17  A    between atoms: C_26  and  C_29
REMARK   18  A    between atoms: C_36  and  C_38
REMARK   19  A    between atoms: C_38  and  C_40
REMARK   20  A    between atoms: C_38  and  N_44
REMARK   21  A    between atoms: C_40  and  C_41
REMARK   22  A    between atoms: C_40  and  C_42
REMARK   23  A    between atoms: C_40  and  C_43
REMARK   24  A    between atoms: C_45  and  O_47
REMARK   25  A    between atoms: O_47  and  C_48
REMARK   26  A    between atoms: C_51  and  O_53
REMARK   27  A    between atoms: O_53  and  C_54
REMARK                            x       y       z     vdW  Elec       q    Type
REMARK                         _______ _______ _______ _____ _____    ______ ____
ROOT
ATOM      1  N   UNL     1       7.298  -2.039  26.106  0.00  0.00    -0.220 NA
ENDROOT
BRANCH   1   2
ATOM      2  N   UNL     1       7.002  -1.012  27.111  0.00  0.00    -0.246 N 
ATOM      3  H   UNL     1       7.395  -1.127  28.043  0.00  0.00    +0.169 HD
ATOM      4  C   UNL     1       5.936  -0.132  26.923  0.00  0.00    +0.248 C 
ATOM      5  O   UNL     1       5.174  -0.181  25.953  0.00  0.00    -0.272 OA
BRANCH   4   6
ATOM      6  C   UNL     1       5.762   0.955  28.038  0.00  0.00    +0.169 C 
BRANCH   6   7
ATOM      7  C   UNL     1       6.236   2.392  27.589  0.00  0.00    -0.011 C 
ATOM      8  C   UNL     1       5.059   3.167  26.967  0.00  0.00    +0.013 C 
ATOM      9  C   UNL     1       7.349   2.320  26.514  0.00  0.00    +0.013 C 
ATOM     10  C   UNL     1       6.805   3.217  28.763  0.00  0.00    +0.013 C 
ENDBRANCH   6   7
BRANCH   6  11
ATOM     11  N   UNL     1       4.343   0.939  28.389  0.00  0.00    -0.269 N 
ATOM     12  H   UNL     1       3.743   1.648  27.986  0.00  0.00    +0.153 HD
ATOM     13  C   UNL     1       3.786   0.128  29.328  0.00  0.00    +0.401 C 
ATOM     14  O   UNL     1       4.365  -0.751  29.944  0.00  0.00    -0.226 OA
BRANCH  13  15
ATOM     15  O   UNL     1       2.488   0.492  29.494  0.00  0.00    -0.454 OA
ATOM     16  C   UNL     1       1.657   0.296  28.347  0.00  0.00    +0.282 C 
ENDBRANCH  13  15
ENDBRANCH   6  11
ENDBRANCH   4   6
ENDBRANCH   1   2
BRANCH   1  17
ATOM     17  C   UNL     1       8.573  -1.628  25.432  0.00  0.00    +0.139 C 
BRANCH  17  18
ATOM     18  C   UNL     1       8.691  -0.959  24.015  0.00  0.00    +0.151 C 
BRANCH  18  19
ATOM     19  O   UNL     1       9.580  -1.771  23.225  0.00  0.00    -0.389 OA
ATOM     20  H   UNL     1       9.019  -2.490  22.880  0.00  0.00    +0.210 HD
ENDBRANCH  18  19
BRANCH  18  21
ATOM     21  C   UNL     1       7.405  -0.644  23.177  0.00  0.00    +0.107 C 
BRANCH  21  23
ATOM     22  C   UNL     1       6.935   1.846  22.608  0.00  0.00    +0.234 C 
ATOM     23  N   UNL     1       6.798   0.733  23.403  0.00  0.00    -0.308 N 
ATOM     24  H   UNL     1       6.322   0.850  24.287  0.00  0.00    +0.149 HD
ATOM     25  O   UNL     1       7.654   1.783  21.611  0.00  0.00    -0.274 OA
BRANCH  22  26
ATOM     26  C   UNL     1       6.273   3.232  23.022  0.00  0.00    +0.167 C 
BRANCH  26  28
ATOM     27  C   UNL     1       8.515   4.358  23.731  0.00  0.00    +0.013 C 
ATOM     28  C   UNL     1       7.057   4.563  23.305  0.00  0.00    -0.011 C 
ATOM     29  C   UNL     1       7.070   5.438  22.013  0.00  0.00    +0.013 C 
ATOM     30  C   UNL     1       6.347   5.417  24.376  0.00  0.00    +0.013 C 
ENDBRANCH  26  28
BRANCH  26  31
ATOM     31  N   UNL     1       5.152   3.456  22.113  0.00  0.00    -0.269 N 
ATOM     32  H   UNL     1       5.292   3.629  21.129  0.00  0.00    +0.153 HD
ATOM     33  C   UNL     1       3.863   3.229  22.500  0.00  0.00    +0.401 C 
ATOM     34  O   UNL     1       3.497   2.955  23.631  0.00  0.00    -0.226 OA
BRANCH  33  35
ATOM     35  O   UNL     1       3.052   3.341  21.421  0.00  0.00    -0.454 OA
ATOM     36  C   UNL     1       1.715   2.907  21.676  0.00  0.00    +0.282 C 
ENDBRANCH  33  35
ENDBRANCH  26  31
ENDBRANCH  22  26
ENDBRANCH  21  23
BRANCH  21  37
ATOM     37  C   UNL     1       6.344  -1.782  22.988  0.00  0.00    +0.060 C 
BRANCH  37  38
ATOM     38  C   UNL     1       6.517  -3.287  22.823  0.00  0.00    -0.046 A 
ATOM     39  C   UNL     1       5.446  -3.980  22.196  0.00  0.00    +0.004 A 
ATOM     40  C   UNL     1       5.517  -5.326  21.862  0.00  0.00    +0.000 A 
ATOM     41  C   UNL     1       6.676  -6.048  22.147  0.00  0.00    +0.000 A 
ATOM     42  C   UNL     1       7.724  -5.398  22.814  0.00  0.00    +0.000 A 
ATOM     43  C   UNL     1       7.642  -4.036  23.159  0.00  0.00    +0.004 A 
ENDBRANCH  37  38
ENDBRANCH  21  37
ENDBRANCH  18  21
ENDBRANCH  17  18
ENDBRANCH   1  17
BRANCH   1  44
ATOM     44  C   UNL     1       7.355  -3.402  26.734  0.00  0.00    +0.140 C 
BRANCH  44  45
ATOM     45  C   UNL     1       6.139  -4.289  26.429  0.00  0.00    -0.032 A 
ATOM     46  C   UNL     1       4.863  -3.735  26.267  0.00  0.00    +0.005 A 
ATOM     47  C   UNL     1       3.827  -4.482  25.680  0.00  0.00    +0.010 A 
ATOM     48  C   UNL     1       4.024  -5.805  25.242  0.00  0.00    +0.000 A 
ATOM     49  C   UNL     1       5.225  -6.413  25.652  0.00  0.00    +0.010 A 
ATOM     50  C   UNL     1       6.266  -5.668  26.237  0.00  0.00    +0.005 A 
BRANCH  48  51
ATOM     51  C   UNL     1       3.082  -6.438  24.269  0.00  0.00    +0.071 A 
ATOM     52  N   UNL     1       2.896  -7.778  24.418  0.00  0.00    -0.255 NA
ATOM     53  C   UNL     1       1.896  -8.377  23.729  0.00  0.00    +0.111 A 
ATOM     54  C   UNL     1       1.052  -7.712  22.862  0.00  0.00    +0.020 A 
ATOM     55  C   UNL     1       1.261  -6.355  22.676  0.00  0.00    +0.004 A 
ATOM     56  C   UNL     1       2.283  -5.713  23.379  0.00  0.00    +0.028 A 
ENDBRANCH  48  51
ENDBRANCH  44  45
ENDBRANCH   1  44
TORSDOF 19
ENDMDL
MODEL 3
REMARK VINA RESULT:      -6.4      2.317      7.628
REMARK  Name = 
REMARK  27 active torsions:
REMARK  status: ('A' for Active; 'I' for Inactive)
REMARK    1  A    between atoms: C_1  and  C_2
REMARK    2  A    between atoms: C_2  and  C_3
REMARK    3  A    between atoms: C_2  and  C_4
REMARK    4  A    between atoms: C_2  and  C_5
REMARK    5  A    between atoms: C_5  and  C_7
REMARK    6  A    between atoms: C_5  and  N_50
REMARK    7  A    between atoms: N_9  and  C_10
REMARK    8  A    between atoms: C_10  and  C_12
REMARK    9  A    between atoms: C_10  and  C_19
REMARK   10  A    between atoms: C_12  and  C_13
REMARK   11  A    between atoms: C_19  and  C_20
REMARK   12  A    between atoms: C_19  and  O_49
REMARK   13  A    between atoms: C_20  and  N_21
REMARK   14  A    between atoms: N_21  and  C_22
REMARK   15  A    between atoms: N_21  and  N_35
REMARK   16  A    between atoms: C_22  and  C_23
REMARK   17  A    between atoms: C_26  and  C_29
REMARK   18  A    between atoms: C_36  and  C_38
REMARK   19  A    between atoms: C_38  and  C_40
REMARK   20  A    between atoms: C_38  and  N_44
REMARK   21  A    between atoms: C_40  and  C_41
REMARK   22  A    between atoms: C_40  and  C_42
REMARK   23  A    between atoms: C_40  and  C_43
REMARK   24  A    between atoms: C_45  and  O_47
REMARK   25  A    between atoms: O_47  and  C_48
REMARK   26  A    between atoms: C_51  and  O_53
REMARK   27  A    between atoms: O_53  and  C_54
REMARK                            x       y       z     vdW  Elec       q    Type
REMARK                         _______ _______ _______ _____ _____    ______ ____
ROOT
ATOM      1  N   UNL     1       7.612  -1.803  22.461  0.00  0.00    -0.220 NA
ENDROOT
BRANCH   1   2
ATOM      2  N   UNL     1       7.033  -2.714  23.455  0.00  0.00    -0.246 N 
ATOM      3  H   UNL     1       7.632  -3.042  24.210  0.00  0.00    +0.169 HD
ATOM      4  C   UNL     1       5.848  -3.396  23.177  0.00  0.00    +0.248 C 
ATOM      5  O   UNL     1       5.251  -3.313  22.099  0.00  0.00    -0.272 OA
BRANCH   4   6
ATOM      6  C   UNL     1       5.303  -4.291  24.341  0.00  0.00    +0.169 C 
BRANCH   6   7
ATOM      7  C   UNL     1       4.772  -5.696  23.853  0.00  0.00    -0.011 C 
ATOM      8  C   UNL     1       3.344  -5.555  23.290  0.00  0.00    +0.013 C 
ATOM      9  C   UNL     1       4.702  -6.718  25.014  0.00  0.00    +0.013 C 
ATOM     10  C   UNL     1       5.672  -6.319  22.764  0.00  0.00    +0.013 C 
ENDBRANCH   6   7
BRANCH   6  11
ATOM     11  N   UNL     1       6.409  -4.429  25.286  0.00  0.00    -0.269 N 
ATOM     12  H   UNL     1       7.027  -5.225  25.185  0.00  0.00    +0.153 HD
ATOM     13  C   UNL     1       6.594  -3.646  26.382  0.00  0.00    +0.401 C 
ATOM     14  O   UNL     1       5.923  -2.674  26.686  0.00  0.00    -0.226 OA
BRANCH  13  15
ATOM     15  O   UNL     1       7.625  -4.156  27.105  0.00  0.00    -0.454 OA
ATOM     16  C   UNL     1       8.619  -4.839  26.335  0.00  0.00    +0.282 C 
ENDBRANCH  13  15
ENDBRANCH   6  11
ENDBRANCH   4   6
ENDBRANCH   1   2
BRANCH   1  17
ATOM     17  C   UNL     1       7.062  -0.439  22.755  0.00  0.00    +0.139 C 
BRANCH  17  18
ATOM     18  C   UNL     1       6.461   0.035  24.127  0.00  0.00    +0.151 C 
BRANCH  18  19
ATOM     19  O   UNL     1       7.304  -0.485  25.173  0.00  0.00    -0.389 OA
ATOM     20  H   UNL     1       7.141  -1.445  25.169  0.00  0.00    +0.210 HD
ENDBRANCH  18  19
BRANCH  18  21
ATOM     21  C   UNL     1       6.193   1.555  24.393  0.00  0.00    +0.107 C 
BRANCH  21  23
ATOM     22  C   UNL     1       5.957   2.520  26.793  0.00  0.00    +0.234 C 
ATOM     23  N   UNL     1       5.459   1.873  25.687  0.00  0.00    -0.308 N 
ATOM     24  H   UNL     1       4.532   1.476  25.760  0.00  0.00    +0.149 HD
ATOM     25  O   UNL     1       7.139   2.865  26.801  0.00  0.00    -0.274 OA
BRANCH  22  26
ATOM     26  C   UNL     1       5.062   2.725  28.092  0.00  0.00    +0.167 C 
BRANCH  26  28
ATOM     27  C   UNL     1       4.014   4.933  27.184  0.00  0.00    +0.013 C 
ATOM     28  C   UNL     1       4.048   3.902  28.318  0.00  0.00    -0.011 C 
ATOM     29  C   UNL     1       2.607   3.321  28.458  0.00  0.00    +0.013 C 
ATOM     30  C   UNL     1       4.328   4.640  29.644  0.00  0.00    +0.013 C 
ENDBRANCH  26  28
BRANCH  26  31
ATOM     31  N   UNL     1       4.457   1.432  28.400  0.00  0.00    -0.269 N 
ATOM     32  H   UNL     1       3.765   1.013  27.797  0.00  0.00    +0.153 HD
ATOM     33  C   UNL     1       4.946   0.633  29.391  0.00  0.00    +0.401 C 
ATOM     34  O   UNL     1       5.818   0.939  30.188  0.00  0.00    -0.226 OA
BRANCH  33  35
ATOM     35  O   UNL     1       4.320  -0.567  29.341  0.00  0.00    -0.454 OA
ATOM     36  C   UNL     1       3.005  -0.492  28.787  0.00  0.00    +0.282 C 
ENDBRANCH  33  35
ENDBRANCH  26  31
ENDBRANCH  22  26
ENDBRANCH  21  23
BRANCH  21  37
ATOM     37  C   UNL     1       5.770   2.458  23.184  0.00  0.00    +0.060 C 
BRANCH  37  38
ATOM     38  C   UNL     1       6.032   3.933  22.904  0.00  0.00    -0.046 A 
ATOM     39  C   UNL     1       5.284   4.864  23.676  0.00  0.00    +0.004 A 
ATOM     40  C   UNL     1       5.508   6.234  23.622  0.00  0.00    +0.000 A 
ATOM     41  C   UNL     1       6.501   6.739  22.783  0.00  0.00    +0.000 A 
ATOM     42  C   UNL     1       7.214   5.844  21.973  0.00  0.00    +0.000 A 
ATOM     43  C   UNL     1       6.975   4.457  22.024  0.00  0.00    +0.004 A 
ENDBRANCH  37  38
ENDBRANCH  21  37
ENDBRANCH  18  21
ENDBRANCH  17  18
ENDBRANCH   1  17
BRANCH   1  44
ATOM     44  C   UNL     1       9.112  -1.870  22.483  0.00  0.00    +0.140 C 
BRANCH  44  45
ATOM     45  C   UNL     1       9.802  -0.515  22.695  0.00  0.00    -0.032 A 
ATOM     46  C   UNL     1       9.683   0.512  21.749  0.00  0.00    +0.005 A 
ATOM     47  C   UNL     1      10.033   1.833  22.080  0.00  0.00    +0.010 A 
ATOM     48  C   UNL     1      10.516   2.174  23.357  0.00  0.00    +0.000 A 
ATOM     49  C   UNL     1      10.867   1.094  24.187  0.00  0.00    +0.010 A 
ATOM     50  C   UNL     1      10.517  -0.230  23.862  0.00  0.00    +0.005 A 
BRANCH  48  51
ATOM     51  C   UNL     1      10.489   3.592  23.831  0.00  0.00    +0.071 A 
ATOM     52  N   UNL     1      11.516   4.375  23.400  0.00  0.00    -0.255 NA
ATOM     53  C   UNL     1      11.441   5.713  23.597  0.00  0.00    +0.111 A 
ATOM     54  C   UNL     1      10.387   6.340  24.230  0.00  0.00    +0.020 A 
ATOM     55  C   UNL     1       9.357   5.545  24.706  0.00  0.00    +0.004 A 
ATOM     56  C   UNL     1       9.408   4.162  24.510  0.00  0.00    +0.028 A 
ENDBRANCH  48  51
ENDBRANCH  44  45
ENDBRANCH   1  44
TORSDOF 19
ENDMDL
MODEL 4
REMARK VINA RESULT:      -6.3      2.285      7.807
REMARK  Name = 
REMARK  27 active torsions:
REMARK  status: ('A' for Active; 'I' for Inactive)
REMARK    1  A    between atoms: C_1  and  C_2
REMARK    2  A    between atoms: C_2  and  C_3
REMARK    3  A    between atoms: C_2  and  C_4
REMARK    4  A    between atoms: C_2  and  C_5
REMARK    5  A    between atoms: C_5  and  C_7
REMARK    6  A    between atoms: C_5  and  N_50
REMARK    7  A    between atoms: N_9  and  C_10
REMARK    8  A    between atoms: C_10  and  C_12
REMARK    9  A    between atoms: C_10  and  C_19
REMARK   10  A    between atoms: C_12  and  C_13
REMARK   11  A    between atoms: C_19  and  C_20
REMARK   12  A    between atoms: C_19  and  O_49
REMARK   13  A    between atoms: C_20  and  N_21
REMARK   14  A    between atoms: N_21  and  C_22
REMARK   15  A    between atoms: N_21  and  N_35
REMARK   16  A    between atoms: C_22  and  C_23
REMARK   17  A    between atoms: C_26  and  C_29
REMARK   18  A    between atoms: C_36  and  C_38
REMARK   19  A    between atoms: C_38  and  C_40
REMARK   20  A    between atoms: C_38  and  N_44
REMARK   21  A    between atoms: C_40  and  C_41
REMARK   22  A    between atoms: C_40  and  C_42
REMARK   23  A    between atoms: C_40  and  C_43
REMARK   24  A    between atoms: C_45  and  O_47
REMARK   25  A    between atoms: O_47  and  C_48
REMARK   26  A    between atoms: C_51  and  O_53
REMARK   27  A    between atoms: O_53  and  C_54
REMARK                            x       y       z     vdW  Elec       q    Type
REMARK                         _______ _______ _______ _____ _____    ______ ____
ROOT
ATOM      1  N   UNL     1       7.545  -1.903  22.831  0.00  0.00    -0.220 NA
ENDROOT
BRANCH   1   2
ATOM      2  N   UNL     1       7.346  -3.204  23.479  0.00  0.00    -0.246 N 
ATOM      3  H   UNL     1       8.086  -3.899  23.397  0.00  0.00    +0.169 HD
ATOM      4  C   UNL     1       6.066  -3.611  23.858  0.00  0.00    +0.248 C 
ATOM      5  O   UNL     1       5.048  -2.945  23.647  0.00  0.00    -0.272 OA
BRANCH   4   6
ATOM      6  C   UNL     1       5.994  -4.993  24.592  0.00  0.00    +0.169 C 
BRANCH   6   7
ATOM      7  C   UNL     1       6.431  -4.918  26.108  0.00  0.00    -0.011 C 
ATOM      8  C   UNL     1       5.616  -5.926  26.942  0.00  0.00    +0.013 C 
ATOM      9  C   UNL     1       6.170  -3.516  26.712  0.00  0.00    +0.013 C 
ATOM     10  C   UNL     1       7.933  -5.215  26.303  0.00  0.00    +0.013 C 
ENDBRANCH   6   7
BRANCH   6  11
ATOM     11  N   UNL     1       4.613  -5.448  24.449  0.00  0.00    -0.269 N 
ATOM     12  H   UNL     1       4.047  -5.526  25.285  0.00  0.00    +0.153 HD
ATOM     13  C   UNL     1       4.065  -5.909  23.293  0.00  0.00    +0.401 C 
ATOM     14  O   UNL     1       4.612  -5.930  22.204  0.00  0.00    -0.226 OA
BRANCH  13  15
ATOM     15  O   UNL     1       2.821  -6.382  23.567  0.00  0.00    -0.454 OA
ATOM     16  C   UNL     1       1.748  -5.560  23.097  0.00  0.00    +0.282 C 
ENDBRANCH  13  15
ENDBRANCH   6  11
ENDBRANCH   4   6
ENDBRANCH   1   2
BRANCH   1  17
ATOM     17  C   UNL     1       7.282  -0.858  23.875  0.00  0.00    +0.139 C 
BRANCH  17  18
ATOM     18  C   UNL     1       6.147   0.227  23.825  0.00  0.00    +0.151 C 
BRANCH  18  19
ATOM     19  O   UNL     1       5.138  -0.155  24.779  0.00  0.00    -0.389 OA
ATOM     20  H   UNL     1       4.800  -1.009  24.453  0.00  0.00    +0.210 HD
ENDBRANCH  18  19
BRANCH  18  21
ATOM     21  C   UNL     1       6.490   1.743  24.023  0.00  0.00    +0.107 C 
BRANCH  21  23
ATOM     22  C   UNL     1       6.780   2.273  26.548  0.00  0.00    +0.234 C 
ATOM     23  N   UNL     1       6.084   2.335  25.364  0.00  0.00    -0.308 N 
ATOM     24  H   UNL     1       5.156   2.735  25.391  0.00  0.00    +0.149 HD
ATOM     25  O   UNL     1       7.836   1.642  26.588  0.00  0.00    -0.274 OA
BRANCH  22  26
ATOM     26  C   UNL     1       6.182   2.906  27.881  0.00  0.00    +0.167 C 
BRANCH  26  28
ATOM     27  C   UNL     1       6.886   5.350  27.309  0.00  0.00    +0.013 C 
ATOM     28  C   UNL     1       5.977   4.440  28.143  0.00  0.00    -0.011 C 
ATOM     29  C   UNL     1       4.503   4.826  27.809  0.00  0.00    +0.013 C 
ATOM     30  C   UNL     1       6.168   4.787  29.634  0.00  0.00    +0.013 C 
ENDBRANCH  26  28
BRANCH  26  31
ATOM     31  N   UNL     1       4.984   2.141  28.214  0.00  0.00    -0.269 N 
ATOM     32  H   UNL     1       4.138   2.214  27.667  0.00  0.00    +0.153 HD
ATOM     33  C   UNL     1       5.010   1.138  29.138  0.00  0.00    +0.401 C 
ATOM     34  O   UNL     1       5.955   0.859  29.858  0.00  0.00    -0.226 OA
BRANCH  33  35
ATOM     35  O   UNL     1       3.822   0.488  29.119  0.00  0.00    -0.454 OA
ATOM     36  C   UNL     1       3.960  -0.934  29.102  0.00  0.00    +0.282 C 
ENDBRANCH  33  35
ENDBRANCH  26  31
ENDBRANCH  22  26
ENDBRANCH  21  23
BRANCH  21  37
ATOM     37  C   UNL     1       6.284   2.715  22.811  0.00  0.00    +0.060 C 
BRANCH  37  38
ATOM     38  C   UNL     1       6.224   4.237  22.755  0.00  0.00    -0.046 A 
ATOM     39  C   UNL     1       7.261   4.882  22.027  0.00  0.00    +0.004 A 
ATOM     40  C   UNL     1       7.265   6.250  21.781  0.00  0.00    +0.000 A 
ATOM     41  C   UNL     1       6.223   7.041  22.261  0.00  0.00    +0.000 A 
ATOM     42  C   UNL     1       5.218   6.435  23.028  0.00  0.00    +0.000 A 
ATOM     43  C   UNL     1       5.224   5.050  23.282  0.00  0.00    +0.004 A 
ENDBRANCH  37  38
ENDBRANCH  21  37
ENDBRANCH  18  21
ENDBRANCH  17  18
ENDBRANCH   1  17
BRANCH   1  44
ATOM     44  C   UNL     1       8.912  -1.815  22.215  0.00  0.00    +0.140 C 
BRANCH  44  45
ATOM     45  C   UNL     1       9.625  -0.476  22.451  0.00  0.00    -0.032 A 
ATOM     46  C   UNL     1       9.441   0.604  21.579  0.00  0.00    +0.005 A 
ATOM     47  C   UNL     1       9.824   1.903  21.958  0.00  0.00    +0.010 A 
ATOM     48  C   UNL     1      10.409   2.168  23.210  0.00  0.00    +0.000 A 
ATOM     49  C   UNL     1      10.816   1.040  23.946  0.00  0.00    +0.010 A 
ATOM     50  C   UNL     1      10.432  -0.262  23.573  0.00  0.00    +0.005 A 
BRANCH  48  51
ATOM     51  C   UNL     1      10.429   3.555  23.768  0.00  0.00    +0.071 A 
ATOM     52  N   UNL     1      11.467   4.336  23.360  0.00  0.00    -0.255 NA
ATOM     53  C   UNL     1      11.432   5.661  23.637  0.00  0.00    +0.111 A 
ATOM     54  C   UNL     1      10.408   6.277  24.328  0.00  0.00    +0.020 A 
ATOM     55  C   UNL     1       9.367   5.481  24.779  0.00  0.00    +0.004 A 
ATOM     56  C   UNL     1       9.377   4.112  24.502  0.00  0.00    +0.028 A 
ENDBRANCH  48  51
ENDBRANCH  44  45
ENDBRANCH   1  44
TORSDOF 19
ENDMDL
MODEL 5
REMARK VINA RESULT:      -6.2      3.049      7.205
REMARK  Name = 
REMARK  27 active torsions:
REMARK  status: ('A' for Active; 'I' for Inactive)
REMARK    1  A    between atoms: C_1  and  C_2
REMARK    2  A    between atoms: C_2  and  C_3
REMARK    3  A    between atoms: C_2  and  C_4
REMARK    4  A    between atoms: C_2  and  C_5
REMARK    5  A    between atoms: C_5  and  C_7
REMARK    6  A    between atoms: C_5  and  N_50
REMARK    7  A    between atoms: N_9  and  C_10
REMARK    8  A    between atoms: C_10  and  C_12
REMARK    9  A    between atoms: C_10  and  C_19
REMARK   10  A    between atoms: C_12  and  C_13
REMARK   11  A    between atoms: C_19  and  C_20
REMARK   12  A    between atoms: C_19  and  O_49
REMARK   13  A    between atoms: C_20  and  N_21
REMARK   14  A    between atoms: N_21  and  C_22
REMARK   15  A    between atoms: N_21  and  N_35
REMARK   16  A    between atoms: C_22  and  C_23
REMARK   17  A    between atoms: C_26  and  C_29
REMARK   18  A    between atoms: C_36  and  C_38
REMARK   19  A    between atoms: C_38  and  C_40
REMARK   20  A    between atoms: C_38  and  N_44
REMARK   21  A    between atoms: C_40  and  C_41
REMARK   22  A    between atoms: C_40  and  C_42
REMARK   23  A    between atoms: C_40  and  C_43
REMARK   24  A    between atoms: C_45  and  O_47
REMARK   25  A    between atoms: O_47  and  C_48
REMARK   26  A    between atoms: C_51  and  O_53
REMARK   27  A    between atoms: O_53  and  C_54
REMARK                            x       y       z     vdW  Elec       q    Type
REMARK                         _______ _______ _______ _____ _____    ______ ____
ROOT
ATOM      1  N   UNL     1       6.970  -1.415  22.636  0.00  0.00    -0.220 NA
ENDROOT
BRANCH   1   2
ATOM      2  N   UNL     1       6.241  -2.541  23.230  0.00  0.00    -0.246 N 
ATOM      3  H   UNL     1       6.539  -2.876  24.145  0.00  0.00    +0.169 HD
ATOM      4  C   UNL     1       5.438  -3.358  22.433  0.00  0.00    +0.248 C 
ATOM      5  O   UNL     1       5.322  -3.216  21.212  0.00  0.00    -0.272 OA
BRANCH   4   6
ATOM      6  C   UNL     1       4.668  -4.488  23.196  0.00  0.00    +0.169 C 
BRANCH   6   7
ATOM      7  C   UNL     1       5.586  -5.710  23.594  0.00  0.00    -0.011 C 
ATOM      8  C   UNL     1       6.505  -5.319  24.768  0.00  0.00    +0.013 C 
ATOM      9  C   UNL     1       6.506  -6.142  22.425  0.00  0.00    +0.013 C 
ATOM     10  C   UNL     1       4.767  -6.953  24.001  0.00  0.00    +0.013 C 
ENDBRANCH   6   7
BRANCH   6  11
ATOM     11  N   UNL     1       4.082  -3.846  24.371  0.00  0.00    -0.269 N 
ATOM     12  H   UNL     1       4.701  -3.360  25.008  0.00  0.00    +0.153 HD
ATOM     13  C   UNL     1       2.783  -3.967  24.753  0.00  0.00    +0.401 C 
ATOM     14  O   UNL     1       1.909  -4.550  24.133  0.00  0.00    -0.226 OA
BRANCH  13  15
ATOM     15  O   UNL     1       2.633  -3.365  25.961  0.00  0.00    -0.454 OA
ATOM     16  C   UNL     1       3.758  -2.594  26.394  0.00  0.00    +0.282 C 
ENDBRANCH  13  15
ENDBRANCH   6  11
ENDBRANCH   4   6
ENDBRANCH   1   2
BRANCH   1  17
ATOM     17  C   UNL     1       6.637  -0.206  23.459  0.00  0.00    +0.139 C 
BRANCH  17  18
ATOM     18  C   UNL     1       6.000  -0.217  24.895  0.00  0.00    +0.151 C 
BRANCH  18  19
ATOM     19  O   UNL     1       7.044  -0.547  25.831  0.00  0.00    -0.389 OA
ATOM     20  H   UNL     1       6.594  -1.043  26.538  0.00  0.00    +0.210 HD
ENDBRANCH  18  19
BRANCH  18  21
ATOM     21  C   UNL     1       5.214   1.032  25.424  0.00  0.00    +0.107 C 
BRANCH  21  23
ATOM     22  C   UNL     1       4.117   3.055  24.222  0.00  0.00    +0.234 C 
ATOM     23  N   UNL     1       5.184   2.230  24.488  0.00  0.00    -0.308 N 
ATOM     24  H   UNL     1       6.023   2.365  23.940  0.00  0.00    +0.149 HD
ATOM     25  O   UNL     1       3.030   2.812  24.744  0.00  0.00    -0.274 OA
BRANCH  22  26
ATOM     26  C   UNL     1       4.244   4.241  23.168  0.00  0.00    +0.167 C 
BRANCH  26  28
ATOM     27  C   UNL     1       5.218   6.485  22.265  0.00  0.00    +0.013 C 
ATOM     28  C   UNL     1       5.502   5.162  22.987  0.00  0.00    -0.011 C 
ATOM     29  C   UNL     1       6.086   5.517  24.390  0.00  0.00    +0.013 C 
ATOM     30  C   UNL     1       6.635   4.428  22.240  0.00  0.00    +0.013 C 
ENDBRANCH  26  28
BRANCH  26  31
ATOM     31  N   UNL     1       3.773   3.723  21.887  0.00  0.00    -0.269 N 
ATOM     32  H   UNL     1       4.330   3.088  21.333  0.00  0.00    +0.153 HD
ATOM     33  C   UNL     1       2.483   3.893  21.478  0.00  0.00    +0.401 C 
ATOM     34  O   UNL     1       1.643   4.577  22.040  0.00  0.00    -0.226 OA
BRANCH  33  35
ATOM     35  O   UNL     1       2.275   3.167  20.353  0.00  0.00    -0.454 OA
ATOM     36  C   UNL     1       1.912   3.967  19.227  0.00  0.00    +0.282 C 
ENDBRANCH  33  35
ENDBRANCH  26  31
ENDBRANCH  22  26
ENDBRANCH  21  23
BRANCH  21  37
ATOM     37  C   UNL     1       5.356   1.411  26.938  0.00  0.00    +0.060 C 
BRANCH  37  38
ATOM     38  C   UNL     1       5.526   2.767  27.612  0.00  0.00    -0.046 A 
ATOM     39  C   UNL     1       6.779   3.412  27.422  0.00  0.00    +0.004 A 
ATOM     40  C   UNL     1       7.032   4.704  27.866  0.00  0.00    +0.000 A 
ATOM     41  C   UNL     1       6.032   5.415  28.530  0.00  0.00    +0.000 A 
ATOM     42  C   UNL     1       4.807   4.778  28.775  0.00  0.00    +0.000 A 
ATOM     43  C   UNL     1       4.560   3.465  28.332  0.00  0.00    +0.004 A 
ENDBRANCH  37  38
ENDBRANCH  21  37
ENDBRANCH  18  21
ENDBRANCH  17  18
ENDBRANCH   1  17
BRANCH   1  44
ATOM     44  C   UNL     1       8.440  -1.710  22.557  0.00  0.00    +0.140 C 
BRANCH  44  45
ATOM     45  C   UNL     1       9.340  -0.477  22.720  0.00  0.00    -0.032 A 
ATOM     46  C   UNL     1       9.420   0.498  21.716  0.00  0.00    +0.005 A 
ATOM     47  C   UNL     1       9.976   1.760  21.987  0.00  0.00    +0.010 A 
ATOM     48  C   UNL     1      10.476   2.092  23.260  0.00  0.00    +0.000 A 
ATOM     49  C   UNL     1      10.620   1.019  24.160  0.00  0.00    +0.010 A 
ATOM     50  C   UNL     1      10.062  -0.245  23.895  0.00  0.00    +0.005 A 
BRANCH  48  51
ATOM     51  C   UNL     1      10.674   3.520  23.656  0.00  0.00    +0.071 A 
ATOM     52  N   UNL     1      11.889   4.052  23.348  0.00  0.00    -0.255 NA
ATOM     53  C   UNL     1      12.062   5.390  23.467  0.00  0.00    +0.111 A 
ATOM     54  C   UNL     1      11.081   6.258  23.902  0.00  0.00    +0.020 A 
ATOM     55  C   UNL     1       9.855   5.719  24.254  0.00  0.00    +0.004 A 
ATOM     56  C   UNL     1       9.649   4.342  24.135  0.00  0.00    +0.028 A 
ENDBRANCH  48  51
ENDBRANCH  44  45
ENDBRANCH   1  44
TORSDOF 19
ENDMDL
MODEL 6
REMARK VINA RESULT:      -6.1      2.894      7.351
REMARK  Name = 
REMARK  27 active torsions:
REMARK  status: ('A' for Active; 'I' for Inactive)
REMARK    1  A    between atoms: C_1  and  C_2
REMARK    2  A    between atoms: C_2  and  C_3
REMARK    3  A    between atoms: C_2  and  C_4
REMARK    4  A    between atoms: C_2  and  C_5
REMARK    5  A    between atoms: C_5  and  C_7
REMARK    6  A    between atoms: C_5  and  N_50
REMARK    7  A    between atoms: N_9  and  C_10
REMARK    8  A    between atoms: C_10  and  C_12
REMARK    9  A    between atoms: C_10  and  C_19
REMARK   10  A    between atoms: C_12  and  C_13
REMARK   11  A    between atoms: C_19  and  C_20
REMARK   12  A    between atoms: C_19  and  O_49
REMARK   13  A    between atoms: C_20  and  N_21
REMARK   14  A    between atoms: N_21  and  C_22
REMARK   15  A    between atoms: N_21  and  N_35
REMARK   16  A    between atoms: C_22  and  C_23
REMARK   17  A    between atoms: C_26  and  C_29
REMARK   18  A    between atoms: C_36  and  C_38
REMARK   19  A    between atoms: C_38  and  C_40
REMARK   20  A    between atoms: C_38  and  N_44
REMARK   21  A    between atoms: C_40  and  C_41
REMARK   22  A    between atoms: C_40  and  C_42
REMARK   23  A    between atoms: C_40  and  C_43
REMARK   24  A    between atoms: C_45  and  O_47
REMARK   25  A    between atoms: O_47  and  C_48
REMARK   26  A    between atoms: C_51  and  O_53
REMARK   27  A    between atoms: O_53  and  C_54
REMARK                            x       y       z     vdW  Elec       q    Type
REMARK                         _______ _______ _______ _____ _____    ______ ____
ROOT
ATOM      1  N   UNL     1       6.955  -1.238  23.030  0.00  0.00    -0.220 NA
ENDROOT
BRANCH   1   2
ATOM      2  N   UNL     1       6.184  -2.359  23.580  0.00  0.00    -0.246 N 
ATOM      3  H   UNL     1       6.403  -2.674  24.523  0.00  0.00    +0.169 HD
ATOM      4  C   UNL     1       5.457  -3.195  22.731  0.00  0.00    +0.248 C 
ATOM      5  O   UNL     1       5.447  -3.076  21.502  0.00  0.00    -0.272 OA
BRANCH   4   6
ATOM      6  C   UNL     1       4.629  -4.316  23.446  0.00  0.00    +0.169 C 
BRANCH   6   7
ATOM      7  C   UNL     1       5.481  -5.603  23.782  0.00  0.00    -0.011 C 
ATOM      8  C   UNL     1       6.332  -6.006  22.562  0.00  0.00    +0.013 C 
ATOM      9  C   UNL     1       4.579  -6.814  24.125  0.00  0.00    +0.013 C 
ATOM     10  C   UNL     1       6.419  -5.389  24.989  0.00  0.00    +0.013 C 
ENDBRANCH   6   7
BRANCH   6  11
ATOM     11  N   UNL     1       4.083  -3.699  24.652  0.00  0.00    -0.269 N 
ATOM     12  H   UNL     1       4.727  -3.251  25.293  0.00  0.00    +0.153 HD
ATOM     13  C   UNL     1       2.788  -3.797  25.056  0.00  0.00    +0.401 C 
ATOM     14  O   UNL     1       1.888  -4.336  24.435  0.00  0.00    -0.226 OA
BRANCH  13  15
ATOM     15  O   UNL     1       2.678  -3.233  26.286  0.00  0.00    -0.454 OA
ATOM     16  C   UNL     1       3.536  -2.111  26.513  0.00  0.00    +0.282 C 
ENDBRANCH  13  15
ENDBRANCH   6  11
ENDBRANCH   4   6
ENDBRANCH   1   2
BRANCH   1  17
ATOM     17  C   UNL     1       6.635  -0.040  23.874  0.00  0.00    +0.139 C 
BRANCH  17  18
ATOM     18  C   UNL     1       6.238  -0.065  25.394  0.00  0.00    +0.151 C 
BRANCH  18  19
ATOM     19  O   UNL     1       7.457  -0.076  26.162  0.00  0.00    -0.389 OA
ATOM     20  H   UNL     1       7.681  -1.019  26.259  0.00  0.00    +0.210 HD
ENDBRANCH  18  19
BRANCH  18  21
ATOM     21  C   UNL     1       5.274   1.022  25.980  0.00  0.00    +0.107 C 
BRANCH  21  23
ATOM     22  C   UNL     1       6.421   3.236  25.255  0.00  0.00    +0.234 C 
ATOM     23  N   UNL     1       5.342   2.386  25.310  0.00  0.00    -0.308 N 
ATOM     24  H   UNL     1       4.462   2.729  24.950  0.00  0.00    +0.149 HD
ATOM     25  O   UNL     1       7.460   2.921  25.835  0.00  0.00    -0.274 OA
BRANCH  22  26
ATOM     26  C   UNL     1       6.304   4.660  24.554  0.00  0.00    +0.167 C 
BRANCH  26  28
ATOM     27  C   UNL     1       6.678   3.771  22.131  0.00  0.00    +0.013 C 
ATOM     28  C   UNL     1       6.128   4.899  23.012  0.00  0.00    -0.011 C 
ATOM     29  C   UNL     1       4.610   5.045  22.683  0.00  0.00    +0.013 C 
ATOM     30  C   UNL     1       6.777   6.227  22.571  0.00  0.00    +0.013 C 
ENDBRANCH  26  28
BRANCH  26  31
ATOM     31  N   UNL     1       5.341   5.438  25.328  0.00  0.00    -0.269 N 
ATOM     32  H   UNL     1       4.345   5.322  25.208  0.00  0.00    +0.153 HD
ATOM     33  C   UNL     1       5.728   6.195  26.395  0.00  0.00    +0.401 C 
ATOM     34  O   UNL     1       6.880   6.411  26.734  0.00  0.00    -0.226 OA
BRANCH  33  35
ATOM     35  O   UNL     1       4.625   6.659  27.030  0.00  0.00    -0.454 OA
ATOM     36  C   UNL     1       3.531   5.742  26.998  0.00  0.00    +0.282 C 
ENDBRANCH  33  35
ENDBRANCH  26  31
ENDBRANCH  22  26
ENDBRANCH  21  23
BRANCH  21  37
ATOM     37  C   UNL     1       5.085   1.087  27.534  0.00  0.00    +0.060 C 
BRANCH  37  38
ATOM     38  C   UNL     1       5.777   1.945  28.586  0.00  0.00    -0.046 A 
ATOM     39  C   UNL     1       6.847   1.333  29.295  0.00  0.00    +0.004 A 
ATOM     40  C   UNL     1       7.652   2.030  30.187  0.00  0.00    +0.000 A 
ATOM     41  C   UNL     1       7.418   3.386  30.414  0.00  0.00    +0.000 A 
ATOM     42  C   UNL     1       6.335   3.997  29.767  0.00  0.00    +0.000 A 
ATOM     43  C   UNL     1       5.517   3.283  28.871  0.00  0.00    +0.004 A 
ENDBRANCH  37  38
ENDBRANCH  21  37
ENDBRANCH  18  21
ENDBRANCH  17  18
ENDBRANCH   1  17
BRANCH   1  44
ATOM     44  C   UNL     1       8.418  -1.571  22.977  0.00  0.00    +0.140 C 
BRANCH  44  45
ATOM     45  C   UNL     1       9.344  -0.346  22.966  0.00  0.00    -0.032 A 
ATOM     46  C   UNL     1       9.395   0.512  21.859  0.00  0.00    +0.005 A 
ATOM     47  C   UNL     1       9.981   1.785  21.967  0.00  0.00    +0.010 A 
ATOM     48  C   UNL     1      10.542   2.243  23.174  0.00  0.00    +0.000 A 
ATOM     49  C   UNL     1      10.708   1.273  24.179  0.00  0.00    +0.010 A 
ATOM     50  C   UNL     1      10.119  -0.001  24.078  0.00  0.00    +0.005 A 
BRANCH  48  51
ATOM     51  C   UNL     1      10.778   3.702  23.402  0.00  0.00    +0.071 A 
ATOM     52  N   UNL     1       9.714   4.399  23.887  0.00  0.00    -0.255 NA
ATOM     53  C   UNL     1       9.912   5.664  24.331  0.00  0.00    +0.111 A 
ATOM     54  C   UNL     1      11.134   6.305  24.308  0.00  0.00    +0.020 A 
ATOM     55  C   UNL     1      12.213   5.615  23.779  0.00  0.00    +0.004 A 
ATOM     56  C   UNL     1      12.035   4.308  23.320  0.00  0.00    +0.028 A 
ENDBRANCH  48  51
ENDBRANCH  44  45
ENDBRANCH   1  44
TORSDOF 19
ENDMDL
MODEL 7
REMARK VINA RESULT:      -6.1      3.077      6.646
REMARK  Name = 
REMARK  27 active torsions:
REMARK  status: ('A' for Active; 'I' for Inactive)
REMARK    1  A    between atoms: C_1  and  C_2
REMARK    2  A    between atoms: C_2  and  C_3
REMARK    3  A    between atoms: C_2  and  C_4
REMARK    4  A    between atoms: C_2  and  C_5
REMARK    5  A    between atoms: C_5  and  C_7
REMARK    6  A    between atoms: C_5  and  N_50
REMARK    7  A    between atoms: N_9  and  C_10
REMARK    8  A    between atoms: C_10  and  C_12
REMARK    9  A    between atoms: C_10  and  C_19
REMARK   10  A    between atoms: C_12  and  C_13
REMARK   11  A    between atoms: C_19  and  C_20
REMARK   12  A    between atoms: C_19  and  O_49
REMARK   13  A    between atoms: C_20  and  N_21
REMARK   14  A    between atoms: N_21  and  C_22
REMARK   15  A    between atoms: N_21  and  N_35
REMARK   16  A    between atoms: C_22  and  C_23
REMARK   17  A    between atoms: C_26  and  C_29
REMARK   18  A    between atoms: C_36  and  C_38
REMARK   19  A    between atoms: C_38  and  C_40
REMARK   20  A    between atoms: C_38  and  N_44
REMARK   21  A    between atoms: C_40  and  C_41
REMARK   22  A    between atoms: C_40  and  C_42
REMARK   23  A    between atoms: C_40  and  C_43
REMARK   24  A    between atoms: C_45  and  O_47
REMARK   25  A    between atoms: O_47  and  C_48
REMARK   26  A    between atoms: C_51  and  O_53
REMARK   27  A    between atoms: O_53  and  C_54
REMARK                            x       y       z     vdW  Elec       q    Type
REMARK                         _______ _______ _______ _____ _____    ______ ____
ROOT
ATOM      1  N   UNL     1       7.118  -1.318  22.799  0.00  0.00    -0.220 NA
ENDROOT
BRANCH   1   2
ATOM      2  N   UNL     1       6.355  -2.413  23.408  0.00  0.00    -0.246 N 
ATOM      3  H   UNL     1       6.640  -2.742  24.329  0.00  0.00    +0.169 HD
ATOM      4  C   UNL     1       5.530  -3.218  22.621  0.00  0.00    +0.248 C 
ATOM      5  O   UNL     1       5.421  -3.092  21.398  0.00  0.00    -0.272 OA
BRANCH   4   6
ATOM      6  C   UNL     1       4.724  -4.312  23.399  0.00  0.00    +0.169 C 
BRANCH   6   7
ATOM      7  C   UNL     1       5.596  -5.571  23.788  0.00  0.00    -0.011 C 
ATOM      8  C   UNL     1       6.544  -5.935  22.629  0.00  0.00    +0.013 C 
ATOM      9  C   UNL     1       4.716  -6.816  24.061  0.00  0.00    +0.013 C 
ATOM     10  C   UNL     1       6.438  -5.333  25.059  0.00  0.00    +0.013 C 
ENDBRANCH   6   7
BRANCH   6  11
ATOM     11  N   UNL     1       4.184  -3.643  24.581  0.00  0.00    -0.269 N 
ATOM     12  H   UNL     1       4.825  -3.133  25.175  0.00  0.00    +0.153 HD
ATOM     13  C   UNL     1       2.905  -3.766  25.024  0.00  0.00    +0.401 C 
ATOM     14  O   UNL     1       2.011  -4.375  24.461  0.00  0.00    -0.226 OA
BRANCH  13  15
ATOM     15  O   UNL     1       2.802  -3.131  26.221  0.00  0.00    -0.454 OA
ATOM     16  C   UNL     1       3.960  -3.229  27.055  0.00  0.00    +0.282 C 
ENDBRANCH  13  15
ENDBRANCH   6  11
ENDBRANCH   4   6
ENDBRANCH   1   2
BRANCH   1  17
ATOM     17  C   UNL     1       6.727  -0.065  23.524  0.00  0.00    +0.139 C 
BRANCH  17  18
ATOM     18  C   UNL     1       6.194   0.016  24.999  0.00  0.00    +0.151 C 
BRANCH  18  19
ATOM     19  O   UNL     1       7.337   0.141  25.868  0.00  0.00    -0.389 OA
ATOM     20  H   UNL     1       7.514   1.098  25.906  0.00  0.00    +0.210 HD
ENDBRANCH  18  19
BRANCH  18  21
ATOM     21  C   UNL     1       5.126   1.090  25.400  0.00  0.00    +0.107 C 
BRANCH  21  23
ATOM     22  C   UNL     1       4.021   3.063  24.123  0.00  0.00    +0.234 C 
ATOM     23  N   UNL     1       5.117   2.351  24.549  0.00  0.00    -0.308 N 
ATOM     24  H   UNL     1       6.020   2.630  24.189  0.00  0.00    +0.149 HD
ATOM     25  O   UNL     1       2.895   2.649  24.401  0.00  0.00    -0.274 OA
BRANCH  22  26
ATOM     26  C   UNL     1       4.188   4.339  23.187  0.00  0.00    +0.167 C 
BRANCH  26  28
ATOM     27  C   UNL     1       6.623   4.672  22.317  0.00  0.00    +0.013 C 
ATOM     28  C   UNL     1       5.460   5.258  23.126  0.00  0.00    -0.011 C 
ATOM     29  C   UNL     1       5.080   6.621  22.470  0.00  0.00    +0.013 C 
ATOM     30  C   UNL     1       5.971   5.606  24.539  0.00  0.00    +0.013 C 
ENDBRANCH  26  28
BRANCH  26  31
ATOM     31  N   UNL     1       3.747   3.948  21.852  0.00  0.00    -0.269 N 
ATOM     32  H   UNL     1       4.279   3.306  21.283  0.00  0.00    +0.153 HD
ATOM     33  C   UNL     1       2.499   4.256  21.393  0.00  0.00    +0.401 C 
ATOM     34  O   UNL     1       1.689   4.971  21.960  0.00  0.00    -0.226 OA
BRANCH  33  35
ATOM     35  O   UNL     1       2.294   3.625  20.212  0.00  0.00    -0.454 OA
ATOM     36  C   UNL     1       1.427   2.495  20.322  0.00  0.00    +0.282 C 
ENDBRANCH  33  35
ENDBRANCH  26  31
ENDBRANCH  22  26
ENDBRANCH  21  23
BRANCH  21  37
ATOM     37  C   UNL     1       4.869   1.350  26.924  0.00  0.00    +0.060 C 
BRANCH  37  38
ATOM     38  C   UNL     1       3.971   0.626  27.919  0.00  0.00    -0.046 A 
ATOM     39  C   UNL     1       2.637   0.373  27.496  0.00  0.00    +0.004 A 
ATOM     40  C   UNL     1       1.746  -0.388  28.242  0.00  0.00    +0.000 A 
ATOM     41  C   UNL     1       2.154  -0.935  29.458  0.00  0.00    +0.000 A 
ATOM     42  C   UNL     1       3.447  -0.655  29.919  0.00  0.00    +0.000 A 
ATOM     43  C   UNL     1       4.343   0.127  29.164  0.00  0.00    +0.004 A 
ENDBRANCH  37  38
ENDBRANCH  21  37
ENDBRANCH  18  21
ENDBRANCH  17  18
ENDBRANCH   1  17
BRANCH   1  44
ATOM     44  C   UNL     1       8.591  -1.607  22.836  0.00  0.00    +0.140 C 
BRANCH  44  45
ATOM     45  C   UNL     1       9.479  -0.355  22.866  0.00  0.00    -0.032 A 
ATOM     46  C   UNL     1       9.521   0.528  21.779  0.00  0.00    +0.005 A 
ATOM     47  C   UNL     1      10.067   1.815  21.923  0.00  0.00    +0.010 A 
ATOM     48  C   UNL     1      10.594   2.264  23.149  0.00  0.00    +0.000 A 
ATOM     49  C   UNL     1      10.774   1.277  24.136  0.00  0.00    +0.010 A 
ATOM     50  C   UNL     1      10.226  -0.011  23.997  0.00  0.00    +0.005 A 
BRANCH  48  51
ATOM     51  C   UNL     1      10.782   3.724  23.412  0.00  0.00    +0.071 A 
ATOM     52  N   UNL     1       9.705   4.368  23.940  0.00  0.00    -0.255 NA
ATOM     53  C   UNL     1       9.867   5.626  24.415  0.00  0.00    +0.111 A 
ATOM     54  C   UNL     1      11.064   6.313  24.382  0.00  0.00    +0.020 A 
ATOM     55  C   UNL     1      12.155   5.678  23.810  0.00  0.00    +0.004 A 
ATOM     56  C   UNL     1      12.014   4.378  23.318  0.00  0.00    +0.028 A 
ENDBRANCH  48  51
ENDBRANCH  44  45
ENDBRANCH   1  44
TORSDOF 19
ENDMDL
MODEL 8
REMARK VINA RESULT:      -6.0      1.915      6.479
REMARK  Name = 
REMARK  27 active torsions:
REMARK  status: ('A' for Active; 'I' for Inactive)
REMARK    1  A    between atoms: C_1  and  C_2
REMARK    2  A    between atoms: C_2  and  C_3
REMARK    3  A    between atoms: C_2  and  C_4
REMARK    4  A    between atoms: C_2  and  C_5
REMARK    5  A    between atoms: C_5  and  C_7
REMARK    6  A    between atoms: C_5  and  N_50
REMARK    7  A    between atoms: N_9  and  C_10
REMARK    8  A    between atoms: C_10  and  C_12
REMARK    9  A    between atoms: C_10  and  C_19
REMARK   10  A    between atoms: C_12  and  C_13
REMARK   11  A    between atoms: C_19  and  C_20
REMARK   12  A    between atoms: C_19  and  O_49
REMARK   13  A    between atoms: C_20  and  N_21
REMARK   14  A    between atoms: N_21  and  C_22
REMARK   15  A    between atoms: N_21  and  N_35
REMARK   16  A    between atoms: C_22  and  C_23
REMARK   17  A    between atoms: C_26  and  C_29
REMARK   18  A    between atoms: C_36  and  C_38
REMARK   19  A    between atoms: C_38  and  C_40
REMARK   20  A    between atoms: C_38  and  N_44
REMARK   21  A    between atoms: C_40  and  C_41
REMARK   22  A    between atoms: C_40  and  C_42
REMARK   23  A    between atoms: C_40  and  C_43
REMARK   24  A    between atoms: C_45  and  O_47
REMARK   25  A    between atoms: O_47  and  C_48
REMARK   26  A    between atoms: C_51  and  O_53
REMARK   27  A    between atoms: O_53  and  C_54
REMARK                            x       y       z     vdW  Elec       q    Type
REMARK                         _______ _______ _______ _____ _____    ______ ____
ROOT
ATOM      1  N   UNL     1       7.487  -1.327  24.504  0.00  0.00    -0.220 NA
ENDROOT
BRANCH   1   2
ATOM      2  N   UNL     1       6.718  -2.568  24.652  0.00  0.00    -0.246 N 
ATOM      3  H   UNL     1       5.704  -2.499  24.716  0.00  0.00    +0.169 HD
ATOM      4  C   UNL     1       7.350  -3.742  25.065  0.00  0.00    +0.248 C 
ATOM      5  O   UNL     1       8.547  -3.803  25.362  0.00  0.00    -0.272 OA
BRANCH   4   6
ATOM      6  C   UNL     1       6.432  -5.009  25.126  0.00  0.00    +0.169 C 
BRANCH   6   7
ATOM      7  C   UNL     1       5.945  -5.358  26.587  0.00  0.00    -0.011 C 
ATOM      8  C   UNL     1       5.020  -6.590  26.555  0.00  0.00    +0.013 C 
ATOM      9  C   UNL     1       5.133  -4.198  27.213  0.00  0.00    +0.013 C 
ATOM     10  C   UNL     1       7.120  -5.648  27.545  0.00  0.00    +0.013 C 
ENDBRANCH   6   7
BRANCH   6  11
ATOM     11  N   UNL     1       5.309  -4.729  24.234  0.00  0.00    -0.269 N 
ATOM     12  H   UNL     1       4.604  -4.072  24.546  0.00  0.00    +0.153 HD
ATOM     13  C   UNL     1       5.059  -5.388  23.071  0.00  0.00    +0.401 C 
ATOM     14  O   UNL     1       5.773  -6.238  22.566  0.00  0.00    -0.226 OA
BRANCH  13  15
ATOM     15  O   UNL     1       3.860  -4.970  22.589  0.00  0.00    -0.454 OA
ATOM     16  C   UNL     1       2.739  -5.265  23.427  0.00  0.00    +0.282 C 
ENDBRANCH  13  15
ENDBRANCH   6  11
ENDBRANCH   4   6
ENDBRANCH   1   2
BRANCH   1  17
ATOM     17  C   UNL     1       8.281  -1.161  25.766  0.00  0.00    +0.139 C 
BRANCH  17  18
ATOM     18  C   UNL     1       7.830  -0.356  27.037  0.00  0.00    +0.151 C 
BRANCH  18  19
ATOM     19  O   UNL     1       8.960  -0.280  27.927  0.00  0.00    -0.389 OA
ATOM     20  H   UNL     1       9.368  -1.163  27.886  0.00  0.00    +0.210 HD
ENDBRANCH  18  19
BRANCH  18  21
ATOM     21  C   UNL     1       7.197   1.070  26.891  0.00  0.00    +0.107 C 
BRANCH  21  23
ATOM     22  C   UNL     1       4.656   0.538  26.819  0.00  0.00    +0.234 C 
ATOM     23  N   UNL     1       5.749   1.191  27.339  0.00  0.00    -0.308 N 
ATOM     24  H   UNL     1       5.575   1.904  28.034  0.00  0.00    +0.149 HD
ATOM     25  O   UNL     1       4.811  -0.209  25.853  0.00  0.00    -0.274 OA
BRANCH  22  26
ATOM     26  C   UNL     1       3.192   0.824  27.375  0.00  0.00    +0.167 C 
BRANCH  26  28
ATOM     27  C   UNL     1       2.163   3.102  28.115  0.00  0.00    +0.013 C 
ATOM     28  C   UNL     1       2.305   2.062  26.997  0.00  0.00    -0.011 C 
ATOM     29  C   UNL     1       2.931   2.788  25.766  0.00  0.00    +0.013 C 
ATOM     30  C   UNL     1       0.894   1.628  26.548  0.00  0.00    +0.013 C 
ENDBRANCH  26  28
BRANCH  26  31
ATOM     31  N   UNL     1       2.444  -0.425  27.261  0.00  0.00    -0.269 N 
ATOM     32  H   UNL     1       2.007  -0.705  26.395  0.00  0.00    +0.153 HD
ATOM     33  C   UNL     1       2.476  -1.370  28.244  0.00  0.00    +0.401 C 
ATOM     34  O   UNL     1       3.000  -1.239  29.339  0.00  0.00    -0.226 OA
BRANCH  33  35
ATOM     35  O   UNL     1       1.848  -2.486  27.806  0.00  0.00    -0.454 OA
ATOM     36  C   UNL     1       1.836  -2.601  26.382  0.00  0.00    +0.282 C 
ENDBRANCH  33  35
ENDBRANCH  26  31
ENDBRANCH  22  26
ENDBRANCH  21  23
BRANCH  21  37
ATOM     37  C   UNL     1       7.538   1.906  25.610  0.00  0.00    +0.060 C 
BRANCH  37  38
ATOM     38  C   UNL     1       6.631   2.647  24.635  0.00  0.00    -0.046 A 
ATOM     39  C   UNL     1       6.471   4.042  24.860  0.00  0.00    +0.004 A 
ATOM     40  C   UNL     1       5.782   4.869  23.982  0.00  0.00    +0.000 A 
ATOM     41  C   UNL     1       5.214   4.330  22.827  0.00  0.00    +0.000 A 
ATOM     42  C   UNL     1       5.314   2.949  22.613  0.00  0.00    +0.000 A 
ATOM     43  C   UNL     1       6.004   2.114  23.512  0.00  0.00    +0.004 A 
ENDBRANCH  37  38
ENDBRANCH  21  37
ENDBRANCH  18  21
ENDBRANCH  17  18
ENDBRANCH   1  17
BRANCH   1  44
ATOM     44  C   UNL     1       8.325  -1.362  23.259  0.00  0.00    +0.140 C 
BRANCH  44  45
ATOM     45  C   UNL     1       9.232  -0.136  23.074  0.00  0.00    -0.032 A 
ATOM     46  C   UNL     1       8.970   0.812  22.078  0.00  0.00    +0.005 A 
ATOM     47  C   UNL     1       9.588   2.074  22.110  0.00  0.00    +0.010 A 
ATOM     48  C   UNL     1      10.491   2.431  23.129  0.00  0.00    +0.000 A 
ATOM     49  C   UNL     1      10.928   1.379  23.956  0.00  0.00    +0.010 A 
ATOM     50  C   UNL     1      10.309   0.116  23.929  0.00  0.00    +0.005 A 
BRANCH  48  51
ATOM     51  C   UNL     1      10.815   3.866  23.397  0.00  0.00    +0.071 A 
ATOM     52  N   UNL     1       9.796   4.612  23.906  0.00  0.00    -0.255 NA
ATOM     53  C   UNL     1      10.071   5.849  24.384  0.00  0.00    +0.111 A 
ATOM     54  C   UNL     1      11.330   6.417  24.373  0.00  0.00    +0.020 A 
ATOM     55  C   UNL     1      12.364   5.678  23.820  0.00  0.00    +0.004 A 
ATOM     56  C   UNL     1      12.107   4.397  23.326  0.00  0.00    +0.028 A 
ENDBRANCH  48  51
ENDBRANCH  44  45
ENDBRANCH   1  44
TORSDOF 19
ENDMDL
MODEL 9
REMARK VINA RESULT:      -6.0      2.699      4.803
REMARK  Name = 
REMARK  27 active torsions:
REMARK  status: ('A' for Active; 'I' for Inactive)
REMARK    1  A    between atoms: C_1  and  C_2
REMARK    2  A    between atoms: C_2  and  C_3
REMARK    3  A    between atoms: C_2  and  C_4
REMARK    4  A    between atoms: C_2  and  C_5
REMARK    5  A    between atoms: C_5  and  C_7
REMARK    6  A    between atoms: C_5  and  N_50
REMARK    7  A    between atoms: N_9  and  C_10
REMARK    8  A    between atoms: C_10  and  C_12
REMARK    9  A    between atoms: C_10  and  C_19
REMARK   10  A    between atoms: C_12  and  C_13
REMARK   11  A    between atoms: C_19  and  C_20
REMARK   12  A    between atoms: C_19  and  O_49
REMARK   13  A    between atoms: C_20  and  N_21
REMARK   14  A    between atoms: N_21  and  C_22
REMARK   15  A    between atoms: N_21  and  N_35
REMARK   16  A    between atoms: C_22  and  C_23
REMARK   17  A    between atoms: C_26  and  C_29
REMARK   18  A    between atoms: C_36  and  C_38
REMARK   19  A    between atoms: C_38  and  C_40
REMARK   20  A    between atoms: C_38  and  N_44
REMARK   21  A    between atoms: C_40  and  C_41
REMARK   22  A    between atoms: C_40  and  C_42
REMARK   23  A    between atoms: C_40  and  C_43
REMARK   24  A    between atoms: C_45  and  O_47
REMARK   25  A    between atoms: O_47  and  C_48
REMARK   26  A    between atoms: C_51  and  O_53
REMARK   27  A    between atoms: O_53  and  C_54
REMARK                            x       y       z     vdW  Elec       q    Type
REMARK                         _______ _______ _______ _____ _____    ______ ____
ROOT
ATOM      1  N   UNL     1       5.751   0.465  25.672  0.00  0.00    -0.220 NA
ENDROOT
BRANCH   1   2
ATOM      2  N   UNL     1       5.050   1.727  25.405  0.00  0.00    -0.246 N 
ATOM      3  H   UNL     1       4.328   1.732  24.687  0.00  0.00    +0.169 HD
ATOM      4  C   UNL     1       5.595   2.938  25.835  0.00  0.00    +0.248 C 
ATOM      5  O   UNL     1       6.683   3.029  26.411  0.00  0.00    -0.272 OA
BRANCH   4   6
ATOM      6  C   UNL     1       4.723   4.205  25.541  0.00  0.00    +0.169 C 
BRANCH   6   7
ATOM      7  C   UNL     1       4.103   4.851  26.842  0.00  0.00    -0.011 C 
ATOM      8  C   UNL     1       3.652   3.746  27.817  0.00  0.00    +0.013 C 
ATOM      9  C   UNL     1       2.854   5.707  26.518  0.00  0.00    +0.013 C 
ATOM     10  C   UNL     1       5.100   5.776  27.571  0.00  0.00    +0.013 C 
ENDBRANCH   6   7
BRANCH   6  11
ATOM     11  N   UNL     1       5.601   5.138  24.840  0.00  0.00    -0.269 N 
ATOM     12  H   UNL     1       6.025   5.888  25.373  0.00  0.00    +0.153 HD
ATOM     13  C   UNL     1       5.788   5.164  23.493  0.00  0.00    +0.401 C 
ATOM     14  O   UNL     1       5.323   4.369  22.694  0.00  0.00    -0.226 OA
BRANCH  13  15
ATOM     15  O   UNL     1       6.544   6.249  23.185  0.00  0.00    -0.454 OA
ATOM     16  C   UNL     1       7.306   6.130  21.979  0.00  0.00    +0.282 C 
ENDBRANCH  13  15
ENDBRANCH   6  11
ENDBRANCH   4   6
ENDBRANCH   1   2
BRANCH   1  17
ATOM     17  C   UNL     1       4.737  -0.475  26.252  0.00  0.00    +0.139 C 
BRANCH  17  18
ATOM     18  C   UNL     1       5.018  -1.573  27.341  0.00  0.00    +0.151 C 
BRANCH  18  19
ATOM     19  O   UNL     1       4.052  -1.396  28.395  0.00  0.00    -0.389 OA
ATOM     20  H   UNL     1       3.372  -2.072  28.223  0.00  0.00    +0.210 HD
ENDBRANCH  18  19
BRANCH  18  21
ATOM     21  C   UNL     1       5.072  -3.088  26.945  0.00  0.00    +0.107 C 
BRANCH  21  23
ATOM     22  C   UNL     1       6.498  -4.487  25.286  0.00  0.00    +0.234 C 
ATOM     23  N   UNL     1       5.733  -3.391  25.609  0.00  0.00    -0.308 N 
ATOM     24  H   UNL     1       5.670  -2.651  24.923  0.00  0.00    +0.149 HD
ATOM     25  O   UNL     1       6.739  -5.325  26.155  0.00  0.00    -0.274 OA
BRANCH  22  26
ATOM     26  C   UNL     1       7.164  -4.623  23.846  0.00  0.00    +0.167 C 
BRANCH  26  28
ATOM     27  C   UNL     1       7.097  -5.838  21.540  0.00  0.00    +0.013 C 
ATOM     28  C   UNL     1       6.385  -4.886  22.509  0.00  0.00    -0.011 C 
ATOM     29  C   UNL     1       4.995  -5.514  22.838  0.00  0.00    +0.013 C 
ATOM     30  C   UNL     1       6.079  -3.568  21.767  0.00  0.00    +0.013 C 
ENDBRANCH  26  28
BRANCH  26  31
ATOM     31  N   UNL     1       8.106  -3.516  23.707  0.00  0.00    -0.269 N 
ATOM     32  H   UNL     1       7.812  -2.606  23.385  0.00  0.00    +0.153 HD
ATOM     33  C   UNL     1       9.374  -3.590  24.205  0.00  0.00    +0.401 C 
ATOM     34  O   UNL     1       9.893  -4.585  24.684  0.00  0.00    -0.226 OA
BRANCH  33  35
ATOM     35  O   UNL     1       9.963  -2.376  24.097  0.00  0.00    -0.454 OA
ATOM     36  C   UNL     1      10.077  -1.924  22.747  0.00  0.00    +0.282 C 
ENDBRANCH  33  35
ENDBRANCH  26  31
ENDBRANCH  22  26
ENDBRANCH  21  23
BRANCH  21  37
ATOM     37  C   UNL     1       3.822  -3.981  27.252  0.00  0.00    +0.060 C 
BRANCH  37  38
ATOM     38  C   UNL     1       2.960  -4.837  26.332  0.00  0.00    -0.046 A 
ATOM     39  C   UNL     1       2.193  -4.141  25.358  0.00  0.00    +0.004 A 
ATOM     40  C   UNL     1       1.464  -4.793  24.371  0.00  0.00    +0.000 A 
ATOM     41  C   UNL     1       1.469  -6.186  24.316  0.00  0.00    +0.000 A 
ATOM     42  C   UNL     1       2.175  -6.894  25.298  0.00  0.00    +0.000 A 
ATOM     43  C   UNL     1       2.903  -6.228  26.302  0.00  0.00    +0.004 A 
ENDBRANCH  37  38
ENDBRANCH  21  37
ENDBRANCH  18  21
ENDBRANCH  17  18
ENDBRANCH   1  17
BRANCH   1  44
ATOM     44  C   UNL     1       6.416  -0.050  24.428  0.00  0.00    +0.140 C 
BRANCH  44  45
ATOM     45  C   UNL     1       7.647   0.756  23.991  0.00  0.00    -0.032 A 
ATOM     46  C   UNL     1       7.596   1.611  22.883  0.00  0.00    +0.005 A 
ATOM     47  C   UNL     1       8.597   2.576  22.676  0.00  0.00    +0.010 A 
ATOM     48  C   UNL     1       9.684   2.717  23.559  0.00  0.00    +0.000 A 
ATOM     49  C   UNL     1       9.844   1.686  24.502  0.00  0.00    +0.010 A 
ATOM     50  C   UNL     1       8.843   0.720  24.716  0.00  0.00    +0.005 A 
BRANCH  48  51
ATOM     51  C   UNL     1      10.495   3.973  23.578  0.00  0.00    +0.071 A 
ATOM     52  N   UNL     1       9.892   5.052  24.150  0.00  0.00    -0.255 NA
ATOM     53  C   UNL     1      10.638   6.152  24.410  0.00  0.00    +0.111 A 
ATOM     54  C   UNL     1      11.982   6.260  24.113  0.00  0.00    +0.020 A 
ATOM     55  C   UNL     1      12.592   5.180  23.495  0.00  0.00    +0.004 A 
ATOM     56  C   UNL     1      11.846   4.031  23.222  0.00  0.00    +0.028 A 
ENDBRANCH  48  51
ENDBRANCH  44  45
ENDBRANCH   1  44
TORSDOF 19
ENDMDL
