MODEL 1
REMARK VINA RESULT:      -7.1      0.000      0.000
REMARK  Name = 
REMARK  24 active torsions:
REMARK  status: ('A' for Active; 'I' for Inactive)
REMARK    1  A    between atoms: C_1  and  C_2
REMARK    2  A    between atoms: C_2  and  C_3
REMARK    3  A    between atoms: C_2  and  C_4
REMARK    4  A    between atoms: C_6  and  C_9
REMARK    5  A    between atoms: C_9  and  N_10
REMARK    6  A    between atoms: N_10  and  C_11
REMARK    7  A    between atoms: N_14  and  C_15
REMARK    8  A    between atoms: C_15  and  C_17
REMARK    9  A    between atoms: C_15  and  C_20
REMARK   10  A    between atoms: C_17  and  C_18
REMARK   11  A    between atoms: C_17  and  C_19
REMARK   12  A    between atoms: N_22  and  C_23
REMARK   13  A    between atoms: C_23  and  C_25
REMARK   14  A    between atoms: C_23  and  C_32
REMARK   15  A    between atoms: C_25  and  C_26
REMARK   16  A    between atoms: C_32  and  C_33
REMARK   17  A    between atoms: C_33  and  C_35
REMARK   18  A    between atoms: C_33  and  O_54
REMARK   19  A    between atoms: C_35  and  C_37
REMARK   20  A    between atoms: C_35  and  N_44
REMARK   21  A    between atoms: C_37  and  C_38
REMARK   22  A    between atoms: C_45  and  O_47
REMARK   23  A    between atoms: O_47  and  C_48
REMARK   24  A    between atoms: C_48  and  C_49
REMARK                            x       y       z     vdW  Elec       q    Type
REMARK                         _______ _______ _______ _____ _____    ______ ____
ROOT
ATOM      1  C   UNL     1       9.909   0.793  23.408  0.00  0.00    +0.080 C 
ENDROOT
BRANCH   1   3
ATOM      2  C   UNL     1       7.410   1.232  23.363  0.00  0.00    +0.234 C 
ATOM      3  N   UNL     1       8.594   1.001  24.051  0.00  0.00    -0.311 N 
ATOM      4  H   UNL     1       8.574   1.060  25.061  0.00  0.00    +0.149 HD
ATOM      5  O   UNL     1       7.356   1.305  22.136  0.00  0.00    -0.274 OA
BRANCH   2   6
ATOM      6  C   UNL     1       6.145   1.394  24.266  0.00  0.00    +0.163 C 
BRANCH   6   9
ATOM      7  N   UNL     1       4.194   4.545  24.568  0.00  0.00    -0.283 N 
ATOM      8  C   UNL     1       4.449   3.197  24.445  0.00  0.00    +0.303 C 
ATOM      9  N   UNL     1       5.761   2.808  24.416  0.00  0.00    -0.288 N 
ATOM     10  H   UNL     1       6.473   3.488  24.202  0.00  0.00    +0.151 HD
ATOM     11  O   UNL     1       3.535   2.364  24.382  0.00  0.00    -0.253 OA
ATOM     12  C   UNL     1       5.212   5.577  24.719  0.00  0.00    +0.134 C 
BRANCH   7  13
ATOM     13  C   UNL     1       2.809   5.004  24.423  0.00  0.00    +0.164 C 
BRANCH  13  17
ATOM     14  C   UNL     1       1.665   4.700  20.988  0.00  0.00    +0.081 A 
ATOM     15  S   UNL     1       2.180   6.313  20.677  0.00  0.00    -0.080 S 
ATOM     16  C   UNL     1       2.746   6.436  22.285  0.00  0.00    +0.071 A 
ATOM     17  C   UNL     1       2.480   5.270  22.980  0.00  0.00    +0.066 A 
ATOM     18  N   UNL     1       1.838   4.287  22.228  0.00  0.00    -0.247 NA
BRANCH  14  20
ATOM     19  C   UNL     1       1.910   4.165  18.575  0.00  0.00    +0.014 C 
ATOM     20  C   UNL     1       1.141   3.847  19.858  0.00  0.00    +0.038 C 
ATOM     21  C   UNL     1       1.221   2.357  20.182  0.00  0.00    +0.014 C 
ENDBRANCH  14  20
ENDBRANCH  13  17
ENDBRANCH   7  13
ENDBRANCH   6   9
BRANCH   6  22
ATOM     22  C   UNL     1       6.300   0.689  25.636  0.00  0.00    +0.012 C 
ATOM     23  C   UNL     1       5.139  -0.262  25.934  0.00  0.00    +0.009 C 
ATOM     24  C   UNL     1       6.451   1.672  26.795  0.00  0.00    +0.009 C 
ENDBRANCH   6  22
ENDBRANCH   2   6
ENDBRANCH   1   3
BRANCH   1  25
ATOM     25  C   UNL     1      10.310  -0.712  23.497  0.00  0.00    +0.055 C 
BRANCH  25  26
ATOM     26  C   UNL     1       9.801  -1.623  22.354  0.00  0.00    +0.137 C 
BRANCH  26  27
ATOM     27  O   UNL     1       9.245  -0.766  21.342  0.00  0.00    -0.390 OA
ATOM     28  H   UNL     1       8.352  -1.087  21.126  0.00  0.00    +0.210 HD
ENDBRANCH  26  27
BRANCH  26  29
ATOM     29  C   UNL     1       8.680  -2.626  22.798  0.00  0.00    +0.109 C 
BRANCH  29  30
ATOM     30  N   UNL     1       8.708  -2.863  24.252  0.00  0.00    -0.275 N 
ATOM     31  H   UNL     1       8.384  -2.128  24.866  0.00  0.00    +0.152 HD
ATOM     32  C   UNL     1       8.906  -4.078  24.834  0.00  0.00    +0.401 C 
ATOM     33  O   UNL     1       9.146  -5.113  24.229  0.00  0.00    -0.226 OA
BRANCH  32  34
ATOM     34  O   UNL     1       8.754  -3.978  26.179  0.00  0.00    -0.445 OA
BRANCH  34  35
ATOM     35  C   UNL     1       8.087  -5.081  26.792  0.00  0.00    +0.278 C 
BRANCH  35  36
ATOM     36  C   UNL     1       6.620  -4.821  26.871  0.00  0.00    +0.046 A 
ATOM     37  S   UNL     1       5.477  -6.101  26.802  0.00  0.00    -0.077 S 
ATOM     38  C   UNL     1       4.226  -4.988  27.171  0.00  0.00    +0.156 A 
ATOM     39  N   UNL     1       4.591  -3.731  27.294  0.00  0.00    -0.255 NA
ATOM     40  C   UNL     1       5.957  -3.632  27.115  0.00  0.00    +0.125 A 
ENDBRANCH  35  36
ENDBRANCH  34  35
ENDBRANCH  32  34
ENDBRANCH  29  30
BRANCH  29  41
ATOM     41  C   UNL     1       7.249  -2.244  22.327  0.00  0.00    +0.060 C 
BRANCH  41  42
ATOM     42  C   UNL     1       6.299  -3.418  22.455  0.00  0.00    -0.046 A 
ATOM     43  C   UNL     1       6.589  -4.620  21.796  0.00  0.00    +0.004 A 
ATOM     44  C   UNL     1       5.787  -5.745  21.992  0.00  0.00    +0.000 A 
ATOM     45  C   UNL     1       4.685  -5.678  22.844  0.00  0.00    +0.000 A 
ATOM     46  C   UNL     1       4.374  -4.479  23.483  0.00  0.00    +0.000 A 
ATOM     47  C   UNL     1       5.170  -3.351  23.284  0.00  0.00    +0.004 A 
ENDBRANCH  41  42
ENDBRANCH  29  41
ENDBRANCH  26  29
ENDBRANCH  25  26
ENDBRANCH   1  25
BRANCH   1  48
ATOM     48  C   UNL     1      10.990   1.784  23.927  0.00  0.00    +0.057 C 
BRANCH  48  49
ATOM     49  C   UNL     1      10.696   3.257  23.745  0.00  0.00    -0.046 A 
ATOM     50  C   UNL     1       9.391   3.736  23.912  0.00  0.00    +0.004 A 
ATOM     51  C   UNL     1       9.109   5.101  23.832  0.00  0.00    +0.000 A 
ATOM     52  C   UNL     1      10.128   6.007  23.550  0.00  0.00    +0.000 A 
ATOM     53  C   UNL     1      11.416   5.541  23.311  0.00  0.00    +0.000 A 
ATOM     54  C   UNL     1      11.689   4.175  23.387  0.00  0.00    +0.004 A 
ENDBRANCH  48  49
ENDBRANCH   1  48
TORSDOF 19
ENDMDL
MODEL 2
REMARK VINA RESULT:      -7.1      3.370      7.124
REMARK  Name = 
REMARK  24 active torsions:
REMARK  status: ('A' for Active; 'I' for Inactive)
REMARK    1  A    between atoms: C_1  and  C_2
REMARK    2  A    between atoms: C_2  and  C_3
REMARK    3  A    between atoms: C_2  and  C_4
REMARK    4  A    between atoms: C_6  and  C_9
REMARK    5  A    between atoms: C_9  and  N_10
REMARK    6  A    between atoms: N_10  and  C_11
REMARK    7  A    between atoms: N_14  and  C_15
REMARK    8  A    between atoms: C_15  and  C_17
REMARK    9  A    between atoms: C_15  and  C_20
REMARK   10  A    between atoms: C_17  and  C_18
REMARK   11  A    between atoms: C_17  and  C_19
REMARK   12  A    between atoms: N_22  and  C_23
REMARK   13  A    between atoms: C_23  and  C_25
REMARK   14  A    between atoms: C_23  and  C_32
REMARK   15  A    between atoms: C_25  and  C_26
REMARK   16  A    between atoms: C_32  and  C_33
REMARK   17  A    between atoms: C_33  and  C_35
REMARK   18  A    between atoms: C_33  and  O_54
REMARK   19  A    between atoms: C_35  and  C_37
REMARK   20  A    between atoms: C_35  and  N_44
REMARK   21  A    between atoms: C_37  and  C_38
REMARK   22  A    between atoms: C_45  and  O_47
REMARK   23  A    between atoms: O_47  and  C_48
REMARK   24  A    between atoms: C_48  and  C_49
REMARK                            x       y       z     vdW  Elec       q    Type
REMARK                         _______ _______ _______ _____ _____    ______ ____
ROOT
ATOM      1  C   UNL     1       7.224  -5.038  27.140  0.00  0.00    +0.080 C 
ENDROOT
BRANCH   1   3
ATOM      2  C   UNL     1       6.650  -2.579  26.890  0.00  0.00    +0.234 C 
ATOM      3  N   UNL     1       6.277  -3.905  27.065  0.00  0.00    -0.311 N 
ATOM      4  H   UNL     1       5.299  -4.104  27.234  0.00  0.00    +0.149 HD
ATOM      5  O   UNL     1       7.825  -2.224  26.801  0.00  0.00    -0.274 OA
BRANCH   2   6
ATOM      6  C   UNL     1       5.463  -1.566  26.813  0.00  0.00    +0.163 C 
BRANCH   6   9
ATOM      7  N   UNL     1       6.018   2.112  26.852  0.00  0.00    -0.283 N 
ATOM      8  C   UNL     1       5.558   0.884  26.427  0.00  0.00    +0.303 C 
ATOM      9  N   UNL     1       5.885  -0.205  27.189  0.00  0.00    -0.288 N 
ATOM     10  H   UNL     1       6.649  -0.140  27.842  0.00  0.00    +0.151 HD
ATOM     11  O   UNL     1       4.864   0.766  25.409  0.00  0.00    -0.253 OA
ATOM     12  C   UNL     1       6.778   2.340  28.075  0.00  0.00    +0.134 C 
BRANCH   7  13
ATOM     13  C   UNL     1       5.836   3.264  25.965  0.00  0.00    +0.164 C 
BRANCH  13  17
ATOM     14  C   UNL     1       9.051   3.426  24.282  0.00  0.00    +0.081 A 
ATOM     15  S   UNL     1       9.206   5.078  24.741  0.00  0.00    -0.080 S 
ATOM     16  C   UNL     1       7.708   4.984  25.559  0.00  0.00    +0.071 A 
ATOM     17  C   UNL     1       7.154   3.726  25.408  0.00  0.00    +0.066 A 
ATOM     18  N   UNL     1       7.928   2.844  24.652  0.00  0.00    -0.247 NA
BRANCH  14  20
ATOM     19  C   UNL     1      11.362   3.704  23.410  0.00  0.00    +0.014 C 
ATOM     20  C   UNL     1      10.194   2.730  23.581  0.00  0.00    +0.038 C 
ATOM     21  C   UNL     1      10.642   1.475  24.326  0.00  0.00    +0.014 C 
ENDBRANCH  14  20
ENDBRANCH  13  17
ENDBRANCH   7  13
ENDBRANCH   6   9
BRANCH   6  22
ATOM     22  C   UNL     1       4.231  -2.033  27.626  0.00  0.00    +0.012 C 
ATOM     23  C   UNL     1       2.983  -2.183  26.753  0.00  0.00    +0.009 C 
ATOM     24  C   UNL     1       3.911  -1.112  28.802  0.00  0.00    +0.009 C 
ENDBRANCH   6  22
ENDBRANCH   2   6
ENDBRANCH   1   3
BRANCH   1  25
ATOM     25  C   UNL     1       7.487  -5.604  25.711  0.00  0.00    +0.055 C 
BRANCH  25  26
ATOM     26  C   UNL     1       8.824  -5.192  25.049  0.00  0.00    +0.137 C 
BRANCH  26  27
ATOM     27  O   UNL     1       9.658  -4.641  26.082  0.00  0.00    -0.390 OA
ATOM     28  H   UNL     1      10.579  -4.903  25.906  0.00  0.00    +0.210 HD
ENDBRANCH  26  27
BRANCH  26  29
ATOM     29  C   UNL     1       8.665  -4.103  23.932  0.00  0.00    +0.109 C 
BRANCH  29  30
ATOM     30  N   UNL     1       7.251  -3.884  23.583  0.00  0.00    -0.275 N 
ATOM     31  H   UNL     1       6.760  -3.118  24.022  0.00  0.00    +0.152 HD
ATOM     32  C   UNL     1       6.611  -4.477  22.538  0.00  0.00    +0.401 C 
ATOM     33  O   UNL     1       7.110  -5.310  21.794  0.00  0.00    -0.226 OA
BRANCH  32  34
ATOM     34  O   UNL     1       5.356  -3.975  22.416  0.00  0.00    -0.445 OA
BRANCH  34  35
ATOM     35  C   UNL     1       4.607  -3.926  23.630  0.00  0.00    +0.278 C 
BRANCH  35  36
ATOM     36  C   UNL     1       3.920  -5.229  23.869  0.00  0.00    +0.046 A 
ATOM     37  S   UNL     1       2.331  -5.525  23.288  0.00  0.00    -0.077 S 
ATOM     38  C   UNL     1       2.472  -7.164  23.773  0.00  0.00    +0.156 A 
ATOM     39  N   UNL     1       3.593  -7.492  24.376  0.00  0.00    -0.255 NA
ATOM     40  C   UNL     1       4.419  -6.386  24.439  0.00  0.00    +0.125 A 
ENDBRANCH  35  36
ENDBRANCH  34  35
ENDBRANCH  32  34
ENDBRANCH  29  30
BRANCH  29  41
ATOM     41  C   UNL     1       9.374  -2.755  24.240  0.00  0.00    +0.060 C 
BRANCH  41  42
ATOM     42  C   UNL     1       8.948  -1.676  23.265  0.00  0.00    -0.046 A 
ATOM     43  C   UNL     1       7.816  -0.897  23.543  0.00  0.00    +0.004 A 
ATOM     44  C   UNL     1       7.474   0.172  22.715  0.00  0.00    +0.000 A 
ATOM     45  C   UNL     1       8.256   0.471  21.600  0.00  0.00    +0.000 A 
ATOM     46  C   UNL     1       9.367  -0.314  21.300  0.00  0.00    +0.000 A 
ATOM     47  C   UNL     1       9.708  -1.389  22.123  0.00  0.00    +0.004 A 
ENDBRANCH  41  42
ENDBRANCH  29  41
ENDBRANCH  26  29
ENDBRANCH  25  26
ENDBRANCH   1  25
BRANCH   1  48
ATOM     48  C   UNL     1       6.797  -6.103  28.191  0.00  0.00    +0.057 C 
BRANCH  48  49
ATOM     49  C   UNL     1       5.412  -5.948  28.782  0.00  0.00    -0.046 A 
ATOM     50  C   UNL     1       5.233  -5.222  29.966  0.00  0.00    +0.004 A 
ATOM     51  C   UNL     1       3.957  -4.995  30.484  0.00  0.00    +0.000 A 
ATOM     52  C   UNL     1       2.840  -5.521  29.842  0.00  0.00    +0.000 A 
ATOM     53  C   UNL     1       3.006  -6.304  28.705  0.00  0.00    +0.000 A 
ATOM     54  C   UNL     1       4.284  -6.531  28.194  0.00  0.00    +0.004 A 
ENDBRANCH  48  49
ENDBRANCH   1  48
TORSDOF 19
ENDMDL
MODEL 3
REMARK VINA RESULT:      -6.8      3.625      6.826
REMARK  Name = 
REMARK  24 active torsions:
REMARK  status: ('A' for Active; 'I' for Inactive)
REMARK    1  A    between atoms: C_1  and  C_2
REMARK    2  A    between atoms: C_2  and  C_3
REMARK    3  A    between atoms: C_2  and  C_4
REMARK    4  A    between atoms: C_6  and  C_9
REMARK    5  A    between atoms: C_9  and  N_10
REMARK    6  A    between atoms: N_10  and  C_11
REMARK    7  A    between atoms: N_14  and  C_15
REMARK    8  A    between atoms: C_15  and  C_17
REMARK    9  A    between atoms: C_15  and  C_20
REMARK   10  A    between atoms: C_17  and  C_18
REMARK   11  A    between atoms: C_17  and  C_19
REMARK   12  A    between atoms: N_22  and  C_23
REMARK   13  A    between atoms: C_23  and  C_25
REMARK   14  A    between atoms: C_23  and  C_32
REMARK   15  A    between atoms: C_25  and  C_26
REMARK   16  A    between atoms: C_32  and  C_33
REMARK   17  A    between atoms: C_33  and  C_35
REMARK   18  A    between atoms: C_33  and  O_54
REMARK   19  A    between atoms: C_35  and  C_37
REMARK   20  A    between atoms: C_35  and  N_44
REMARK   21  A    between atoms: C_37  and  C_38
REMARK   22  A    between atoms: C_45  and  O_47
REMARK   23  A    between atoms: O_47  and  C_48
REMARK   24  A    between atoms: C_48  and  C_49
REMARK                            x       y       z     vdW  Elec       q    Type
REMARK                         _______ _______ _______ _____ _____    ______ ____
ROOT
ATOM      1  C   UNL     1       8.154   1.858  25.323  0.00  0.00    +0.080 C 
ENDROOT
BRANCH   1   3
ATOM      2  C   UNL     1       8.293  -0.416  24.205  0.00  0.00    +0.234 C 
ATOM      3  N   UNL     1       8.003   0.942  24.172  0.00  0.00    -0.311 N 
ATOM      4  H   UNL     1       7.750   1.351  23.282  0.00  0.00    +0.149 HD
ATOM      5  O   UNL     1       8.728  -0.980  25.208  0.00  0.00    -0.274 OA
BRANCH   2   6
ATOM      6  C   UNL     1       8.025  -1.179  22.868  0.00  0.00    +0.163 C 
BRANCH   6   9
ATOM      7  N   UNL     1       6.670  -4.640  22.755  0.00  0.00    -0.283 N 
ATOM      8  C   UNL     1       6.807  -3.302  22.457  0.00  0.00    +0.303 C 
ATOM      9  N   UNL     1       7.805  -2.617  23.097  0.00  0.00    -0.288 N 
ATOM     10  H   UNL     1       8.208  -3.002  23.937  0.00  0.00    +0.151 HD
ATOM     11  O   UNL     1       6.074  -2.740  21.633  0.00  0.00    -0.253 OA
ATOM     12  C   UNL     1       7.537  -5.387  23.658  0.00  0.00    +0.134 C 
BRANCH   7  13
ATOM     13  C   UNL     1       5.504  -5.352  22.223  0.00  0.00    +0.164 C 
BRANCH  13  17
ATOM     14  C   UNL     1       2.993  -4.590  24.735  0.00  0.00    +0.081 A 
ATOM     15  S   UNL     1       2.627  -6.267  24.874  0.00  0.00    -0.080 S 
ATOM     16  C   UNL     1       3.834  -6.620  23.716  0.00  0.00    +0.071 A 
ATOM     17  C   UNL     1       4.419  -5.453  23.258  0.00  0.00    +0.066 A 
ATOM     18  N   UNL     1       3.911  -4.290  23.837  0.00  0.00    -0.247 NA
BRANCH  14  20
ATOM     19  C   UNL     1       0.906  -3.321  25.193  0.00  0.00    +0.014 C 
ATOM     20  C   UNL     1       2.335  -3.598  25.664  0.00  0.00    +0.038 C 
ATOM     21  C   UNL     1       2.344  -4.079  27.113  0.00  0.00    +0.014 C 
ENDBRANCH  14  20
ENDBRANCH  13  17
ENDBRANCH   7  13
ENDBRANCH   6   9
BRANCH   6  22
ATOM     22  C   UNL     1       9.126  -0.925  21.809  0.00  0.00    +0.012 C 
ATOM     23  C   UNL     1      10.508  -1.373  22.289  0.00  0.00    +0.009 C 
ATOM     24  C   UNL     1       9.199   0.535  21.367  0.00  0.00    +0.009 C 
ENDBRANCH   6  22
ENDBRANCH   2   6
ENDBRANCH   1   3
BRANCH   1  25
ATOM     25  C   UNL     1       6.796   1.988  26.078  0.00  0.00    +0.055 C 
BRANCH  25  26
ATOM     26  C   UNL     1       6.675   1.200  27.406  0.00  0.00    +0.137 C 
BRANCH  26  27
ATOM     27  O   UNL     1       7.900   0.469  27.580  0.00  0.00    -0.390 OA
ATOM     28  H   UNL     1       8.233   0.639  28.479  0.00  0.00    +0.210 HD
ENDBRANCH  26  27
BRANCH  26  29
ATOM     29  C   UNL     1       5.497   0.165  27.419  0.00  0.00    +0.109 C 
BRANCH  29  30
ATOM     30  N   UNL     1       5.950  -1.181  27.026  0.00  0.00    -0.275 N 
ATOM     31  H   UNL     1       6.394  -1.761  27.724  0.00  0.00    +0.152 HD
ATOM     32  C   UNL     1       5.606  -1.805  25.866  0.00  0.00    +0.401 C 
ATOM     33  O   UNL     1       4.928  -1.307  24.978  0.00  0.00    -0.226 OA
BRANCH  32  34
ATOM     34  O   UNL     1       6.087  -3.074  25.862  0.00  0.00    -0.445 OA
BRANCH  34  35
ATOM     35  C   UNL     1       6.667  -3.502  27.094  0.00  0.00    +0.278 C 
BRANCH  35  36
ATOM     36  C   UNL     1       6.121  -4.834  27.489  0.00  0.00    +0.046 A 
ATOM     37  S   UNL     1       5.455  -5.105  29.048  0.00  0.00    -0.077 S 
ATOM     38  C   UNL     1       4.934  -6.658  28.543  0.00  0.00    +0.156 A 
ATOM     39  N   UNL     1       5.261  -7.005  27.319  0.00  0.00    -0.255 NA
ATOM     40  C   UNL     1       5.946  -5.968  26.716  0.00  0.00    +0.125 A 
ENDBRANCH  35  36
ENDBRANCH  34  35
ENDBRANCH  32  34
ENDBRANCH  29  30
BRANCH  29  41
ATOM     41  C   UNL     1       4.699   0.113  28.752  0.00  0.00    +0.060 C 
BRANCH  41  42
ATOM     42  C   UNL     1       3.266  -0.322  28.516  0.00  0.00    -0.046 A 
ATOM     43  C   UNL     1       2.618  -1.118  29.470  0.00  0.00    +0.004 A 
ATOM     44  C   UNL     1       1.267  -1.435  29.325  0.00  0.00    +0.000 A 
ATOM     45  C   UNL     1       0.553  -0.964  28.224  0.00  0.00    +0.000 A 
ATOM     46  C   UNL     1       1.195  -0.194  27.257  0.00  0.00    +0.000 A 
ATOM     47  C   UNL     1       2.548   0.119  27.396  0.00  0.00    +0.004 A 
ENDBRANCH  41  42
ENDBRANCH  29  41
ENDBRANCH  26  29
ENDBRANCH  25  26
ENDBRANCH   1  25
BRANCH   1  48
ATOM     48  C   UNL     1       8.807   3.213  24.925  0.00  0.00    +0.057 C 
BRANCH  48  49
ATOM     49  C   UNL     1       7.921   4.198  24.194  0.00  0.00    -0.046 A 
ATOM     50  C   UNL     1       7.345   5.269  24.887  0.00  0.00    +0.004 A 
ATOM     51  C   UNL     1       6.594   6.238  24.219  0.00  0.00    +0.000 A 
ATOM     52  C   UNL     1       6.379   6.130  22.848  0.00  0.00    +0.000 A 
ATOM     53  C   UNL     1       6.884   5.034  22.157  0.00  0.00    +0.000 A 
ATOM     54  C   UNL     1       7.630   4.067  22.831  0.00  0.00    +0.004 A 
ENDBRANCH  48  49
ENDBRANCH   1  48
TORSDOF 19
ENDMDL
MODEL 4
REMARK VINA RESULT:      -6.8      3.497      5.902
REMARK  Name = 
REMARK  24 active torsions:
REMARK  status: ('A' for Active; 'I' for Inactive)
REMARK    1  A    between atoms: C_1  and  C_2
REMARK    2  A    between atoms: C_2  and  C_3
REMARK    3  A    between atoms: C_2  and  C_4
REMARK    4  A    between atoms: C_6  and  C_9
REMARK    5  A    between atoms: C_9  and  N_10
REMARK    6  A    between atoms: N_10  and  C_11
REMARK    7  A    between atoms: N_14  and  C_15
REMARK    8  A    between atoms: C_15  and  C_17
REMARK    9  A    between atoms: C_15  and  C_20
REMARK   10  A    between atoms: C_17  and  C_18
REMARK   11  A    between atoms: C_17  and  C_19
REMARK   12  A    between atoms: N_22  and  C_23
REMARK   13  A    between atoms: C_23  and  C_25
REMARK   14  A    between atoms: C_23  and  C_32
REMARK   15  A    between atoms: C_25  and  C_26
REMARK   16  A    between atoms: C_32  and  C_33
REMARK   17  A    between atoms: C_33  and  C_35
REMARK   18  A    between atoms: C_33  and  O_54
REMARK   19  A    between atoms: C_35  and  C_37
REMARK   20  A    between atoms: C_35  and  N_44
REMARK   21  A    between atoms: C_37  and  C_38
REMARK   22  A    between atoms: C_45  and  O_47
REMARK   23  A    between atoms: O_47  and  C_48
REMARK   24  A    between atoms: C_48  and  C_49
REMARK                            x       y       z     vdW  Elec       q    Type
REMARK                         _______ _______ _______ _____ _____    ______ ____
ROOT
ATOM      1  C   UNL     1       6.851   1.272  25.881  0.00  0.00    +0.080 C 
ENDROOT
BRANCH   1   3
ATOM      2  C   UNL     1       4.362   1.532  26.302  0.00  0.00    +0.234 C 
ATOM      3  N   UNL     1       5.645   1.215  26.732  0.00  0.00    -0.311 N 
ATOM      4  H   UNL     1       5.777   1.010  27.715  0.00  0.00    +0.149 HD
ATOM      5  O   UNL     1       4.120   1.915  25.159  0.00  0.00    -0.274 OA
BRANCH   2   6
ATOM      6  C   UNL     1       3.246   1.367  27.382  0.00  0.00    +0.163 C 
BRANCH   6   9
ATOM      7  N   UNL     1       1.876  -2.069  26.999  0.00  0.00    -0.283 N 
ATOM      8  C   UNL     1       2.761  -1.067  27.330  0.00  0.00    +0.303 C 
ATOM      9  N   UNL     1       2.368   0.222  27.086  0.00  0.00    -0.288 N 
ATOM     10  H   UNL     1       1.612   0.394  26.442  0.00  0.00    +0.151 HD
ATOM     11  O   UNL     1       3.861  -1.312  27.844  0.00  0.00    -0.253 OA
ATOM     12  C   UNL     1       0.539  -1.857  26.458  0.00  0.00    +0.134 C 
BRANCH   7  13
ATOM     13  C   UNL     1       2.339  -3.457  27.082  0.00  0.00    +0.164 C 
BRANCH  13  17
ATOM     14  C   UNL     1       4.490  -4.096  24.225  0.00  0.00    +0.081 A 
ATOM     15  S   UNL     1       3.217  -4.973  23.466  0.00  0.00    -0.080 S 
ATOM     16  C   UNL     1       2.201  -4.639  24.800  0.00  0.00    +0.071 A 
ATOM     17  C   UNL     1       2.888  -3.920  25.761  0.00  0.00    +0.066 A 
ATOM     18  N   UNL     1       4.211  -3.633  25.427  0.00  0.00    -0.247 NA
BRANCH  14  20
ATOM     19  C   UNL     1       6.472  -5.171  23.180  0.00  0.00    +0.014 C 
ATOM     20  C   UNL     1       5.776  -3.840  23.477  0.00  0.00    +0.038 C 
ATOM     21  C   UNL     1       5.543  -3.053  22.190  0.00  0.00    +0.014 C 
ENDBRANCH  14  20
ENDBRANCH  13  17
ENDBRANCH   7  13
ENDBRANCH   6   9
BRANCH   6  22
ATOM     22  C   UNL     1       2.439   2.670  27.606  0.00  0.00    +0.012 C 
ATOM     23  C   UNL     1       3.303   3.796  28.178  0.00  0.00    +0.009 C 
ATOM     24  C   UNL     1       1.221   2.467  28.505  0.00  0.00    +0.009 C 
ENDBRANCH   6  22
ENDBRANCH   2   6
ENDBRANCH   1   3
BRANCH   1  25
ATOM     25  C   UNL     1       7.787   0.068  26.207  0.00  0.00    +0.055 C 
BRANCH  25  26
ATOM     26  C   UNL     1       7.391  -1.293  25.583  0.00  0.00    +0.137 C 
BRANCH  26  27
ATOM     27  O   UNL     1       6.230  -1.763  26.288  0.00  0.00    -0.390 OA
ATOM     28  H   UNL     1       5.888  -1.034  26.835  0.00  0.00    +0.210 HD
ENDBRANCH  26  27
BRANCH  26  29
ATOM     29  C   UNL     1       8.503  -2.392  25.710  0.00  0.00    +0.109 C 
BRANCH  29  30
ATOM     30  N   UNL     1       8.004  -3.593  26.403  0.00  0.00    -0.275 N 
ATOM     31  H   UNL     1       7.017  -3.656  26.606  0.00  0.00    +0.152 HD
ATOM     32  C   UNL     1       8.720  -4.738  26.579  0.00  0.00    +0.401 C 
ATOM     33  O   UNL     1       9.884  -4.894  26.239  0.00  0.00    -0.226 OA
BRANCH  32  34
ATOM     34  O   UNL     1       7.938  -5.692  27.144  0.00  0.00    -0.445 OA
BRANCH  34  35
ATOM     35  C   UNL     1       6.558  -5.628  26.786  0.00  0.00    +0.278 C 
BRANCH  35  36
ATOM     36  C   UNL     1       5.702  -5.969  27.960  0.00  0.00    +0.046 A 
ATOM     37  S   UNL     1       5.278  -4.790  29.136  0.00  0.00    -0.077 S 
ATOM     38  C   UNL     1       4.212  -5.918  29.865  0.00  0.00    +0.156 A 
ATOM     39  N   UNL     1       4.185  -7.117  29.327  0.00  0.00    -0.255 NA
ATOM     40  C   UNL     1       5.041  -7.151  28.243  0.00  0.00    +0.125 A 
ENDBRANCH  35  36
ENDBRANCH  34  35
ENDBRANCH  32  34
ENDBRANCH  29  30
BRANCH  29  41
ATOM     41  C   UNL     1       9.192  -2.771  24.370  0.00  0.00    +0.060 C 
BRANCH  41  42
ATOM     42  C   UNL     1       9.528  -1.537  23.558  0.00  0.00    -0.046 A 
ATOM     43  C   UNL     1       8.980  -1.379  22.277  0.00  0.00    +0.004 A 
ATOM     44  C   UNL     1       9.187  -0.200  21.561  0.00  0.00    +0.000 A 
ATOM     45  C   UNL     1       9.947   0.830  22.114  0.00  0.00    +0.000 A 
ATOM     46  C   UNL     1      10.518   0.671  23.376  0.00  0.00    +0.000 A 
ATOM     47  C   UNL     1      10.318  -0.510  24.092  0.00  0.00    +0.004 A 
ENDBRANCH  41  42
ENDBRANCH  29  41
ENDBRANCH  26  29
ENDBRANCH  25  26
ENDBRANCH   1  25
BRANCH   1  48
ATOM     48  C   UNL     1       7.546   2.663  25.923  0.00  0.00    +0.057 C 
BRANCH  48  49
ATOM     49  C   UNL     1       7.583   3.438  24.624  0.00  0.00    -0.046 A 
ATOM     50  C   UNL     1       7.069   2.866  23.454  0.00  0.00    +0.004 A 
ATOM     51  C   UNL     1       7.015   3.592  22.263  0.00  0.00    +0.000 A 
ATOM     52  C   UNL     1       7.506   4.893  22.217  0.00  0.00    +0.000 A 
ATOM     53  C   UNL     1       8.084   5.450  23.352  0.00  0.00    +0.000 A 
ATOM     54  C   UNL     1       8.140   4.719  24.538  0.00  0.00    +0.004 A 
ENDBRANCH  48  49
ENDBRANCH   1  48
TORSDOF 19
ENDMDL
MODEL 5
REMARK VINA RESULT:      -6.7      3.496      5.121
REMARK  Name = 
REMARK  24 active torsions:
REMARK  status: ('A' for Active; 'I' for Inactive)
REMARK    1  A    between atoms: C_1  and  C_2
REMARK    2  A    between atoms: C_2  and  C_3
REMARK    3  A    between atoms: C_2  and  C_4
REMARK    4  A    between atoms: C_6  and  C_9
REMARK    5  A    between atoms: C_9  and  N_10
REMARK    6  A    between atoms: N_10  and  C_11
REMARK    7  A    between atoms: N_14  and  C_15
REMARK    8  A    between atoms: C_15  and  C_17
REMARK    9  A    between atoms: C_15  and  C_20
REMARK   10  A    between atoms: C_17  and  C_18
REMARK   11  A    between atoms: C_17  and  C_19
REMARK   12  A    between atoms: N_22  and  C_23
REMARK   13  A    between atoms: C_23  and  C_25
REMARK   14  A    between atoms: C_23  and  C_32
REMARK   15  A    between atoms: C_25  and  C_26
REMARK   16  A    between atoms: C_32  and  C_33
REMARK   17  A    between atoms: C_33  and  C_35
REMARK   18  A    between atoms: C_33  and  O_54
REMARK   19  A    between atoms: C_35  and  C_37
REMARK   20  A    between atoms: C_35  and  N_44
REMARK   21  A    between atoms: C_37  and  C_38
REMARK   22  A    between atoms: C_45  and  O_47
REMARK   23  A    between atoms: O_47  and  C_48
REMARK   24  A    between atoms: C_48  and  C_49
REMARK                            x       y       z     vdW  Elec       q    Type
REMARK                         _______ _______ _______ _____ _____    ______ ____
ROOT
ATOM      1  C   UNL     1       8.627   1.436  24.776  0.00  0.00    +0.080 C 
ENDROOT
BRANCH   1   3
ATOM      2  C   UNL     1       6.590   2.329  25.998  0.00  0.00    +0.234 C 
ATOM      3  N   UNL     1       7.949   2.049  25.938  0.00  0.00    -0.311 N 
ATOM      4  H   UNL     1       8.531   2.359  26.706  0.00  0.00    +0.149 HD
ATOM      5  O   UNL     1       5.822   2.104  25.064  0.00  0.00    -0.274 OA
BRANCH   2   6
ATOM      6  C   UNL     1       6.105   2.952  27.346  0.00  0.00    +0.163 C 
BRANCH   6   9
ATOM      7  N   UNL     1       3.918   0.474  29.051  0.00  0.00    -0.283 N 
ATOM      8  C   UNL     1       5.073   1.079  28.606  0.00  0.00    +0.303 C 
ATOM      9  N   UNL     1       4.937   2.237  27.887  0.00  0.00    -0.288 N 
ATOM     10  H   UNL     1       4.046   2.457  27.471  0.00  0.00    +0.151 HD
ATOM     11  O   UNL     1       6.192   0.612  28.856  0.00  0.00    -0.253 OA
ATOM     12  C   UNL     1       2.572   1.000  28.858  0.00  0.00    +0.134 C 
BRANCH   7  13
ATOM     13  C   UNL     1       4.024  -0.853  29.665  0.00  0.00    +0.164 C 
BRANCH  13  17
ATOM     14  C   UNL     1       3.285  -3.041  26.861  0.00  0.00    +0.081 A 
ATOM     15  S   UNL     1       2.051  -3.807  27.787  0.00  0.00    -0.080 S 
ATOM     16  C   UNL     1       2.384  -2.751  29.090  0.00  0.00    +0.071 A 
ATOM     17  C   UNL     1       3.431  -1.906  28.771  0.00  0.00    +0.066 A 
ATOM     18  N   UNL     1       3.955  -2.098  27.492  0.00  0.00    -0.247 NA
BRANCH  14  20
ATOM     19  C   UNL     1       4.731  -2.730  24.864  0.00  0.00    +0.014 C 
ATOM     20  C   UNL     1       3.474  -3.412  25.410  0.00  0.00    +0.038 C 
ATOM     21  C   UNL     1       3.549  -4.924  25.211  0.00  0.00    +0.014 C 
ENDBRANCH  14  20
ENDBRANCH  13  17
ENDBRANCH   7  13
ENDBRANCH   6   9
BRANCH   6  22
ATOM     22  C   UNL     1       5.848   4.476  27.236  0.00  0.00    +0.012 C 
ATOM     23  C   UNL     1       4.366   4.802  27.036  0.00  0.00    +0.009 C 
ATOM     24  C   UNL     1       6.660   5.136  26.124  0.00  0.00    +0.009 C 
ENDBRANCH   6  22
ENDBRANCH   2   6
ENDBRANCH   1   3
BRANCH   1  25
ATOM     25  C   UNL     1       9.217   0.050  25.179  0.00  0.00    +0.055 C 
BRANCH  25  26
ATOM     26  C   UNL     1       8.203  -1.113  25.308  0.00  0.00    +0.137 C 
BRANCH  26  27
ATOM     27  O   UNL     1       7.572  -0.987  26.593  0.00  0.00    -0.390 OA
ATOM     28  H   UNL     1       7.264  -0.070  26.694  0.00  0.00    +0.210 HD
ENDBRANCH  26  27
BRANCH  26  29
ATOM     29  C   UNL     1       8.862  -2.535  25.237  0.00  0.00    +0.109 C 
BRANCH  29  30
ATOM     30  N   UNL     1       8.080  -3.535  25.985  0.00  0.00    -0.275 N 
ATOM     31  H   UNL     1       7.074  -3.528  25.888  0.00  0.00    +0.152 HD
ATOM     32  C   UNL     1       8.609  -4.624  26.607  0.00  0.00    +0.401 C 
ATOM     33  O   UNL     1       9.803  -4.878  26.677  0.00  0.00    -0.226 OA
BRANCH  32  34
ATOM     34  O   UNL     1       7.615  -5.407  27.098  0.00  0.00    -0.445 OA
BRANCH  34  35
ATOM     35  C   UNL     1       6.465  -4.699  27.561  0.00  0.00    +0.278 C 
BRANCH  35  36
ATOM     36  C   UNL     1       5.629  -5.580  28.429  0.00  0.00    +0.046 A 
ATOM     37  S   UNL     1       5.186  -5.111  30.020  0.00  0.00    -0.077 S 
ATOM     38  C   UNL     1       4.156  -6.478  30.124  0.00  0.00    +0.156 A 
ATOM     39  N   UNL     1       4.156  -7.279  29.082  0.00  0.00    -0.255 NA
ATOM     40  C   UNL     1       5.003  -6.772  28.115  0.00  0.00    +0.125 A 
ENDBRANCH  35  36
ENDBRANCH  34  35
ENDBRANCH  32  34
ENDBRANCH  29  30
BRANCH  29  41
ATOM     41  C   UNL     1       9.168  -3.034  23.798  0.00  0.00    +0.060 C 
BRANCH  41  42
ATOM     42  C   UNL     1       7.945  -3.669  23.167  0.00  0.00    -0.046 A 
ATOM     43  C   UNL     1       7.105  -2.899  22.352  0.00  0.00    +0.004 A 
ATOM     44  C   UNL     1       6.040  -3.492  21.673  0.00  0.00    +0.000 A 
ATOM     45  C   UNL     1       5.801  -4.859  21.807  0.00  0.00    +0.000 A 
ATOM     46  C   UNL     1       6.615  -5.629  22.637  0.00  0.00    +0.000 A 
ATOM     47  C   UNL     1       7.677  -5.037  23.322  0.00  0.00    +0.004 A 
ENDBRANCH  41  42
ENDBRANCH  29  41
ENDBRANCH  26  29
ENDBRANCH  25  26
ENDBRANCH   1  25
BRANCH   1  48
ATOM     48  C   UNL     1       9.642   2.402  24.100  0.00  0.00    +0.057 C 
BRANCH  48  49
ATOM     49  C   UNL     1       9.088   3.716  23.597  0.00  0.00    -0.046 A 
ATOM     50  C   UNL     1       7.937   3.732  22.800  0.00  0.00    +0.004 A 
ATOM     51  C   UNL     1       7.359   4.936  22.393  0.00  0.00    +0.000 A 
ATOM     52  C   UNL     1       7.944   6.146  22.753  0.00  0.00    +0.000 A 
ATOM     53  C   UNL     1       9.127   6.147  23.485  0.00  0.00    +0.000 A 
ATOM     54  C   UNL     1       9.702   4.941  23.883  0.00  0.00    +0.004 A 
ENDBRANCH  48  49
ENDBRANCH   1  48
TORSDOF 19
ENDMDL
MODEL 6
REMARK VINA RESULT:      -6.7      3.389      6.912
REMARK  Name = 
REMARK  24 active torsions:
REMARK  status: ('A' for Active; 'I' for Inactive)
REMARK    1  A    between atoms: C_1  and  C_2
REMARK    2  A    between atoms: C_2  and  C_3
REMARK    3  A    between atoms: C_2  and  C_4
REMARK    4  A    between atoms: C_6  and  C_9
REMARK    5  A    between atoms: C_9  and  N_10
REMARK    6  A    between atoms: N_10  and  C_11
REMARK    7  A    between atoms: N_14  and  C_15
REMARK    8  A    between atoms: C_15  and  C_17
REMARK    9  A    between atoms: C_15  and  C_20
REMARK   10  A    between atoms: C_17  and  C_18
REMARK   11  A    between atoms: C_17  and  C_19
REMARK   12  A    between atoms: N_22  and  C_23
REMARK   13  A    between atoms: C_23  and  C_25
REMARK   14  A    between atoms: C_23  and  C_32
REMARK   15  A    between atoms: C_25  and  C_26
REMARK   16  A    between atoms: C_32  and  C_33
REMARK   17  A    between atoms: C_33  and  C_35
REMARK   18  A    between atoms: C_33  and  O_54
REMARK   19  A    between atoms: C_35  and  C_37
REMARK   20  A    between atoms: C_35  and  N_44
REMARK   21  A    between atoms: C_37  and  C_38
REMARK   22  A    between atoms: C_45  and  O_47
REMARK   23  A    between atoms: O_47  and  C_48
REMARK   24  A    between atoms: C_48  and  C_49
REMARK                            x       y       z     vdW  Elec       q    Type
REMARK                         _______ _______ _______ _____ _____    ______ ____
ROOT
ATOM      1  C   UNL     1       6.300   0.989  24.799  0.00  0.00    +0.080 C 
ENDROOT
BRANCH   1   3
ATOM      2  C   UNL     1       4.975   0.806  26.955  0.00  0.00    +0.234 C 
ATOM      3  N   UNL     1       5.053   1.051  25.591  0.00  0.00    -0.311 N 
ATOM      4  H   UNL     1       4.189   1.203  25.086  0.00  0.00    +0.149 HD
ATOM      5  O   UNL     1       5.953   0.490  27.632  0.00  0.00    -0.274 OA
BRANCH   2   6
ATOM      6  C   UNL     1       3.548   0.962  27.572  0.00  0.00    +0.163 C 
BRANCH   6   9
ATOM      7  N   UNL     1       2.001  -2.360  28.206  0.00  0.00    -0.283 N 
ATOM      8  C   UNL     1       2.751  -1.226  28.430  0.00  0.00    +0.303 C 
ATOM      9  N   UNL     1       2.762  -0.276  27.444  0.00  0.00    -0.288 N 
ATOM     10  H   UNL     1       2.479  -0.531  26.510  0.00  0.00    +0.151 HD
ATOM     11  O   UNL     1       3.378  -1.058  29.484  0.00  0.00    -0.253 OA
ATOM     12  C   UNL     1       1.181  -2.597  27.024  0.00  0.00    +0.134 C 
BRANCH   7  13
ATOM     13  C   UNL     1       2.114  -3.465  29.162  0.00  0.00    +0.164 C 
BRANCH  13  17
ATOM     14  C   UNL     1       4.989  -5.064  27.620  0.00  0.00    +0.081 A 
ATOM     15  S   UNL     1       4.501  -6.576  28.285  0.00  0.00    -0.080 S 
ATOM     16  C   UNL     1       3.133  -5.821  28.980  0.00  0.00    +0.071 A 
ATOM     17  C   UNL     1       3.139  -4.466  28.706  0.00  0.00    +0.066 A 
ATOM     18  N   UNL     1       4.224  -4.039  27.941  0.00  0.00    -0.247 NA
BRANCH  14  20
ATOM     19  C   UNL     1       6.397  -3.555  26.236  0.00  0.00    +0.014 C 
ATOM     20  C   UNL     1       6.166  -5.002  26.676  0.00  0.00    +0.038 C 
ATOM     21  C   UNL     1       7.430  -5.586  27.301  0.00  0.00    +0.014 C 
ENDBRANCH  14  20
ENDBRANCH  13  17
ENDBRANCH   7  13
ENDBRANCH   6   9
BRANCH   6  22
ATOM     22  C   UNL     1       2.789   2.189  27.007  0.00  0.00    +0.012 C 
ATOM     23  C   UNL     1       3.282   3.505  27.611  0.00  0.00    +0.009 C 
ATOM     24  C   UNL     1       1.277   2.088  27.195  0.00  0.00    +0.009 C 
ENDBRANCH   6  22
ENDBRANCH   2   6
ENDBRANCH   1   3
BRANCH   1  25
ATOM     25  C   UNL     1       6.760  -0.494  24.652  0.00  0.00    +0.055 C 
BRANCH  25  26
ATOM     26  C   UNL     1       6.874  -1.033  23.205  0.00  0.00    +0.137 C 
BRANCH  26  27
ATOM     27  O   UNL     1       5.634  -1.692  22.897  0.00  0.00    -0.390 OA
ATOM     28  H   UNL     1       5.317  -2.139  23.702  0.00  0.00    +0.210 HD
ENDBRANCH  26  27
BRANCH  26  29
ATOM     29  C   UNL     1       8.029  -2.075  23.009  0.00  0.00    +0.109 C 
BRANCH  29  30
ATOM     30  N   UNL     1       7.522  -3.361  22.498  0.00  0.00    -0.275 N 
ATOM     31  H   UNL     1       7.023  -3.366  21.620  0.00  0.00    +0.152 HD
ATOM     32  C   UNL     1       7.875  -4.581  22.988  0.00  0.00    +0.401 C 
ATOM     33  O   UNL     1       8.608  -4.764  23.949  0.00  0.00    -0.226 OA
BRANCH  32  34
ATOM     34  O   UNL     1       7.330  -5.563  22.225  0.00  0.00    -0.445 OA
BRANCH  34  35
ATOM     35  C   UNL     1       5.954  -5.374  21.894  0.00  0.00    +0.278 C 
BRANCH  35  36
ATOM     36  C   UNL     1       5.084  -5.828  23.018  0.00  0.00    +0.046 A 
ATOM     37  S   UNL     1       3.708  -4.925  23.510  0.00  0.00    -0.077 S 
ATOM     38  C   UNL     1       3.263  -6.201  24.565  0.00  0.00    +0.156 A 
ATOM     39  N   UNL     1       4.086  -7.224  24.611  0.00  0.00    -0.255 NA
ATOM     40  C   UNL     1       5.131  -7.011  23.734  0.00  0.00    +0.125 A 
ENDBRANCH  35  36
ENDBRANCH  34  35
ENDBRANCH  32  34
ENDBRANCH  29  30
BRANCH  29  41
ATOM     41  C   UNL     1       9.218  -1.567  22.146  0.00  0.00    +0.060 C 
BRANCH  41  42
ATOM     42  C   UNL     1       9.729  -0.232  22.649  0.00  0.00    -0.046 A 
ATOM     43  C   UNL     1      10.315  -0.148  23.920  0.00  0.00    +0.004 A 
ATOM     44  C   UNL     1      10.892   1.045  24.354  0.00  0.00    +0.000 A 
ATOM     45  C   UNL     1      10.884   2.167  23.526  0.00  0.00    +0.000 A 
ATOM     46  C   UNL     1      10.281   2.101  22.272  0.00  0.00    +0.000 A 
ATOM     47  C   UNL     1       9.697   0.910  21.838  0.00  0.00    +0.004 A 
ENDBRANCH  41  42
ENDBRANCH  29  41
ENDBRANCH  26  29
ENDBRANCH  25  26
ENDBRANCH   1  25
BRANCH   1  48
ATOM     48  C   UNL     1       7.395   1.957  25.333  0.00  0.00    +0.057 C 
BRANCH  48  49
ATOM     49  C   UNL     1       7.620   3.224  24.537  0.00  0.00    -0.046 A 
ATOM     50  C   UNL     1       8.392   4.260  25.076  0.00  0.00    +0.004 A 
ATOM     51  C   UNL     1       8.684   5.403  24.328  0.00  0.00    +0.000 A 
ATOM     52  C   UNL     1       8.179   5.540  23.038  0.00  0.00    +0.000 A 
ATOM     53  C   UNL     1       7.351   4.552  22.516  0.00  0.00    +0.000 A 
ATOM     54  C   UNL     1       7.060   3.415  23.269  0.00  0.00    +0.004 A 
ENDBRANCH  48  49
ENDBRANCH   1  48
TORSDOF 19
ENDMDL
MODEL 7
REMARK VINA RESULT:      -6.7      2.582      7.472
REMARK  Name = 
REMARK  24 active torsions:
REMARK  status: ('A' for Active; 'I' for Inactive)
REMARK    1  A    between atoms: C_1  and  C_2
REMARK    2  A    between atoms: C_2  and  C_3
REMARK    3  A    between atoms: C_2  and  C_4
REMARK    4  A    between atoms: C_6  and  C_9
REMARK    5  A    between atoms: C_9  and  N_10
REMARK    6  A    between atoms: N_10  and  C_11
REMARK    7  A    between atoms: N_14  and  C_15
REMARK    8  A    between atoms: C_15  and  C_17
REMARK    9  A    between atoms: C_15  and  C_20
REMARK   10  A    between atoms: C_17  and  C_18
REMARK   11  A    between atoms: C_17  and  C_19
REMARK   12  A    between atoms: N_22  and  C_23
REMARK   13  A    between atoms: C_23  and  C_25
REMARK   14  A    between atoms: C_23  and  C_32
REMARK   15  A    between atoms: C_25  and  C_26
REMARK   16  A    between atoms: C_32  and  C_33
REMARK   17  A    between atoms: C_33  and  C_35
REMARK   18  A    between atoms: C_33  and  O_54
REMARK   19  A    between atoms: C_35  and  C_37
REMARK   20  A    between atoms: C_35  and  N_44
REMARK   21  A    between atoms: C_37  and  C_38
REMARK   22  A    between atoms: C_45  and  O_47
REMARK   23  A    between atoms: O_47  and  C_48
REMARK   24  A    between atoms: C_48  and  C_49
REMARK                            x       y       z     vdW  Elec       q    Type
REMARK                         _______ _______ _______ _____ _____    ______ ____
ROOT
ATOM      1  C   UNL     1       6.160   2.589  22.878  0.00  0.00    +0.080 C 
ENDROOT
BRANCH   1   3
ATOM      2  C   UNL     1       4.820   1.995  24.950  0.00  0.00    +0.234 C 
ATOM      3  N   UNL     1       6.029   2.160  24.287  0.00  0.00    -0.311 N 
ATOM      4  H   UNL     1       6.882   2.059  24.824  0.00  0.00    +0.149 HD
ATOM      5  O   UNL     1       3.733   2.216  24.418  0.00  0.00    -0.274 OA
BRANCH   2   6
ATOM      6  C   UNL     1       4.942   1.505  26.429  0.00  0.00    +0.163 C 
BRANCH   6   9
ATOM      7  N   UNL     1       3.704  -1.796  27.612  0.00  0.00    -0.283 N 
ATOM      8  C   UNL     1       4.550  -0.720  27.457  0.00  0.00    +0.303 C 
ATOM      9  N   UNL     1       4.109   0.316  26.678  0.00  0.00    -0.288 N 
ATOM     10  H   UNL     1       3.348   0.161  26.035  0.00  0.00    +0.151 HD
ATOM     11  O   UNL     1       5.657  -0.676  28.009  0.00  0.00    -0.253 OA
ATOM     12  C   UNL     1       2.361  -1.890  27.053  0.00  0.00    +0.134 C 
BRANCH   7  13
ATOM     13  C   UNL     1       4.220  -2.990  28.289  0.00  0.00    +0.164 C 
BRANCH  13  17
ATOM     14  C   UNL     1       5.042  -5.238  25.557  0.00  0.00    +0.081 A 
ATOM     15  S   UNL     1       6.692  -5.230  26.050  0.00  0.00    -0.080 S 
ATOM     16  C   UNL     1       6.290  -4.198  27.353  0.00  0.00    +0.071 A 
ATOM     17  C   UNL     1       4.944  -3.885  27.323  0.00  0.00    +0.066 A 
ATOM     18  N   UNL     1       4.241  -4.472  26.271  0.00  0.00    -0.247 NA
BRANCH  14  20
ATOM     19  C   UNL     1       3.662  -7.223  24.984  0.00  0.00    +0.014 C 
ATOM     20  C   UNL     1       4.598  -6.144  24.435  0.00  0.00    +0.038 C 
ATOM     21  C   UNL     1       3.925  -5.368  23.305  0.00  0.00    +0.014 C 
ENDBRANCH  14  20
ENDBRANCH  13  17
ENDBRANCH   7  13
ENDBRANCH   6   9
BRANCH   6  22
ATOM     22  C   UNL     1       4.659   2.633  27.452  0.00  0.00    +0.012 C 
ATOM     23  C   UNL     1       3.172   2.986  27.530  0.00  0.00    +0.009 C 
ATOM     24  C   UNL     1       5.460   3.902  27.173  0.00  0.00    +0.009 C 
ENDBRANCH   6  22
ENDBRANCH   2   6
ENDBRANCH   1   3
BRANCH   1  25
ATOM     25  C   UNL     1       7.059   1.582  22.098  0.00  0.00    +0.055 C 
BRANCH  25  26
ATOM     26  C   UNL     1       8.509   2.043  21.809  0.00  0.00    +0.137 C 
BRANCH  26  27
ATOM     27  O   UNL     1       9.077   1.102  20.883  0.00  0.00    -0.390 OA
ATOM     28  H   UNL     1       8.498   0.322  20.844  0.00  0.00    +0.210 HD
ENDBRANCH  26  27
BRANCH  26  29
ATOM     29  C   UNL     1       9.426   2.074  23.081  0.00  0.00    +0.109 C 
BRANCH  29  30
ATOM     30  N   UNL     1       9.566   0.736  23.683  0.00  0.00    -0.275 N 
ATOM     31  H   UNL     1      10.215   0.085  23.263  0.00  0.00    +0.152 HD
ATOM     32  C   UNL     1       9.075   0.382  24.902  0.00  0.00    +0.401 C 
ATOM     33  O   UNL     1       8.406   1.107  25.625  0.00  0.00    -0.226 OA
BRANCH  32  34
ATOM     34  O   UNL     1       9.475  -0.876  25.216  0.00  0.00    -0.445 OA
BRANCH  34  35
ATOM     35  C   UNL     1       8.425  -1.766  25.593  0.00  0.00    +0.278 C 
BRANCH  35  36
ATOM     36  C   UNL     1       7.670  -2.218  24.388  0.00  0.00    +0.046 A 
ATOM     37  S   UNL     1       6.032  -1.768  24.133  0.00  0.00    -0.077 S 
ATOM     38  C   UNL     1       6.097  -2.466  22.568  0.00  0.00    +0.156 A 
ATOM     39  N   UNL     1       7.229  -3.048  22.243  0.00  0.00    -0.255 NA
ATOM     40  C   UNL     1       8.127  -2.915  23.284  0.00  0.00    +0.125 A 
ENDBRANCH  35  36
ENDBRANCH  34  35
ENDBRANCH  32  34
ENDBRANCH  29  30
BRANCH  29  41
ATOM     41  C   UNL     1      10.817   2.728  22.857  0.00  0.00    +0.060 C 
BRANCH  41  42
ATOM     42  C   UNL     1      10.873   4.118  23.459  0.00  0.00    -0.046 A 
ATOM     43  C   UNL     1       9.748   4.634  24.117  0.00  0.00    +0.004 A 
ATOM     44  C   UNL     1       9.816   5.863  24.774  0.00  0.00    +0.000 A 
ATOM     45  C   UNL     1      11.006   6.590  24.774  0.00  0.00    +0.000 A 
ATOM     46  C   UNL     1      12.121   6.098  24.100  0.00  0.00    +0.000 A 
ATOM     47  C   UNL     1      12.054   4.872  23.437  0.00  0.00    +0.004 A 
ENDBRANCH  41  42
ENDBRANCH  29  41
ENDBRANCH  26  29
ENDBRANCH  25  26
ENDBRANCH   1  25
BRANCH   1  48
ATOM     48  C   UNL     1       6.590   4.079  22.747  0.00  0.00    +0.057 C 
BRANCH  48  49
ATOM     49  C   UNL     1       5.658   5.104  23.355  0.00  0.00    -0.046 A 
ATOM     50  C   UNL     1       4.324   5.173  22.936  0.00  0.00    +0.004 A 
ATOM     51  C   UNL     1       3.425   6.053  23.540  0.00  0.00    +0.000 A 
ATOM     52  C   UNL     1       3.857   6.904  24.554  0.00  0.00    +0.000 A 
ATOM     53  C   UNL     1       5.195   6.899  24.932  0.00  0.00    +0.000 A 
ATOM     54  C   UNL     1       6.089   6.020  24.321  0.00  0.00    +0.004 A 
ENDBRANCH  48  49
ENDBRANCH   1  48
TORSDOF 19
ENDMDL
MODEL 8
REMARK VINA RESULT:      -6.6      2.396      9.342
REMARK  Name = 
REMARK  24 active torsions:
REMARK  status: ('A' for Active; 'I' for Inactive)
REMARK    1  A    between atoms: C_1  and  C_2
REMARK    2  A    between atoms: C_2  and  C_3
REMARK    3  A    between atoms: C_2  and  C_4
REMARK    4  A    between atoms: C_6  and  C_9
REMARK    5  A    between atoms: C_9  and  N_10
REMARK    6  A    between atoms: N_10  and  C_11
REMARK    7  A    between atoms: N_14  and  C_15
REMARK    8  A    between atoms: C_15  and  C_17
REMARK    9  A    between atoms: C_15  and  C_20
REMARK   10  A    between atoms: C_17  and  C_18
REMARK   11  A    between atoms: C_17  and  C_19
REMARK   12  A    between atoms: N_22  and  C_23
REMARK   13  A    between atoms: C_23  and  C_25
REMARK   14  A    between atoms: C_23  and  C_32
REMARK   15  A    between atoms: C_25  and  C_26
REMARK   16  A    between atoms: C_32  and  C_33
REMARK   17  A    between atoms: C_33  and  C_35
REMARK   18  A    between atoms: C_33  and  O_54
REMARK   19  A    between atoms: C_35  and  C_37
REMARK   20  A    between atoms: C_35  and  N_44
REMARK   21  A    between atoms: C_37  and  C_38
REMARK   22  A    between atoms: C_45  and  O_47
REMARK   23  A    between atoms: O_47  and  C_48
REMARK   24  A    between atoms: C_48  and  C_49
REMARK                            x       y       z     vdW  Elec       q    Type
REMARK                         _______ _______ _______ _____ _____    ______ ____
ROOT
ATOM      1  C   UNL     1       8.131  -0.365  23.145  0.00  0.00    +0.080 C 
ENDROOT
BRANCH   1   3
ATOM      2  C   UNL     1       7.900  -0.965  25.600  0.00  0.00    +0.234 C 
ATOM      3  N   UNL     1       7.353  -0.756  24.340  0.00  0.00    -0.311 N 
ATOM      4  H   UNL     1       6.371  -0.964  24.209  0.00  0.00    +0.149 HD
ATOM      5  O   UNL     1       9.104  -0.860  25.829  0.00  0.00    -0.274 OA
BRANCH   2   6
ATOM      6  C   UNL     1       6.868  -1.345  26.710  0.00  0.00    +0.163 C 
BRANCH   6   9
ATOM      7  N   UNL     1       5.036  -4.509  26.027  0.00  0.00    -0.283 N 
ATOM      8  C   UNL     1       5.991  -3.661  26.545  0.00  0.00    +0.303 C 
ATOM      9  N   UNL     1       5.889  -2.333  26.227  0.00  0.00    -0.288 N 
ATOM     10  H   UNL     1       5.330  -2.057  25.435  0.00  0.00    +0.151 HD
ATOM     11  O   UNL     1       6.896  -4.072  27.283  0.00  0.00    -0.253 OA
ATOM     12  C   UNL     1       3.903  -4.090  25.211  0.00  0.00    +0.134 C 
BRANCH   7  13
ATOM     13  C   UNL     1       5.222  -5.952  26.203  0.00  0.00    +0.164 C 
BRANCH  13  17
ATOM     14  C   UNL     1       2.442  -7.989  25.057  0.00  0.00    +0.081 A 
ATOM     15  S   UNL     1       1.595  -7.651  26.518  0.00  0.00    -0.080 S 
ATOM     16  C   UNL     1       2.894  -6.667  27.035  0.00  0.00    +0.071 A 
ATOM     17  C   UNL     1       3.911  -6.679  26.098  0.00  0.00    +0.066 A 
ATOM     18  N   UNL     1       3.647  -7.461  24.973  0.00  0.00    -0.247 NA
BRANCH  14  20
ATOM     19  C   UNL     1       0.603  -9.579  24.543  0.00  0.00    +0.014 C 
ATOM     20  C   UNL     1       1.762  -8.769  23.958  0.00  0.00    +0.038 C 
ATOM     21  C   UNL     1       1.272  -7.861  22.832  0.00  0.00    +0.014 C 
ENDBRANCH  14  20
ENDBRANCH  13  17
ENDBRANCH   7  13
ENDBRANCH   6   9
BRANCH   6  22
ATOM     22  C   UNL     1       6.179  -0.104  27.330  0.00  0.00    +0.012 C 
ATOM     23  C   UNL     1       4.838   0.209  26.661  0.00  0.00    +0.009 C 
ATOM     24  C   UNL     1       7.059   1.143  27.294  0.00  0.00    +0.009 C 
ENDBRANCH   6  22
ENDBRANCH   2   6
ENDBRANCH   1   3
BRANCH   1  25
ATOM     25  C   UNL     1       7.346   0.710  22.332  0.00  0.00    +0.055 C 
BRANCH  25  26
ATOM     26  C   UNL     1       8.202   1.785  21.618  0.00  0.00    +0.137 C 
BRANCH  26  27
ATOM     27  O   UNL     1       9.544   1.278  21.539  0.00  0.00    -0.390 OA
ATOM     28  H   UNL     1       9.857   1.097  22.443  0.00  0.00    +0.210 HD
ENDBRANCH  26  27
BRANCH  26  29
ATOM     29  C   UNL     1       8.254   3.156  22.379  0.00  0.00    +0.109 C 
BRANCH  29  30
ATOM     30  N   UNL     1       6.907   3.721  22.575  0.00  0.00    -0.275 N 
ATOM     31  H   UNL     1       6.226   3.176  23.084  0.00  0.00    +0.152 HD
ATOM     32  C   UNL     1       6.572   5.019  22.338  0.00  0.00    +0.401 C 
ATOM     33  O   UNL     1       7.326   5.864  21.878  0.00  0.00    -0.226 OA
BRANCH  32  34
ATOM     34  O   UNL     1       5.292   5.247  22.731  0.00  0.00    -0.445 OA
BRANCH  34  35
ATOM     35  C   UNL     1       4.817   4.383  23.763  0.00  0.00    +0.278 C 
BRANCH  35  36
ATOM     36  C   UNL     1       3.448   3.888  23.436  0.00  0.00    +0.046 A 
ATOM     37  S   UNL     1       2.876   3.833  21.817  0.00  0.00    -0.077 S 
ATOM     38  C   UNL     1       1.477   2.999  22.352  0.00  0.00    +0.156 A 
ATOM     39  N   UNL     1       1.383   2.803  23.648  0.00  0.00    -0.255 NA
ATOM     40  C   UNL     1       2.504   3.317  24.271  0.00  0.00    +0.125 A 
ENDBRANCH  35  36
ENDBRANCH  34  35
ENDBRANCH  32  34
ENDBRANCH  29  30
BRANCH  29  41
ATOM     41  C   UNL     1       9.040   3.120  23.719  0.00  0.00    +0.060 C 
BRANCH  41  42
ATOM     42  C   UNL     1      10.130   4.172  23.744  0.00  0.00    -0.046 A 
ATOM     43  C   UNL     1       9.875   5.423  24.320  0.00  0.00    +0.004 A 
ATOM     44  C   UNL     1      10.898   6.362  24.453  0.00  0.00    +0.000 A 
ATOM     45  C   UNL     1      12.184   6.063  24.006  0.00  0.00    +0.000 A 
ATOM     46  C   UNL     1      12.442   4.831  23.407  0.00  0.00    +0.000 A 
ATOM     47  C   UNL     1      11.419   3.892  23.267  0.00  0.00    +0.004 A 
ENDBRANCH  41  42
ENDBRANCH  29  41
ENDBRANCH  26  29
ENDBRANCH  25  26
ENDBRANCH   1  25
BRANCH   1  48
ATOM     48  C   UNL     1       8.602  -1.592  22.313  0.00  0.00    +0.057 C 
BRANCH  48  49
ATOM     49  C   UNL     1       7.863  -2.890  22.550  0.00  0.00    -0.046 A 
ATOM     50  C   UNL     1       6.632  -3.119  21.924  0.00  0.00    +0.004 A 
ATOM     51  C   UNL     1       5.972  -4.342  22.061  0.00  0.00    +0.000 A 
ATOM     52  C   UNL     1       6.521  -5.346  22.854  0.00  0.00    +0.000 A 
ATOM     53  C   UNL     1       7.707  -5.108  23.539  0.00  0.00    +0.000 A 
ATOM     54  C   UNL     1       8.359  -3.883  23.403  0.00  0.00    +0.004 A 
ENDBRANCH  48  49
ENDBRANCH   1  48
TORSDOF 19
ENDMDL
MODEL 9
REMARK VINA RESULT:      -6.6      2.615      6.347
REMARK  Name = 
REMARK  24 active torsions:
REMARK  status: ('A' for Active; 'I' for Inactive)
REMARK    1  A    between atoms: C_1  and  C_2
REMARK    2  A    between atoms: C_2  and  C_3
REMARK    3  A    between atoms: C_2  and  C_4
REMARK    4  A    between atoms: C_6  and  C_9
REMARK    5  A    between atoms: C_9  and  N_10
REMARK    6  A    between atoms: N_10  and  C_11
REMARK    7  A    between atoms: N_14  and  C_15
REMARK    8  A    between atoms: C_15  and  C_17
REMARK    9  A    between atoms: C_15  and  C_20
REMARK   10  A    between atoms: C_17  and  C_18
REMARK   11  A    between atoms: C_17  and  C_19
REMARK   12  A    between atoms: N_22  and  C_23
REMARK   13  A    between atoms: C_23  and  C_25
REMARK   14  A    between atoms: C_23  and  C_32
REMARK   15  A    between atoms: C_25  and  C_26
REMARK   16  A    between atoms: C_32  and  C_33
REMARK   17  A    between atoms: C_33  and  C_35
REMARK   18  A    between atoms: C_33  and  O_54
REMARK   19  A    between atoms: C_35  and  C_37
REMARK   20  A    between atoms: C_35  and  N_44
REMARK   21  A    between atoms: C_37  and  C_38
REMARK   22  A    between atoms: C_45  and  O_47
REMARK   23  A    between atoms: O_47  and  C_48
REMARK   24  A    between atoms: C_48  and  C_49
REMARK                            x       y       z     vdW  Elec       q    Type
REMARK                         _______ _______ _______ _____ _____    ______ ____
ROOT
ATOM      1  C   UNL     1       5.198  -1.628  26.261  0.00  0.00    +0.080 C 
ENDROOT
BRANCH   1   3
ATOM      2  C   UNL     1       4.811   0.511  27.570  0.00  0.00    +0.234 C 
ATOM      3  N   UNL     1       4.511  -0.345  26.518  0.00  0.00    -0.311 N 
ATOM      4  H   UNL     1       3.715  -0.118  25.935  0.00  0.00    +0.149 HD
ATOM      5  O   UNL     1       5.678   0.261  28.406  0.00  0.00    -0.274 OA
BRANCH   2   6
ATOM      6  C   UNL     1       3.963   1.823  27.614  0.00  0.00    +0.163 C 
BRANCH   6   9
ATOM      7  N   UNL     1       5.214   3.922  24.810  0.00  0.00    -0.283 N 
ATOM      8  C   UNL     1       4.588   2.878  25.456  0.00  0.00    +0.303 C 
ATOM      9  N   UNL     1       4.585   2.899  26.825  0.00  0.00    -0.288 N 
ATOM     10  H   UNL     1       5.249   3.482  27.311  0.00  0.00    +0.151 HD
ATOM     11  O   UNL     1       4.033   1.964  24.831  0.00  0.00    -0.253 OA
ATOM     12  C   UNL     1       5.826   5.066  25.474  0.00  0.00    +0.134 C 
BRANCH   7  13
ATOM     13  C   UNL     1       5.387   3.833  23.357  0.00  0.00    +0.164 C 
BRANCH  13  17
ATOM     14  C   UNL     1       2.403   4.228  21.324  0.00  0.00    +0.081 A 
ATOM     15  S   UNL     1       2.363   5.905  21.713  0.00  0.00    -0.080 S 
ATOM     16  C   UNL     1       3.787   5.716  22.641  0.00  0.00    +0.071 A 
ATOM     17  C   UNL     1       4.192   4.394  22.639  0.00  0.00    +0.066 A 
ATOM     18  N   UNL     1       3.375   3.543  21.895  0.00  0.00    -0.247 NA
BRANCH  14  20
ATOM     19  C   UNL     1       1.925   3.919  18.905  0.00  0.00    +0.014 C 
ATOM     20  C   UNL     1       1.420   3.664  20.327  0.00  0.00    +0.038 C 
ATOM     21  C   UNL     1       1.167   2.175  20.552  0.00  0.00    +0.014 C 
ENDBRANCH  14  20
ENDBRANCH  13  17
ENDBRANCH   7  13
ENDBRANCH   6   9
BRANCH   6  22
ATOM     22  C   UNL     1       3.646   2.276  29.061  0.00  0.00    +0.012 C 
ATOM     23  C   UNL     1       2.613   1.374  29.739  0.00  0.00    +0.009 C 
ATOM     24  C   UNL     1       3.172   3.726  29.138  0.00  0.00    +0.009 C 
ENDBRANCH   6  22
ENDBRANCH   2   6
ENDBRANCH   1   3
BRANCH   1  25
ATOM     25  C   UNL     1       6.702  -1.368  25.938  0.00  0.00    +0.055 C 
BRANCH  25  26
ATOM     26  C   UNL     1       6.991  -0.472  24.709  0.00  0.00    +0.137 C 
BRANCH  26  27
ATOM     27  O   UNL     1       5.731  -0.208  24.069  0.00  0.00    -0.390 OA
ATOM     28  H   UNL     1       5.548  -0.930  23.443  0.00  0.00    +0.210 HD
ENDBRANCH  26  27
BRANCH  26  29
ATOM     29  C   UNL     1       7.933  -1.141  23.649  0.00  0.00    +0.109 C 
BRANCH  29  30
ATOM     30  N   UNL     1       9.102  -0.295  23.349  0.00  0.00    -0.275 N 
ATOM     31  H   UNL     1       9.176   0.113  22.428  0.00  0.00    +0.152 HD
ATOM     32  C   UNL     1       9.972   0.181  24.282  0.00  0.00    +0.401 C 
ATOM     33  O   UNL     1       9.930  -0.080  25.476  0.00  0.00    -0.226 OA
BRANCH  32  34
ATOM     34  O   UNL     1      10.863   1.022  23.699  0.00  0.00    -0.445 OA
BRANCH  34  35
ATOM     35  C   UNL     1      10.295   1.963  22.787  0.00  0.00    +0.278 C 
BRANCH  35  36
ATOM     36  C   UNL     1      10.270   3.325  23.396  0.00  0.00    +0.046 A 
ATOM     37  S   UNL     1      11.639   4.361  23.333  0.00  0.00    -0.077 S 
ATOM     38  C   UNL     1      10.693   5.630  23.992  0.00  0.00    +0.156 A 
ATOM     39  N   UNL     1       9.452   5.325  24.298  0.00  0.00    -0.255 NA
ATOM     40  C   UNL     1       9.210   4.006  23.965  0.00  0.00    +0.125 A 
ENDBRANCH  35  36
ENDBRANCH  34  35
ENDBRANCH  32  34
ENDBRANCH  29  30
BRANCH  29  41
ATOM     41  C   UNL     1       8.374  -2.589  24.000  0.00  0.00    +0.060 C 
BRANCH  41  42
ATOM     42  C   UNL     1       7.571  -3.611  23.220  0.00  0.00    -0.046 A 
ATOM     43  C   UNL     1       6.622  -3.179  22.284  0.00  0.00    +0.004 A 
ATOM     44  C   UNL     1       5.954  -4.101  21.477  0.00  0.00    +0.000 A 
ATOM     45  C   UNL     1       6.225  -5.463  21.602  0.00  0.00    +0.000 A 
ATOM     46  C   UNL     1       7.148  -5.904  22.548  0.00  0.00    +0.000 A 
ATOM     47  C   UNL     1       7.812  -4.985  23.361  0.00  0.00    +0.004 A 
ENDBRANCH  41  42
ENDBRANCH  29  41
ENDBRANCH  26  29
ENDBRANCH  25  26
ENDBRANCH   1  25
BRANCH   1  48
ATOM     48  C   UNL     1       4.452  -2.505  25.214  0.00  0.00    +0.057 C 
BRANCH  48  49
ATOM     49  C   UNL     1       4.608  -4.003  25.357  0.00  0.00    -0.046 A 
ATOM     50  C   UNL     1       3.857  -4.864  24.548  0.00  0.00    +0.004 A 
ATOM     51  C   UNL     1       4.043  -6.247  24.602  0.00  0.00    +0.000 A 
ATOM     52  C   UNL     1       4.964  -6.791  25.492  0.00  0.00    +0.000 A 
ATOM     53  C   UNL     1       5.666  -5.955  26.353  0.00  0.00    +0.000 A 
ATOM     54  C   UNL     1       5.472  -4.574  26.297  0.00  0.00    +0.004 A 
ENDBRANCH  48  49
ENDBRANCH   1  48
TORSDOF 19
ENDMDL
