MODEL 1
REMARK VINA RESULT:      -7.1      0.000      0.000
REMARK  Name = 
REMARK  16 active torsions:
REMARK  status: ('A' for Active; 'I' for Inactive)
REMARK    1  A    between atoms: C_1  and  C_2
REMARK    2  A    between atoms: C_2  and  C_3
REMARK    3  A    between atoms: C_2  and  C_4
REMARK    4  A    between atoms: C_4  and  N_5
REMARK    5  A    between atoms: N_5  and  C_6
REMARK    6  A    between atoms: N_5  and  S_31
REMARK    7  A    between atoms: C_6  and  C_7
REMARK    8  A    between atoms: C_7  and  C_8
REMARK    9  A    between atoms: C_7  and  O_30
REMARK   10  A    between atoms: C_8  and  C_9
REMARK   11  A    between atoms: C_8  and  N_16
REMARK   12  A    between atoms: C_9  and  C_10
REMARK   13  A    between atoms: C_17  and  O_19
REMARK   14  A    between atoms: O_19  and  C_20
REMARK   15  A    between atoms: S_31  and  C_34
REMARK   16  A    between atoms: C_37  and  N_40
REMARK                            x       y       z     vdW  Elec       q    Type
REMARK                         _______ _______ _______ _____ _____    ______ ____
ROOT
ATOM      1  C   UNL     1       8.207  -1.366  26.748  0.00  0.00    +0.151 C 
ENDROOT
BRANCH   1   2
ATOM      2  O   UNL     1       9.083  -0.470  27.463  0.00  0.00    -0.389 OA
ATOM      3  H   UNL     1       8.582   0.354  27.606  0.00  0.00    +0.210 HD
ENDBRANCH   1   2
BRANCH   1   4
ATOM      4  C   UNL     1       6.748  -0.916  26.915  0.00  0.00    +0.142 C 
BRANCH   4   5
ATOM      5  N   UNL     1       6.465   0.586  26.585  0.00  0.00    -0.174 NA
BRANCH   5   6
ATOM      6  S   UNL     1       5.532   0.683  25.100  0.00  0.00    +0.061 S 
ATOM      7  O   UNL     1       4.245   1.240  25.470  0.00  0.00    -0.153 OA
ATOM      8  O   UNL     1       5.603  -0.551  24.352  0.00  0.00    -0.153 OA
BRANCH   6   9
ATOM      9  C   UNL     1       6.400   1.933  24.176  0.00  0.00    +0.106 A 
ATOM     10  C   UNL     1       6.183   2.056  22.800  0.00  0.00    +0.030 A 
ATOM     11  C   UNL     1       6.660   3.185  22.129  0.00  0.00    +0.024 A 
ATOM     12  C   UNL     1       7.297   4.211  22.832  0.00  0.00    +0.025 A 
ATOM     13  C   UNL     1       7.618   4.008  24.178  0.00  0.00    +0.024 A 
ATOM     14  C   UNL     1       7.177   2.870  24.853  0.00  0.00    +0.030 A 
BRANCH  12  15
ATOM     15  N   UNL     1       7.795   5.330  22.159  0.00  0.00    -0.358 N 
ATOM     16  H   UNL     1       8.240   6.011  22.767  0.00  0.00    +0.142 HD
ATOM     17  H   UNL     1       8.377   5.095  21.360  0.00  0.00    +0.142 HD
ENDBRANCH  12  15
ENDBRANCH   6   9
ENDBRANCH   5   6
BRANCH   5  18
ATOM     18  C   UNL     1       6.032   1.431  27.777  0.00  0.00    +0.112 C 
BRANCH  18  20
ATOM     19  C   UNL     1       6.633   3.788  28.541  0.00  0.00    +0.008 C 
ATOM     20  C   UNL     1       7.087   2.314  28.511  0.00  0.00    -0.001 C 
ATOM     21  C   UNL     1       7.402   1.901  29.954  0.00  0.00    +0.008 C 
ENDBRANCH  18  20
ENDBRANCH   5  18
ENDBRANCH   4   5
ENDBRANCH   1   4
BRANCH   1  22
ATOM     22  C   UNL     1       8.752  -1.496  25.280  0.00  0.00    +0.110 C 
BRANCH  22  23
ATOM     23  N   UNL     1       8.591  -2.862  24.699  0.00  0.00    -0.275 N 
ATOM     24  H   UNL     1       9.000  -3.599  25.264  0.00  0.00    +0.152 HD
ATOM     25  C   UNL     1       8.213  -3.314  23.476  0.00  0.00    +0.401 C 
ATOM     26  O   UNL     1       7.797  -2.645  22.549  0.00  0.00    -0.226 OA
BRANCH  25  27
ATOM     27  O   UNL     1       8.386  -4.661  23.473  0.00  0.00    -0.444 OA
BRANCH  27  28
ATOM     28  C   UNL     1       7.323  -5.589  23.124  0.00  0.00    +0.212 C 
ATOM     29  C   UNL     1       6.032  -4.959  23.600  0.00  0.00    +0.090 C 
ATOM     30  C   UNL     1       5.208  -5.309  24.805  0.00  0.00    +0.040 C 
ATOM     31  C   UNL     1       3.885  -4.643  24.374  0.00  0.00    +0.163 C 
ATOM     32  O   UNL     1       3.872  -4.637  22.916  0.00  0.00    -0.351 OA
ATOM     33  C   UNL     1       5.044  -5.355  22.542  0.00  0.00    +0.257 C 
ATOM     34  O   UNL     1       5.743  -5.055  21.349  0.00  0.00    -0.347 OA
ATOM     35  C   UNL     1       7.064  -5.633  21.593  0.00  0.00    +0.208 C 
ENDBRANCH  27  28
ENDBRANCH  25  27
ENDBRANCH  22  23
BRANCH  22  36
ATOM     36  C   UNL     1      10.122  -0.830  24.968  0.00  0.00    +0.060 C 
BRANCH  36  37
ATOM     37  C   UNL     1      10.179   0.292  23.932  0.00  0.00    -0.046 A 
ATOM     38  C   UNL     1      10.667   1.580  24.199  0.00  0.00    +0.004 A 
ATOM     39  C   UNL     1      10.683   2.569  23.210  0.00  0.00    +0.000 A 
ATOM     40  C   UNL     1      10.177   2.308  21.936  0.00  0.00    +0.000 A 
ATOM     41  C   UNL     1       9.632   1.057  21.668  0.00  0.00    +0.000 A 
ATOM     42  C   UNL     1       9.627   0.065  22.655  0.00  0.00    +0.004 A 
ENDBRANCH  36  37
ENDBRANCH  22  36
ENDBRANCH   1  22
TORSDOF 14
ENDMDL
MODEL 2
REMARK VINA RESULT:      -7.0      3.107      8.154
REMARK  Name = 
REMARK  16 active torsions:
REMARK  status: ('A' for Active; 'I' for Inactive)
REMARK    1  A    between atoms: C_1  and  C_2
REMARK    2  A    between atoms: C_2  and  C_3
REMARK    3  A    between atoms: C_2  and  C_4
REMARK    4  A    between atoms: C_4  and  N_5
REMARK    5  A    between atoms: N_5  and  C_6
REMARK    6  A    between atoms: N_5  and  S_31
REMARK    7  A    between atoms: C_6  and  C_7
REMARK    8  A    between atoms: C_7  and  C_8
REMARK    9  A    between atoms: C_7  and  O_30
REMARK   10  A    between atoms: C_8  and  C_9
REMARK   11  A    between atoms: C_8  and  N_16
REMARK   12  A    between atoms: C_9  and  C_10
REMARK   13  A    between atoms: C_17  and  O_19
REMARK   14  A    between atoms: O_19  and  C_20
REMARK   15  A    between atoms: S_31  and  C_34
REMARK   16  A    between atoms: C_37  and  N_40
REMARK                            x       y       z     vdW  Elec       q    Type
REMARK                         _______ _______ _______ _____ _____    ______ ____
ROOT
ATOM      1  C   UNL     1       9.069  -0.955  26.210  0.00  0.00    +0.151 C 
ENDROOT
BRANCH   1   2
ATOM      2  O   UNL     1       9.353  -0.393  27.507  0.00  0.00    -0.389 OA
ATOM      3  H   UNL     1       9.586  -1.138  28.090  0.00  0.00    +0.210 HD
ENDBRANCH   1   2
BRANCH   1   4
ATOM      4  C   UNL     1       8.111  -2.148  26.354  0.00  0.00    +0.142 C 
BRANCH   4   5
ATOM      5  N   UNL     1       7.800  -2.924  25.033  0.00  0.00    -0.174 NA
BRANCH   5   6
ATOM      6  S   UNL     1       8.181  -4.624  25.261  0.00  0.00    +0.061 S 
ATOM      7  O   UNL     1       8.777  -4.728  26.579  0.00  0.00    -0.153 OA
ATOM      8  O   UNL     1       8.862  -5.170  24.110  0.00  0.00    -0.153 OA
BRANCH   6   9
ATOM      9  C   UNL     1       6.570  -5.376  25.352  0.00  0.00    +0.106 A 
ATOM     10  C   UNL     1       5.938  -5.807  24.180  0.00  0.00    +0.030 A 
ATOM     11  C   UNL     1       4.803  -6.618  24.274  0.00  0.00    +0.024 A 
ATOM     12  C   UNL     1       4.337  -7.045  25.520  0.00  0.00    +0.025 A 
ATOM     13  C   UNL     1       4.903  -6.497  26.676  0.00  0.00    +0.024 A 
ATOM     14  C   UNL     1       6.014  -5.658  26.597  0.00  0.00    +0.030 A 
BRANCH  12  15
ATOM     15  N   UNL     1       3.189  -7.837  25.615  0.00  0.00    -0.358 N 
ATOM     16  H   UNL     1       2.529  -7.521  26.319  0.00  0.00    +0.142 HD
ATOM     17  H   UNL     1       2.739  -8.006  24.720  0.00  0.00    +0.142 HD
ENDBRANCH  12  15
ENDBRANCH   6   9
ENDBRANCH   5   6
BRANCH   5  18
ATOM     18  C   UNL     1       6.479  -2.554  24.370  0.00  0.00    +0.112 C 
BRANCH  18  20
ATOM     19  C   UNL     1       7.913  -2.011  22.335  0.00  0.00    +0.008 C 
ATOM     20  C   UNL     1       6.472  -2.117  22.873  0.00  0.00    -0.001 C 
ATOM     21  C   UNL     1       5.693  -3.034  21.923  0.00  0.00    +0.008 C 
ENDBRANCH  18  20
ENDBRANCH   5  18
ENDBRANCH   4   5
ENDBRANCH   1   4
BRANCH   1  22
ATOM     22  C   UNL     1       8.614   0.218  25.270  0.00  0.00    +0.110 C 
BRANCH  22  23
ATOM     23  N   UNL     1       9.720   1.145  24.888  0.00  0.00    -0.275 N 
ATOM     24  H   UNL     1       9.941   1.836  25.598  0.00  0.00    +0.152 HD
ATOM     25  C   UNL     1      10.349   1.410  23.714  0.00  0.00    +0.401 C 
ATOM     26  O   UNL     1      10.195   0.827  22.658  0.00  0.00    -0.226 OA
BRANCH  25  27
ATOM     27  O   UNL     1      11.188   2.454  23.933  0.00  0.00    -0.444 OA
BRANCH  27  28
ATOM     28  C   UNL     1      11.114   3.695  23.179  0.00  0.00    +0.212 C 
ATOM     29  C   UNL     1      10.088   4.559  23.881  0.00  0.00    +0.090 C 
ATOM     30  C   UNL     1       8.674   4.855  23.472  0.00  0.00    +0.040 C 
ATOM     31  C   UNL     1       8.451   6.118  24.328  0.00  0.00    +0.163 C 
ATOM     32  O   UNL     1       9.760   6.732  24.522  0.00  0.00    -0.351 OA
ATOM     33  C   UNL     1      10.647   5.945  23.733  0.00  0.00    +0.257 C 
ATOM     34  O   UNL     1      12.001   5.765  24.106  0.00  0.00    -0.347 OA
ATOM     35  C   UNL     1      12.386   4.567  23.360  0.00  0.00    +0.208 C 
ENDBRANCH  27  28
ENDBRANCH  25  27
ENDBRANCH  22  23
BRANCH  22  36
ATOM     36  C   UNL     1       7.278   0.933  25.619  0.00  0.00    +0.060 C 
BRANCH  36  37
ATOM     37  C   UNL     1       6.592   1.782  24.549  0.00  0.00    -0.046 A 
ATOM     38  C   UNL     1       6.767   1.595  23.170  0.00  0.00    +0.004 A 
ATOM     39  C   UNL     1       6.119   2.414  22.238  0.00  0.00    +0.000 A 
ATOM     40  C   UNL     1       5.308   3.467  22.662  0.00  0.00    +0.000 A 
ATOM     41  C   UNL     1       5.169   3.708  24.025  0.00  0.00    +0.000 A 
ATOM     42  C   UNL     1       5.809   2.881  24.955  0.00  0.00    +0.004 A 
ENDBRANCH  36  37
ENDBRANCH  22  36
ENDBRANCH   1  22
TORSDOF 14
ENDMDL
MODEL 3
REMARK VINA RESULT:      -6.9      2.853      6.862
REMARK  Name = 
REMARK  16 active torsions:
REMARK  status: ('A' for Active; 'I' for Inactive)
REMARK    1  A    between atoms: C_1  and  C_2
REMARK    2  A    between atoms: C_2  and  C_3
REMARK    3  A    between atoms: C_2  and  C_4
REMARK    4  A    between atoms: C_4  and  N_5
REMARK    5  A    between atoms: N_5  and  C_6
REMARK    6  A    between atoms: N_5  and  S_31
REMARK    7  A    between atoms: C_6  and  C_7
REMARK    8  A    between atoms: C_7  and  C_8
REMARK    9  A    between atoms: C_7  and  O_30
REMARK   10  A    between atoms: C_8  and  C_9
REMARK   11  A    between atoms: C_8  and  N_16
REMARK   12  A    between atoms: C_9  and  C_10
REMARK   13  A    between atoms: C_17  and  O_19
REMARK   14  A    between atoms: O_19  and  C_20
REMARK   15  A    between atoms: S_31  and  C_34
REMARK   16  A    between atoms: C_37  and  N_40
REMARK                            x       y       z     vdW  Elec       q    Type
REMARK                         _______ _______ _______ _____ _____    ______ ____
ROOT
ATOM      1  C   UNL     1       7.488  -4.801  26.398  0.00  0.00    +0.151 C 
ENDROOT
BRANCH   1   2
ATOM      2  O   UNL     1       7.991  -5.602  27.487  0.00  0.00    -0.389 OA
ATOM      3  H   UNL     1       7.240  -5.764  28.086  0.00  0.00    +0.210 HD
ENDBRANCH   1   2
BRANCH   1   4
ATOM      4  C   UNL     1       6.802  -3.542  26.949  0.00  0.00    +0.142 C 
BRANCH   4   5
ATOM      5  N   UNL     1       5.834  -2.816  25.958  0.00  0.00    -0.174 NA
BRANCH   5   6
ATOM      6  S   UNL     1       4.179  -3.265  26.337  0.00  0.00    +0.061 S 
ATOM      7  O   UNL     1       3.376  -2.081  26.098  0.00  0.00    -0.153 OA
ATOM      8  O   UNL     1       4.097  -3.955  27.603  0.00  0.00    -0.153 OA
BRANCH   6   9
ATOM      9  C   UNL     1       3.788  -4.433  25.051  0.00  0.00    +0.106 A 
ATOM     10  C   UNL     1       4.440  -5.670  25.015  0.00  0.00    +0.030 A 
ATOM     11  C   UNL     1       3.957  -6.674  24.171  0.00  0.00    +0.024 A 
ATOM     12  C   UNL     1       2.799  -6.469  23.415  0.00  0.00    +0.025 A 
ATOM     13  C   UNL     1       2.243  -5.187  23.367  0.00  0.00    +0.024 A 
ATOM     14  C   UNL     1       2.736  -4.165  24.178  0.00  0.00    +0.030 A 
BRANCH  12  15
ATOM     15  N   UNL     1       2.328  -7.464  22.553  0.00  0.00    -0.358 N 
ATOM     16  H   UNL     1       2.953  -7.667  21.779  0.00  0.00    +0.142 HD
ATOM     17  H   UNL     1       2.032  -8.308  23.035  0.00  0.00    +0.142 HD
ENDBRANCH  12  15
ENDBRANCH   6   9
ENDBRANCH   5   6
BRANCH   5  18
ATOM     18  C   UNL     1       6.154  -1.347  25.713  0.00  0.00    +0.112 C 
BRANCH  18  20
ATOM     19  C   UNL     1       7.434   0.768  26.335  0.00  0.00    +0.008 C 
ATOM     20  C   UNL     1       6.715  -0.482  26.883  0.00  0.00    -0.001 C 
ATOM     21  C   UNL     1       5.677  -0.003  27.905  0.00  0.00    +0.008 C 
ENDBRANCH  18  20
ENDBRANCH   5  18
ENDBRANCH   4   5
ENDBRANCH   1   4
BRANCH   1  22
ATOM     22  C   UNL     1       8.664  -4.587  25.379  0.00  0.00    +0.110 C 
BRANCH  22  23
ATOM     23  N   UNL     1       9.041  -3.155  25.189  0.00  0.00    -0.275 N 
ATOM     24  H   UNL     1       8.476  -2.507  25.728  0.00  0.00    +0.152 HD
ATOM     25  C   UNL     1       9.826  -2.512  24.288  0.00  0.00    +0.401 C 
ATOM     26  O   UNL     1      10.523  -3.024  23.433  0.00  0.00    -0.226 OA
BRANCH  25  27
ATOM     27  O   UNL     1       9.690  -1.180  24.513  0.00  0.00    -0.444 OA
BRANCH  27  28
ATOM     28  C   UNL     1      10.349  -0.173  23.698  0.00  0.00    +0.212 C 
ATOM     29  C   UNL     1       9.249   0.618  23.024  0.00  0.00    +0.090 C 
ATOM     30  C   UNL     1       8.780   0.546  21.600  0.00  0.00    +0.040 C 
ATOM     31  C   UNL     1       8.049   1.903  21.534  0.00  0.00    +0.163 C 
ATOM     32  O   UNL     1       8.698   2.778  22.503  0.00  0.00    -0.351 OA
ATOM     33  C   UNL     1       9.795   2.016  22.999  0.00  0.00    +0.257 C 
ATOM     34  O   UNL     1      10.266   2.179  24.324  0.00  0.00    -0.347 OA
ATOM     35  C   UNL     1      11.006   0.940  24.560  0.00  0.00    +0.208 C 
ENDBRANCH  27  28
ENDBRANCH  25  27
ENDBRANCH  22  23
BRANCH  22  36
ATOM     36  C   UNL     1       8.624  -5.414  24.063  0.00  0.00    +0.060 C 
BRANCH  36  37
ATOM     37  C   UNL     1       7.567  -5.079  23.011  0.00  0.00    -0.046 A 
ATOM     38  C   UNL     1       6.931  -3.833  22.910  0.00  0.00    +0.004 A 
ATOM     39  C   UNL     1       5.962  -3.590  21.930  0.00  0.00    +0.000 A 
ATOM     40  C   UNL     1       5.575  -4.601  21.049  0.00  0.00    +0.000 A 
ATOM     41  C   UNL     1       6.149  -5.862  21.171  0.00  0.00    +0.000 A 
ATOM     42  C   UNL     1       7.127  -6.099  22.144  0.00  0.00    +0.004 A 
ENDBRANCH  36  37
ENDBRANCH  22  36
ENDBRANCH   1  22
TORSDOF 14
ENDMDL
MODEL 4
REMARK VINA RESULT:      -6.9      1.934      3.232
REMARK  Name = 
REMARK  16 active torsions:
REMARK  status: ('A' for Active; 'I' for Inactive)
REMARK    1  A    between atoms: C_1  and  C_2
REMARK    2  A    between atoms: C_2  and  C_3
REMARK    3  A    between atoms: C_2  and  C_4
REMARK    4  A    between atoms: C_4  and  N_5
REMARK    5  A    between atoms: N_5  and  C_6
REMARK    6  A    between atoms: N_5  and  S_31
REMARK    7  A    between atoms: C_6  and  C_7
REMARK    8  A    between atoms: C_7  and  C_8
REMARK    9  A    between atoms: C_7  and  O_30
REMARK   10  A    between atoms: C_8  and  C_9
REMARK   11  A    between atoms: C_8  and  N_16
REMARK   12  A    between atoms: C_9  and  C_10
REMARK   13  A    between atoms: C_17  and  O_19
REMARK   14  A    between atoms: O_19  and  C_20
REMARK   15  A    between atoms: S_31  and  C_34
REMARK   16  A    between atoms: C_37  and  N_40
REMARK                            x       y       z     vdW  Elec       q    Type
REMARK                         _______ _______ _______ _____ _____    ______ ____
ROOT
ATOM      1  C   UNL     1       6.709   0.070  27.845  0.00  0.00    +0.151 C 
ENDROOT
BRANCH   1   2
ATOM      2  O   UNL     1       7.935   0.770  28.145  0.00  0.00    -0.389 OA
ATOM      3  H   UNL     1       8.065   0.706  29.109  0.00  0.00    +0.210 HD
ENDBRANCH   1   2
BRANCH   1   4
ATOM      4  C   UNL     1       5.579   1.079  27.593  0.00  0.00    +0.142 C 
BRANCH   4   5
ATOM      5  N   UNL     1       5.978   2.344  26.764  0.00  0.00    -0.174 NA
BRANCH   5   6
ATOM      6  S   UNL     1       5.346   2.187  25.133  0.00  0.00    +0.061 S 
ATOM      7  O   UNL     1       4.490   3.339  24.922  0.00  0.00    -0.153 OA
ATOM      8  O   UNL     1       4.844   0.855  24.889  0.00  0.00    -0.153 OA
BRANCH   6   9
ATOM      9  C   UNL     1       6.797   2.418  24.128  0.00  0.00    +0.106 A 
ATOM     10  C   UNL     1       8.062   2.427  24.726  0.00  0.00    +0.030 A 
ATOM     11  C   UNL     1       9.200   2.353  23.920  0.00  0.00    +0.024 A 
ATOM     12  C   UNL     1       9.081   2.210  22.535  0.00  0.00    +0.025 A 
ATOM     13  C   UNL     1       7.817   2.336  21.951  0.00  0.00    +0.024 A 
ATOM     14  C   UNL     1       6.673   2.445  22.741  0.00  0.00    +0.030 A 
BRANCH  12  15
ATOM     15  N   UNL     1      10.220   2.158  21.726  0.00  0.00    -0.358 N 
ATOM     16  H   UNL     1      10.801   2.988  21.782  0.00  0.00    +0.142 HD
ATOM     17  H   UNL     1      10.760   1.306  21.842  0.00  0.00    +0.142 HD
ENDBRANCH  12  15
ENDBRANCH   6   9
ENDBRANCH   5   6
BRANCH   5  18
ATOM     18  C   UNL     1       5.797   3.669  27.494  0.00  0.00    +0.112 C 
BRANCH  18  20
ATOM     19  C   UNL     1       6.867   5.611  26.236  0.00  0.00    +0.008 C 
ATOM     20  C   UNL     1       6.959   4.710  27.485  0.00  0.00    -0.001 C 
ATOM     21  C   UNL     1       7.028   5.630  28.710  0.00  0.00    +0.008 C 
ENDBRANCH  18  20
ENDBRANCH   5  18
ENDBRANCH   4   5
ENDBRANCH   1   4
BRANCH   1  22
ATOM     22  C   UNL     1       7.016  -0.962  26.701  0.00  0.00    +0.110 C 
BRANCH  22  23
ATOM     23  N   UNL     1       6.366  -2.291  26.901  0.00  0.00    -0.275 N 
ATOM     24  H   UNL     1       6.918  -2.939  27.454  0.00  0.00    +0.152 HD
ATOM     25  C   UNL     1       5.301  -2.901  26.324  0.00  0.00    +0.401 C 
ATOM     26  O   UNL     1       4.527  -2.412  25.523  0.00  0.00    -0.226 OA
BRANCH  25  27
ATOM     27  O   UNL     1       5.253  -4.170  26.805  0.00  0.00    -0.444 OA
BRANCH  27  28
ATOM     28  C   UNL     1       6.195  -5.201  26.400  0.00  0.00    +0.212 C 
ATOM     29  C   UNL     1       6.719  -4.789  25.041  0.00  0.00    +0.090 C 
ATOM     30  C   UNL     1       6.361  -5.343  23.692  0.00  0.00    +0.040 C 
ATOM     31  C   UNL     1       7.584  -4.826  22.905  0.00  0.00    +0.163 C 
ATOM     32  O   UNL     1       8.678  -4.705  23.861  0.00  0.00    -0.351 OA
ATOM     33  C   UNL     1       8.154  -5.227  25.078  0.00  0.00    +0.257 C 
ATOM     34  O   UNL     1       8.585  -4.741  26.335  0.00  0.00    -0.347 OA
ATOM     35  C   UNL     1       7.506  -5.155  27.231  0.00  0.00    +0.208 C 
ENDBRANCH  27  28
ENDBRANCH  25  27
ENDBRANCH  22  23
BRANCH  22  36
ATOM     36  C   UNL     1       8.483  -1.042  26.190  0.00  0.00    +0.060 C 
BRANCH  36  37
ATOM     37  C   UNL     1       8.735  -1.221  24.693  0.00  0.00    -0.046 A 
ATOM     38  C   UNL     1      10.012  -1.333  24.122  0.00  0.00    +0.004 A 
ATOM     39  C   UNL     1      10.178  -1.484  22.741  0.00  0.00    +0.000 A 
ATOM     40  C   UNL     1       9.073  -1.490  21.889  0.00  0.00    +0.000 A 
ATOM     41  C   UNL     1       7.802  -1.319  22.428  0.00  0.00    +0.000 A 
ATOM     42  C   UNL     1       7.637  -1.180  23.811  0.00  0.00    +0.004 A 
ENDBRANCH  36  37
ENDBRANCH  22  36
ENDBRANCH   1  22
TORSDOF 14
ENDMDL
MODEL 5
REMARK VINA RESULT:      -6.8      3.184      7.728
REMARK  Name = 
REMARK  16 active torsions:
REMARK  status: ('A' for Active; 'I' for Inactive)
REMARK    1  A    between atoms: C_1  and  C_2
REMARK    2  A    between atoms: C_2  and  C_3
REMARK    3  A    between atoms: C_2  and  C_4
REMARK    4  A    between atoms: C_4  and  N_5
REMARK    5  A    between atoms: N_5  and  C_6
REMARK    6  A    between atoms: N_5  and  S_31
REMARK    7  A    between atoms: C_6  and  C_7
REMARK    8  A    between atoms: C_7  and  C_8
REMARK    9  A    between atoms: C_7  and  O_30
REMARK   10  A    between atoms: C_8  and  C_9
REMARK   11  A    between atoms: C_8  and  N_16
REMARK   12  A    between atoms: C_9  and  C_10
REMARK   13  A    between atoms: C_17  and  O_19
REMARK   14  A    between atoms: O_19  and  C_20
REMARK   15  A    between atoms: S_31  and  C_34
REMARK   16  A    between atoms: C_37  and  N_40
REMARK                            x       y       z     vdW  Elec       q    Type
REMARK                         _______ _______ _______ _____ _____    ______ ____
ROOT
ATOM      1  C   UNL     1       8.469  -5.181  25.436  0.00  0.00    +0.151 C 
ENDROOT
BRANCH   1   2
ATOM      2  O   UNL     1       9.709  -5.886  25.649  0.00  0.00    -0.389 OA
ATOM      3  H   UNL     1       9.576  -6.793  25.316  0.00  0.00    +0.210 HD
ENDBRANCH   1   2
BRANCH   1   4
ATOM      4  C   UNL     1       8.211  -4.213  26.600  0.00  0.00    +0.142 C 
BRANCH   4   5
ATOM      5  N   UNL     1       6.706  -3.916  26.906  0.00  0.00    -0.174 NA
BRANCH   5   6
ATOM      6  S   UNL     1       6.100  -5.120  28.032  0.00  0.00    +0.061 S 
ATOM      7  O   UNL     1       5.624  -4.385  29.189  0.00  0.00    -0.153 OA
ATOM      8  O   UNL     1       7.038  -6.207  28.197  0.00  0.00    -0.153 OA
BRANCH   6   9
ATOM      9  C   UNL     1       4.667  -5.756  27.188  0.00  0.00    +0.106 A 
ATOM     10  C   UNL     1       4.790  -6.877  26.360  0.00  0.00    +0.030 A 
ATOM     11  C   UNL     1       3.637  -7.523  25.907  0.00  0.00    +0.024 A 
ATOM     12  C   UNL     1       2.374  -7.094  26.323  0.00  0.00    +0.025 A 
ATOM     13  C   UNL     1       2.270  -5.898  27.041  0.00  0.00    +0.024 A 
ATOM     14  C   UNL     1       3.412  -5.223  27.471  0.00  0.00    +0.030 A 
BRANCH  12  15
ATOM     15  N   UNL     1       1.219  -7.725  25.852  0.00  0.00    -0.358 N 
ATOM     16  H   UNL     1       1.061  -7.604  24.856  0.00  0.00    +0.142 HD
ATOM     17  H   UNL     1       1.146  -8.698  26.133  0.00  0.00    +0.142 HD
ENDBRANCH  12  15
ENDBRANCH   6   9
ENDBRANCH   5   6
BRANCH   5  18
ATOM     18  C   UNL     1       6.383  -2.449  27.162  0.00  0.00    +0.112 C 
BRANCH  18  20
ATOM     19  C   UNL     1       5.967  -0.513  25.557  0.00  0.00    +0.008 C 
ATOM     20  C   UNL     1       7.045  -1.355  26.269  0.00  0.00    -0.001 C 
ATOM     21  C   UNL     1       7.976  -0.382  27.002  0.00  0.00    +0.008 C 
ENDBRANCH  18  20
ENDBRANCH   5  18
ENDBRANCH   4   5
ENDBRANCH   1   4
BRANCH   1  22
ATOM     22  C   UNL     1       8.511  -4.567  23.990  0.00  0.00    +0.110 C 
BRANCH  22  23
ATOM     23  N   UNL     1       8.615  -3.078  23.973  0.00  0.00    -0.275 N 
ATOM     24  H   UNL     1       7.756  -2.603  24.231  0.00  0.00    +0.152 HD
ATOM     25  C   UNL     1       9.538  -2.217  23.475  0.00  0.00    +0.401 C 
ATOM     26  O   UNL     1      10.613  -2.504  22.984  0.00  0.00    -0.226 OA
BRANCH  25  27
ATOM     27  O   UNL     1       9.041  -0.962  23.625  0.00  0.00    -0.444 OA
BRANCH  27  28
ATOM     28  C   UNL     1       9.742   0.223  23.160  0.00  0.00    +0.212 C 
ATOM     29  C   UNL     1       8.682   1.273  22.902  0.00  0.00    +0.090 C 
ATOM     30  C   UNL     1       8.129   1.742  21.587  0.00  0.00    +0.040 C 
ATOM     31  C   UNL     1       7.524   3.079  22.063  0.00  0.00    +0.163 C 
ATOM     32  O   UNL     1       8.304   3.508  23.217  0.00  0.00    -0.351 OA
ATOM     33  C   UNL     1       9.352   2.549  23.320  0.00  0.00    +0.257 C 
ATOM     34  O   UNL     1       9.910   2.200  24.573  0.00  0.00    -0.347 OA
ATOM     35  C   UNL     1      10.546   0.912  24.297  0.00  0.00    +0.208 C 
ENDBRANCH  27  28
ENDBRANCH  25  27
ENDBRANCH  22  23
BRANCH  22  36
ATOM     36  C   UNL     1       7.519  -5.147  22.942  0.00  0.00    +0.060 C 
BRANCH  36  37
ATOM     37  C   UNL     1       6.017  -5.018  23.194  0.00  0.00    -0.046 A 
ATOM     38  C   UNL     1       5.065  -5.943  22.741  0.00  0.00    +0.004 A 
ATOM     39  C   UNL     1       3.701  -5.763  22.996  0.00  0.00    +0.000 A 
ATOM     40  C   UNL     1       3.248  -4.633  23.678  0.00  0.00    +0.000 A 
ATOM     41  C   UNL     1       4.170  -3.673  24.082  0.00  0.00    +0.000 A 
ATOM     42  C   UNL     1       5.535  -3.860  23.838  0.00  0.00    +0.004 A 
ENDBRANCH  36  37
ENDBRANCH  22  36
ENDBRANCH   1  22
TORSDOF 14
ENDMDL
MODEL 6
REMARK VINA RESULT:      -6.8      2.731      5.330
REMARK  Name = 
REMARK  16 active torsions:
REMARK  status: ('A' for Active; 'I' for Inactive)
REMARK    1  A    between atoms: C_1  and  C_2
REMARK    2  A    between atoms: C_2  and  C_3
REMARK    3  A    between atoms: C_2  and  C_4
REMARK    4  A    between atoms: C_4  and  N_5
REMARK    5  A    between atoms: N_5  and  C_6
REMARK    6  A    between atoms: N_5  and  S_31
REMARK    7  A    between atoms: C_6  and  C_7
REMARK    8  A    between atoms: C_7  and  C_8
REMARK    9  A    between atoms: C_7  and  O_30
REMARK   10  A    between atoms: C_8  and  C_9
REMARK   11  A    between atoms: C_8  and  N_16
REMARK   12  A    between atoms: C_9  and  C_10
REMARK   13  A    between atoms: C_17  and  O_19
REMARK   14  A    between atoms: O_19  and  C_20
REMARK   15  A    between atoms: S_31  and  C_34
REMARK   16  A    between atoms: C_37  and  N_40
REMARK                            x       y       z     vdW  Elec       q    Type
REMARK                         _______ _______ _______ _____ _____    ______ ____
ROOT
ATOM      1  C   UNL     1       8.135  -2.895  26.118  0.00  0.00    +0.151 C 
ENDROOT
BRANCH   1   2
ATOM      2  O   UNL     1       9.094  -3.505  27.005  0.00  0.00    -0.389 OA
ATOM      3  H   UNL     1       8.596  -3.820  27.781  0.00  0.00    +0.210 HD
ENDBRANCH   1   2
BRANCH   1   4
ATOM      4  C   UNL     1       8.327  -3.430  24.691  0.00  0.00    +0.142 C 
BRANCH   4   5
ATOM      5  N   UNL     1       7.977  -2.426  23.543  0.00  0.00    -0.174 NA
BRANCH   5   6
ATOM      6  S   UNL     1       9.449  -1.997  22.686  0.00  0.00    +0.061 S 
ATOM      7  O   UNL     1       9.151  -2.152  21.274  0.00  0.00    -0.153 OA
ATOM      8  O   UNL     1      10.603  -2.649  23.261  0.00  0.00    -0.153 OA
BRANCH   6   9
ATOM      9  C   UNL     1       9.590  -0.251  23.004  0.00  0.00    +0.106 A 
ATOM     10  C   UNL     1      10.260   0.194  24.149  0.00  0.00    +0.030 A 
ATOM     11  C   UNL     1      10.591   1.546  24.266  0.00  0.00    +0.024 A 
ATOM     12  C   UNL     1      10.310   2.438  23.226  0.00  0.00    +0.025 A 
ATOM     13  C   UNL     1       9.527   1.999  22.154  0.00  0.00    +0.024 A 
ATOM     14  C   UNL     1       9.160   0.658  22.041  0.00  0.00    +0.030 A 
BRANCH  12  15
ATOM     15  N   UNL     1      10.620   3.795  23.353  0.00  0.00    -0.358 N 
ATOM     16  H   UNL     1      10.380   4.348  22.536  0.00  0.00    +0.142 HD
ATOM     17  H   UNL     1      10.271   4.211  24.211  0.00  0.00    +0.142 HD
ENDBRANCH  12  15
ENDBRANCH   6   9
ENDBRANCH   5   6
BRANCH   5  18
ATOM     18  C   UNL     1       6.739  -2.788  22.733  0.00  0.00    +0.112 C 
BRANCH  18  20
ATOM     19  C   UNL     1       4.580  -4.001  23.337  0.00  0.00    +0.008 C 
ATOM     20  C   UNL     1       6.063  -4.177  22.951  0.00  0.00    -0.001 C 
ATOM     21  C   UNL     1       6.114  -5.130  21.751  0.00  0.00    +0.008 C 
ENDBRANCH  18  20
ENDBRANCH   5  18
ENDBRANCH   4   5
ENDBRANCH   1   4
BRANCH   1  22
ATOM     22  C   UNL     1       6.712  -3.067  26.761  0.00  0.00    +0.110 C 
BRANCH  22  23
ATOM     23  N   UNL     1       6.131  -4.430  26.576  0.00  0.00    -0.275 N 
ATOM     24  H   UNL     1       5.249  -4.435  26.074  0.00  0.00    +0.152 HD
ATOM     25  C   UNL     1       6.408  -5.641  27.122  0.00  0.00    +0.401 C 
ATOM     26  O   UNL     1       7.331  -5.910  27.867  0.00  0.00    -0.226 OA
BRANCH  25  27
ATOM     27  O   UNL     1       5.458  -6.507  26.684  0.00  0.00    -0.444 OA
BRANCH  27  28
ATOM     28  C   UNL     1       4.074  -6.117  26.473  0.00  0.00    +0.212 C 
ATOM     29  C   UNL     1       3.429  -7.239  25.688  0.00  0.00    +0.090 C 
ATOM     30  C   UNL     1       3.076  -7.278  24.229  0.00  0.00    +0.040 C 
ATOM     31  C   UNL     1       2.064  -8.441  24.274  0.00  0.00    +0.163 C 
ATOM     32  O   UNL     1       1.485  -8.445  25.612  0.00  0.00    -0.351 OA
ATOM     33  C   UNL     1       2.037  -7.295  26.246  0.00  0.00    +0.257 C 
ATOM     34  O   UNL     1       2.271  -7.264  27.642  0.00  0.00    -0.347 OA
ATOM     35  C   UNL     1       3.242  -6.180  27.784  0.00  0.00    +0.208 C 
ENDBRANCH  27  28
ENDBRANCH  25  27
ENDBRANCH  22  23
BRANCH  22  36
ATOM     36  C   UNL     1       5.694  -1.909  26.558  0.00  0.00    +0.060 C 
BRANCH  36  37
ATOM     37  C   UNL     1       6.206  -0.550  26.081  0.00  0.00    -0.046 A 
ATOM     38  C   UNL     1       6.970   0.321  26.872  0.00  0.00    +0.004 A 
ATOM     39  C   UNL     1       7.400   1.558  26.381  0.00  0.00    +0.000 A 
ATOM     40  C   UNL     1       7.046   1.975  25.097  0.00  0.00    +0.000 A 
ATOM     41  C   UNL     1       6.237   1.154  24.318  0.00  0.00    +0.000 A 
ATOM     42  C   UNL     1       5.818  -0.089  24.807  0.00  0.00    +0.004 A 
ENDBRANCH  36  37
ENDBRANCH  22  36
ENDBRANCH   1  22
TORSDOF 14
ENDMDL
MODEL 7
REMARK VINA RESULT:      -6.7      2.518      5.330
REMARK  Name = 
REMARK  16 active torsions:
REMARK  status: ('A' for Active; 'I' for Inactive)
REMARK    1  A    between atoms: C_1  and  C_2
REMARK    2  A    between atoms: C_2  and  C_3
REMARK    3  A    between atoms: C_2  and  C_4
REMARK    4  A    between atoms: C_4  and  N_5
REMARK    5  A    between atoms: N_5  and  C_6
REMARK    6  A    between atoms: N_5  and  S_31
REMARK    7  A    between atoms: C_6  and  C_7
REMARK    8  A    between atoms: C_7  and  C_8
REMARK    9  A    between atoms: C_7  and  O_30
REMARK   10  A    between atoms: C_8  and  C_9
REMARK   11  A    between atoms: C_8  and  N_16
REMARK   12  A    between atoms: C_9  and  C_10
REMARK   13  A    between atoms: C_17  and  O_19
REMARK   14  A    between atoms: O_19  and  C_20
REMARK   15  A    between atoms: S_31  and  C_34
REMARK   16  A    between atoms: C_37  and  N_40
REMARK                            x       y       z     vdW  Elec       q    Type
REMARK                         _______ _______ _______ _____ _____    ______ ____
ROOT
ATOM      1  C   UNL     1       7.834  -0.442  25.867  0.00  0.00    +0.151 C 
ENDROOT
BRANCH   1   2
ATOM      2  O   UNL     1       8.676  -0.605  27.027  0.00  0.00    -0.389 OA
ATOM      3  H   UNL     1       8.281  -1.319  27.560  0.00  0.00    +0.210 HD
ENDBRANCH   1   2
BRANCH   1   4
ATOM      4  C   UNL     1       7.811  -1.742  25.049  0.00  0.00    +0.142 C 
BRANCH   4   5
ATOM      5  N   UNL     1       7.767  -1.559  23.496  0.00  0.00    -0.174 NA
BRANCH   5   6
ATOM      6  S   UNL     1       9.382  -1.789  22.844  0.00  0.00    +0.061 S 
ATOM      7  O   UNL     1       9.204  -2.147  21.449  0.00  0.00    -0.153 OA
ATOM      8  O   UNL     1      10.187  -2.618  23.710  0.00  0.00    -0.153 OA
BRANCH   6   9
ATOM      9  C   UNL     1      10.056  -0.142  22.881  0.00  0.00    +0.106 A 
ATOM     10  C   UNL     1       9.817   0.731  21.814  0.00  0.00    +0.030 A 
ATOM     11  C   UNL     1      10.124   2.087  21.957  0.00  0.00    +0.024 A 
ATOM     12  C   UNL     1      10.608   2.581  23.171  0.00  0.00    +0.025 A 
ATOM     13  C   UNL     1      10.961   1.674  24.175  0.00  0.00    +0.024 A 
ATOM     14  C   UNL     1      10.693   0.313  24.034  0.00  0.00    +0.030 A 
BRANCH  12  15
ATOM     15  N   UNL     1      10.937   3.933  23.307  0.00  0.00    -0.358 N 
ATOM     16  H   UNL     1      11.791   4.097  23.831  0.00  0.00    +0.142 HD
ATOM     17  H   UNL     1      10.925   4.442  22.428  0.00  0.00    +0.142 HD
ENDBRANCH  12  15
ENDBRANCH   6   9
ENDBRANCH   5   6
BRANCH   5  18
ATOM     18  C   UNL     1       6.595  -2.245  22.805  0.00  0.00    +0.112 C 
BRANCH  18  20
ATOM     19  C   UNL     1       4.787  -4.029  23.018  0.00  0.00    +0.008 C 
ATOM     20  C   UNL     1       6.301  -3.746  23.110  0.00  0.00    -0.001 C 
ATOM     21  C   UNL     1       7.012  -4.754  22.200  0.00  0.00    +0.008 C 
ENDBRANCH  18  20
ENDBRANCH   5  18
ENDBRANCH   4   5
ENDBRANCH   1   4
BRANCH   1  22
ATOM     22  C   UNL     1       6.451   0.121  26.355  0.00  0.00    +0.110 C 
BRANCH  22  23
ATOM     23  N   UNL     1       5.689  -0.828  27.221  0.00  0.00    -0.275 N 
ATOM     24  H   UNL     1       6.109  -0.980  28.132  0.00  0.00    +0.152 HD
ATOM     25  C   UNL     1       4.678  -1.701  26.978  0.00  0.00    +0.401 C 
ATOM     26  O   UNL     1       4.064  -1.833  25.937  0.00  0.00    -0.226 OA
BRANCH  25  27
ATOM     27  O   UNL     1       4.475  -2.408  28.120  0.00  0.00    -0.444 OA
BRANCH  27  28
ATOM     28  C   UNL     1       4.420  -3.861  28.145  0.00  0.00    +0.212 C 
ATOM     29  C   UNL     1       5.762  -4.347  27.642  0.00  0.00    +0.090 C 
ATOM     30  C   UNL     1       6.107  -4.921  26.298  0.00  0.00    +0.040 C 
ATOM     31  C   UNL     1       7.433  -5.610  26.681  0.00  0.00    +0.163 C 
ATOM     32  O   UNL     1       7.343  -5.938  28.099  0.00  0.00    -0.351 OA
ATOM     33  C   UNL     1       6.017  -5.573  28.470  0.00  0.00    +0.257 C 
ATOM     34  O   UNL     1       5.716  -5.121  29.777  0.00  0.00    -0.347 OA
ATOM     35  C   UNL     1       4.445  -4.421  29.594  0.00  0.00    +0.208 C 
ENDBRANCH  27  28
ENDBRANCH  25  27
ENDBRANCH  22  23
BRANCH  22  36
ATOM     36  C   UNL     1       5.577   0.869  25.309  0.00  0.00    +0.060 C 
BRANCH  36  37
ATOM     37  C   UNL     1       6.204   2.002  24.497  0.00  0.00    -0.046 A 
ATOM     38  C   UNL     1       6.848   3.110  25.067  0.00  0.00    +0.004 A 
ATOM     39  C   UNL     1       7.393   4.122  24.269  0.00  0.00    +0.000 A 
ATOM     40  C   UNL     1       7.276   4.071  22.879  0.00  0.00    +0.000 A 
ATOM     41  C   UNL     1       6.587   3.013  22.296  0.00  0.00    +0.000 A 
ATOM     42  C   UNL     1       6.053   1.995  23.096  0.00  0.00    +0.004 A 
ENDBRANCH  36  37
ENDBRANCH  22  36
ENDBRANCH   1  22
TORSDOF 14
ENDMDL
MODEL 8
REMARK VINA RESULT:      -6.7      2.614      5.054
REMARK  Name = 
REMARK  16 active torsions:
REMARK  status: ('A' for Active; 'I' for Inactive)
REMARK    1  A    between atoms: C_1  and  C_2
REMARK    2  A    between atoms: C_2  and  C_3
REMARK    3  A    between atoms: C_2  and  C_4
REMARK    4  A    between atoms: C_4  and  N_5
REMARK    5  A    between atoms: N_5  and  C_6
REMARK    6  A    between atoms: N_5  and  S_31
REMARK    7  A    between atoms: C_6  and  C_7
REMARK    8  A    between atoms: C_7  and  C_8
REMARK    9  A    between atoms: C_7  and  O_30
REMARK   10  A    between atoms: C_8  and  C_9
REMARK   11  A    between atoms: C_8  and  N_16
REMARK   12  A    between atoms: C_9  and  C_10
REMARK   13  A    between atoms: C_17  and  O_19
REMARK   14  A    between atoms: O_19  and  C_20
REMARK   15  A    between atoms: S_31  and  C_34
REMARK   16  A    between atoms: C_37  and  N_40
REMARK                            x       y       z     vdW  Elec       q    Type
REMARK                         _______ _______ _______ _____ _____    ______ ____
ROOT
ATOM      1  C   UNL     1       8.553  -2.143  26.005  0.00  0.00    +0.151 C 
ENDROOT
BRANCH   1   2
ATOM      2  O   UNL     1       9.412  -2.531  24.913  0.00  0.00    -0.389 OA
ATOM      3  H   UNL     1       9.150  -3.434  24.658  0.00  0.00    +0.210 HD
ENDBRANCH   1   2
BRANCH   1   4
ATOM      4  C   UNL     1       8.662  -0.629  26.243  0.00  0.00    +0.142 C 
BRANCH   4   5
ATOM      5  N   UNL     1       8.453   0.268  24.980  0.00  0.00    -0.174 NA
BRANCH   5   6
ATOM      6  S   UNL     1       7.140   1.394  25.284  0.00  0.00    +0.061 S 
ATOM      7  O   UNL     1       7.405   1.977  26.586  0.00  0.00    -0.153 OA
ATOM      8  O   UNL     1       5.856   0.794  25.004  0.00  0.00    -0.153 OA
BRANCH   6   9
ATOM      9  C   UNL     1       7.427   2.665  24.071  0.00  0.00    +0.106 A 
ATOM     10  C   UNL     1       6.768   2.609  22.838  0.00  0.00    +0.030 A 
ATOM     11  C   UNL     1       6.794   3.725  21.997  0.00  0.00    +0.024 A 
ATOM     12  C   UNL     1       7.419   4.906  22.405  0.00  0.00    +0.025 A 
ATOM     13  C   UNL     1       8.180   4.896  23.579  0.00  0.00    +0.024 A 
ATOM     14  C   UNL     1       8.192   3.778  24.411  0.00  0.00    +0.030 A 
BRANCH  12  15
ATOM     15  N   UNL     1       7.466   6.015  21.555  0.00  0.00    -0.358 N 
ATOM     16  H   UNL     1       8.254   6.010  20.916  0.00  0.00    +0.142 HD
ATOM     17  H   UNL     1       6.588   6.195  21.077  0.00  0.00    +0.142 HD
ENDBRANCH  12  15
ENDBRANCH   6   9
ENDBRANCH   5   6
BRANCH   5  18
ATOM     18  C   UNL     1       9.737   0.796  24.350  0.00  0.00    +0.112 C 
BRANCH  18  20
ATOM     19  C   UNL     1       8.920  -0.392  22.248  0.00  0.00    +0.008 C 
ATOM     20  C   UNL     1      10.035   0.487  22.851  0.00  0.00    -0.001 C 
ATOM     21  C   UNL     1      10.192   1.714  21.945  0.00  0.00    +0.008 C 
ENDBRANCH  18  20
ENDBRANCH   5  18
ENDBRANCH   4   5
ENDBRANCH   1   4
BRANCH   1  22
ATOM     22  C   UNL     1       7.122  -2.720  25.715  0.00  0.00    +0.110 C 
BRANCH  22  23
ATOM     23  N   UNL     1       6.885  -4.067  26.314  0.00  0.00    -0.275 N 
ATOM     24  H   UNL     1       6.098  -4.099  26.955  0.00  0.00    +0.152 HD
ATOM     25  C   UNL     1       7.621  -5.206  26.363  0.00  0.00    +0.401 C 
ATOM     26  O   UNL     1       8.676  -5.416  25.796  0.00  0.00    -0.226 OA
BRANCH  25  27
ATOM     27  O   UNL     1       6.962  -6.078  27.168  0.00  0.00    -0.444 OA
BRANCH  27  28
ATOM     28  C   UNL     1       5.900  -5.666  28.072  0.00  0.00    +0.212 C 
ATOM     29  C   UNL     1       4.614  -6.225  27.503  0.00  0.00    +0.090 C 
ATOM     30  C   UNL     1       3.527  -5.503  26.760  0.00  0.00    +0.040 C 
ATOM     31  C   UNL     1       2.400  -6.540  26.948  0.00  0.00    +0.163 C 
ATOM     32  O   UNL     1       2.688  -7.255  28.185  0.00  0.00    -0.351 OA
ATOM     33  C   UNL     1       3.827  -6.596  28.727  0.00  0.00    +0.257 C 
ATOM     34  O   UNL     1       4.785  -7.294  29.500  0.00  0.00    -0.347 OA
ATOM     35  C   UNL     1       5.958  -6.424  29.427  0.00  0.00    +0.208 C 
ENDBRANCH  27  28
ENDBRANCH  25  27
ENDBRANCH  22  23
BRANCH  22  36
ATOM     36  C   UNL     1       6.569  -2.562  24.270  0.00  0.00    +0.060 C 
BRANCH  36  37
ATOM     37  C   UNL     1       6.318  -3.815  23.433  0.00  0.00    -0.046 A 
ATOM     38  C   UNL     1       5.113  -4.533  23.439  0.00  0.00    +0.004 A 
ATOM     39  C   UNL     1       4.948  -5.682  22.658  0.00  0.00    +0.000 A 
ATOM     40  C   UNL     1       5.997  -6.165  21.876  0.00  0.00    +0.000 A 
ATOM     41  C   UNL     1       7.221  -5.504  21.902  0.00  0.00    +0.000 A 
ATOM     42  C   UNL     1       7.380  -4.349  22.675  0.00  0.00    +0.004 A 
ENDBRANCH  36  37
ENDBRANCH  22  36
ENDBRANCH   1  22
TORSDOF 14
ENDMDL
MODEL 9
REMARK VINA RESULT:      -6.7      2.543      7.602
REMARK  Name = 
REMARK  16 active torsions:
REMARK  status: ('A' for Active; 'I' for Inactive)
REMARK    1  A    between atoms: C_1  and  C_2
REMARK    2  A    between atoms: C_2  and  C_3
REMARK    3  A    between atoms: C_2  and  C_4
REMARK    4  A    between atoms: C_4  and  N_5
REMARK    5  A    between atoms: N_5  and  C_6
REMARK    6  A    between atoms: N_5  and  S_31
REMARK    7  A    between atoms: C_6  and  C_7
REMARK    8  A    between atoms: C_7  and  C_8
REMARK    9  A    between atoms: C_7  and  O_30
REMARK   10  A    between atoms: C_8  and  C_9
REMARK   11  A    between atoms: C_8  and  N_16
REMARK   12  A    between atoms: C_9  and  C_10
REMARK   13  A    between atoms: C_17  and  O_19
REMARK   14  A    between atoms: O_19  and  C_20
REMARK   15  A    between atoms: S_31  and  C_34
REMARK   16  A    between atoms: C_37  and  N_40
REMARK                            x       y       z     vdW  Elec       q    Type
REMARK                         _______ _______ _______ _____ _____    ______ ____
ROOT
ATOM      1  C   UNL     1       5.768  -1.251  24.413  0.00  0.00    +0.151 C 
ENDROOT
BRANCH   1   2
ATOM      2  O   UNL     1       6.202  -1.033  23.055  0.00  0.00    -0.389 OA
ATOM      3  H   UNL     1       6.540  -1.887  22.729  0.00  0.00    +0.210 HD
ENDBRANCH   1   2
BRANCH   1   4
ATOM      4  C   UNL     1       6.483  -2.476  25.001  0.00  0.00    +0.142 C 
BRANCH   4   5
ATOM      5  N   UNL     1       7.589  -3.109  24.095  0.00  0.00    -0.174 NA
BRANCH   5   6
ATOM      6  S   UNL     1       9.168  -2.728  24.764  0.00  0.00    +0.061 S 
ATOM      7  O   UNL     1      10.048  -3.806  24.353  0.00  0.00    -0.153 OA
ATOM      8  O   UNL     1       9.075  -2.357  26.157  0.00  0.00    -0.153 OA
BRANCH   6   9
ATOM      9  C   UNL     1       9.644  -1.281  23.843  0.00  0.00    +0.106 A 
ATOM     10  C   UNL     1       9.661  -1.323  22.445  0.00  0.00    +0.030 A 
ATOM     11  C   UNL     1       9.784  -0.130  21.726  0.00  0.00    +0.024 A 
ATOM     12  C   UNL     1       9.829   1.098  22.392  0.00  0.00    +0.025 A 
ATOM     13  C   UNL     1       9.943   1.106  23.786  0.00  0.00    +0.024 A 
ATOM     14  C   UNL     1       9.856  -0.080  24.515  0.00  0.00    +0.030 A 
BRANCH  12  15
ATOM     15  N   UNL     1       9.975   2.289  21.675  0.00  0.00    -0.358 N 
ATOM     16  H   UNL     1      10.667   2.920  22.064  0.00  0.00    +0.142 HD
ATOM     17  H   UNL     1      10.106   2.147  20.677  0.00  0.00    +0.142 HD
ENDBRANCH  12  15
ENDBRANCH   6   9
ENDBRANCH   5   6
BRANCH   5  18
ATOM     18  C   UNL     1       7.310  -4.538  23.648  0.00  0.00    +0.112 C 
BRANCH  18  20
ATOM     19  C   UNL     1       6.688  -6.311  21.925  0.00  0.00    +0.008 C 
ATOM     20  C   UNL     1       7.086  -4.835  22.134  0.00  0.00    -0.001 C 
ATOM     21  C   UNL     1       6.023  -3.972  21.444  0.00  0.00    +0.008 C 
ENDBRANCH  18  20
ENDBRANCH   5  18
ENDBRANCH   4   5
ENDBRANCH   1   4
BRANCH   1  22
ATOM     22  C   UNL     1       5.921   0.107  25.187  0.00  0.00    +0.110 C 
BRANCH  22  23
ATOM     23  N   UNL     1       6.265   1.264  24.308  0.00  0.00    -0.275 N 
ATOM     24  H   UNL     1       7.263   1.412  24.197  0.00  0.00    +0.152 HD
ATOM     25  C   UNL     1       5.543   2.295  23.802  0.00  0.00    +0.401 C 
ATOM     26  O   UNL     1       4.339   2.452  23.887  0.00  0.00    -0.226 OA
BRANCH  25  27
ATOM     27  O   UNL     1       6.413   3.131  23.179  0.00  0.00    -0.444 OA
BRANCH  27  28
ATOM     28  C   UNL     1       6.617   4.508  23.596  0.00  0.00    +0.212 C 
ATOM     29  C   UNL     1       8.114   4.729  23.624  0.00  0.00    +0.090 C 
ATOM     30  C   UNL     1       9.028   4.801  24.813  0.00  0.00    +0.040 C 
ATOM     31  C   UNL     1      10.220   5.510  24.137  0.00  0.00    +0.163 C 
ATOM     32  O   UNL     1       9.674   6.299  23.039  0.00  0.00    -0.351 OA
ATOM     33  C   UNL     1       8.262   6.147  23.154  0.00  0.00    +0.257 C 
ATOM     34  O   UNL     1       7.423   6.176  22.015  0.00  0.00    -0.347 OA
ATOM     35  C   UNL     1       6.206   5.521  22.492  0.00  0.00    +0.208 C 
ENDBRANCH  27  28
ENDBRANCH  25  27
ENDBRANCH  22  23
BRANCH  22  36
ATOM     36  C   UNL     1       6.702   0.076  26.531  0.00  0.00    +0.060 C 
BRANCH  36  37
ATOM     37  C   UNL     1       6.547   1.246  27.503  0.00  0.00    -0.046 A 
ATOM     38  C   UNL     1       7.043   2.536  27.261  0.00  0.00    +0.004 A 
ATOM     39  C   UNL     1       6.879   3.563  28.197  0.00  0.00    +0.000 A 
ATOM     40  C   UNL     1       6.247   3.319  29.417  0.00  0.00    +0.000 A 
ATOM     41  C   UNL     1       5.802   2.032  29.703  0.00  0.00    +0.000 A 
ATOM     42  C   UNL     1       5.956   1.009  28.761  0.00  0.00    +0.004 A 
ENDBRANCH  36  37
ENDBRANCH  22  36
ENDBRANCH   1  22
TORSDOF 14
ENDMDL
