MODEL 1
REMARK VINA RESULT:      -7.0      0.000      0.000
REMARK  Name = 
REMARK  16 active torsions:
REMARK  status: ('A' for Active; 'I' for Inactive)
REMARK    1  A    between atoms: C_1  and  C_2
REMARK    2  A    between atoms: C_2  and  C_3
REMARK    3  A    between atoms: C_2  and  C_4
REMARK    4  A    between atoms: C_4  and  N_5
REMARK    5  A    between atoms: N_5  and  C_6
REMARK    6  A    between atoms: N_5  and  S_33
REMARK    7  A    between atoms: C_6  and  C_7
REMARK    8  A    between atoms: C_7  and  C_8
REMARK    9  A    between atoms: C_7  and  O_32
REMARK   10  A    between atoms: C_8  and  C_10
REMARK   11  A    between atoms: C_8  and  N_17
REMARK   12  A    between atoms: C_10  and  C_11
REMARK   13  A    between atoms: C_18  and  O_20
REMARK   14  A    between atoms: O_20  and  C_21
REMARK   15  A    between atoms: S_33  and  C_36
REMARK   16  A    between atoms: C_39  and  N_42
REMARK                            x       y       z     vdW  Elec       q    Type
REMARK                         _______ _______ _______ _____ _____    ______ ____
ROOT
ATOM      1  C   UNL     1       7.500  -1.775  25.815  0.00  0.00    +0.151 C 
ENDROOT
BRANCH   1   2
ATOM      2  O   UNL     1       7.338  -1.395  27.212  0.00  0.00    -0.389 OA
ATOM      3  H   UNL     1       6.880  -2.107  27.694  0.00  0.00    +0.210 HD
ENDBRANCH   1   2
BRANCH   1   4
ATOM      4  C   UNL     1       8.068  -0.521  25.068  0.00  0.00    +0.142 C 
BRANCH   4   5
ATOM      5  N   UNL     1       7.108   0.220  24.084  0.00  0.00    -0.174 NA
BRANCH   5   6
ATOM      6  S   UNL     1       6.260   1.591  24.784  0.00  0.00    +0.061 S 
ATOM      7  O   UNL     1       6.384   1.483  26.223  0.00  0.00    -0.153 OA
ATOM      8  O   UNL     1       4.958   1.676  24.149  0.00  0.00    -0.153 OA
BRANCH   6   9
ATOM      9  C   UNL     1       7.226   3.013  24.256  0.00  0.00    +0.106 A 
ATOM     10  C   UNL     1       6.798   3.825  23.193  0.00  0.00    +0.030 A 
ATOM     11  C   UNL     1       7.560   4.952  22.817  0.00  0.00    +0.024 A 
ATOM     12  C   UNL     1       8.727   5.294  23.508  0.00  0.00    +0.025 A 
ATOM     13  C   UNL     1       9.183   4.419  24.501  0.00  0.00    +0.024 A 
ATOM     14  C   UNL     1       8.432   3.299  24.891  0.00  0.00    +0.030 A 
BRANCH  12  15
ATOM     15  N   UNL     1       9.533   6.345  23.067  0.00  0.00    -0.358 N 
ATOM     16  H   UNL     1       9.934   6.213  22.143  0.00  0.00    +0.142 HD
ATOM     17  H   UNL     1       9.113   7.265  23.169  0.00  0.00    +0.142 HD
ENDBRANCH  12  15
ENDBRANCH   6   9
ENDBRANCH   5   6
BRANCH   5  18
ATOM     18  C   UNL     1       7.609   0.574  22.710  0.00  0.00    +0.112 C 
BRANCH  18  20
ATOM     19  C   UNL     1       9.371  -0.849  21.475  0.00  0.00    +0.008 C 
ATOM     20  C   UNL     1       9.101   0.346  22.403  0.00  0.00    -0.001 C 
ATOM     21  C   UNL     1       9.615   1.645  21.753  0.00  0.00    +0.008 C 
ENDBRANCH  18  20
ENDBRANCH   5  18
ENDBRANCH   4   5
ENDBRANCH   1   4
BRANCH   1  22
ATOM     22  C   UNL     1       8.226  -3.210  25.827  0.00  0.00    +0.110 C 
BRANCH  22  23
ATOM     23  N   UNL     1       7.838  -4.354  26.791  0.00  0.00    -0.275 N 
ATOM     24  H   UNL     1       8.324  -4.217  27.670  0.00  0.00    +0.152 HD
ATOM     25  C   UNL     1       7.007  -5.406  27.065  0.00  0.00    +0.401 C 
ATOM     26  O   UNL     1       7.136  -5.955  28.182  0.00  0.00    -0.226 OA
BRANCH  25  27
ATOM     27  O   UNL     1       6.135  -5.841  26.144  0.00  0.00    -0.444 OA
BRANCH  27  28
ATOM     28  C   UNL     1       4.787  -5.255  26.027  0.00  0.00    +0.212 C 
ATOM     29  C   UNL     1       3.648  -5.918  25.227  0.00  0.00    +0.090 C 
ATOM     30  C   UNL     1       3.873  -6.789  24.018  0.00  0.00    +0.040 C 
ATOM     31  C   UNL     1       2.844  -6.327  22.993  0.00  0.00    +0.163 C 
ATOM     32  O   UNL     1       2.358  -5.047  23.385  0.00  0.00    -0.351 OA
ATOM     33  C   UNL     1       2.819  -4.753  24.696  0.00  0.00    +0.257 C 
ATOM     34  O   UNL     1       3.650  -3.600  24.689  0.00  0.00    -0.347 OA
ATOM     35  C   UNL     1       4.619  -3.754  25.730  0.00  0.00    +0.208 C 
ENDBRANCH  27  28
ENDBRANCH  25  27
ENDBRANCH  22  23
BRANCH  22  36
ATOM     36  C   UNL     1       8.710  -3.912  24.483  0.00  0.00    +0.060 C 
BRANCH  36  37
ATOM     37  C   UNL     1       7.755  -4.354  23.389  0.00  0.00    -0.046 A 
ATOM     38  C   UNL     1       7.764  -5.688  22.961  0.00  0.00    +0.004 A 
ATOM     39  C   UNL     1       6.898  -6.134  21.954  0.00  0.00    +0.000 A 
ATOM     40  C   UNL     1       6.025  -5.247  21.333  0.00  0.00    +0.000 A 
ATOM     41  C   UNL     1       6.066  -3.900  21.675  0.00  0.00    +0.000 A 
ATOM     42  C   UNL     1       6.931  -3.451  22.687  0.00  0.00    +0.004 A 
ENDBRANCH  36  37
ENDBRANCH  22  36
ENDBRANCH   1  22
TORSDOF 14
ENDMDL
MODEL 2
REMARK VINA RESULT:      -7.0      2.423      4.048
REMARK  Name = 
REMARK  16 active torsions:
REMARK  status: ('A' for Active; 'I' for Inactive)
REMARK    1  A    between atoms: C_1  and  C_2
REMARK    2  A    between atoms: C_2  and  C_3
REMARK    3  A    between atoms: C_2  and  C_4
REMARK    4  A    between atoms: C_4  and  N_5
REMARK    5  A    between atoms: N_5  and  C_6
REMARK    6  A    between atoms: N_5  and  S_33
REMARK    7  A    between atoms: C_6  and  C_7
REMARK    8  A    between atoms: C_7  and  C_8
REMARK    9  A    between atoms: C_7  and  O_32
REMARK   10  A    between atoms: C_8  and  C_10
REMARK   11  A    between atoms: C_8  and  N_17
REMARK   12  A    between atoms: C_10  and  C_11
REMARK   13  A    between atoms: C_18  and  O_20
REMARK   14  A    between atoms: O_20  and  C_21
REMARK   15  A    between atoms: S_33  and  C_36
REMARK   16  A    between atoms: C_39  and  N_42
REMARK                            x       y       z     vdW  Elec       q    Type
REMARK                         _______ _______ _______ _____ _____    ______ ____
ROOT
ATOM      1  C   UNL     1       4.932  -0.317  26.055  0.00  0.00    +0.151 C 
ENDROOT
BRANCH   1   2
ATOM      2  O   UNL     1       3.952  -1.316  26.461  0.00  0.00    -0.389 OA
ATOM      3  H   UNL     1       3.240  -1.363  25.798  0.00  0.00    +0.210 HD
ENDBRANCH   1   2
BRANCH   1   4
ATOM      4  C   UNL     1       4.318   1.083  26.391  0.00  0.00    +0.142 C 
BRANCH   4   5
ATOM      5  N   UNL     1       5.237   2.331  26.198  0.00  0.00    -0.174 NA
BRANCH   5   6
ATOM      6  S   UNL     1       5.022   3.169  24.668  0.00  0.00    +0.061 S 
ATOM      7  O   UNL     1       4.973   4.587  24.959  0.00  0.00    -0.153 OA
ATOM      8  O   UNL     1       3.944   2.512  23.953  0.00  0.00    -0.153 OA
BRANCH   6   9
ATOM      9  C   UNL     1       6.552   2.846  23.779  0.00  0.00    +0.106 A 
ATOM     10  C   UNL     1       7.801   3.095  24.372  0.00  0.00    +0.030 A 
ATOM     11  C   UNL     1       8.987   2.806  23.664  0.00  0.00    +0.024 A 
ATOM     12  C   UNL     1       8.940   2.244  22.384  0.00  0.00    +0.025 A 
ATOM     13  C   UNL     1       7.689   2.092  21.778  0.00  0.00    +0.024 A 
ATOM     14  C   UNL     1       6.500   2.368  22.472  0.00  0.00    +0.030 A 
BRANCH  12  15
ATOM     15  N   UNL     1      10.111   2.059  21.645  0.00  0.00    -0.358 N 
ATOM     16  H   UNL     1      10.910   2.590  21.977  0.00  0.00    +0.142 HD
ATOM     17  H   UNL     1      10.349   1.086  21.476  0.00  0.00    +0.142 HD
ENDBRANCH  12  15
ENDBRANCH   6   9
ENDBRANCH   5   6
BRANCH   5  18
ATOM     18  C   UNL     1       5.348   3.330  27.318  0.00  0.00    +0.112 C 
BRANCH  18  20
ATOM     19  C   UNL     1       6.815   4.759  28.888  0.00  0.00    +0.008 C 
ATOM     20  C   UNL     1       6.723   3.518  27.986  0.00  0.00    -0.001 C 
ATOM     21  C   UNL     1       6.983   2.244  28.813  0.00  0.00    +0.008 C 
ENDBRANCH  18  20
ENDBRANCH   5  18
ENDBRANCH   4   5
ENDBRANCH   1   4
BRANCH   1  22
ATOM     22  C   UNL     1       6.347  -0.828  26.623  0.00  0.00    +0.110 C 
BRANCH  22  23
ATOM     23  N   UNL     1       6.610  -2.285  27.071  0.00  0.00    -0.275 N 
ATOM     24  H   UNL     1       6.443  -2.353  28.068  0.00  0.00    +0.152 HD
ATOM     25  C   UNL     1       6.825  -3.587  26.709  0.00  0.00    +0.401 C 
ATOM     26  O   UNL     1       6.875  -4.430  27.632  0.00  0.00    -0.226 OA
BRANCH  25  27
ATOM     27  O   UNL     1       7.015  -3.913  25.423  0.00  0.00    -0.444 OA
BRANCH  27  28
ATOM     28  C   UNL     1       5.933  -4.500  24.612  0.00  0.00    +0.212 C 
ATOM     29  C   UNL     1       6.180  -5.552  23.512  0.00  0.00    +0.090 C 
ATOM     30  C   UNL     1       7.450  -5.632  22.704  0.00  0.00    +0.040 C 
ATOM     31  C   UNL     1       6.996  -5.836  21.264  0.00  0.00    +0.163 C 
ATOM     32  O   UNL     1       5.621  -5.482  21.168  0.00  0.00    -0.351 OA
ATOM     33  C   UNL     1       5.095  -5.289  22.473  0.00  0.00    +0.257 C 
ATOM     34  O   UNL     1       4.651  -3.950  22.644  0.00  0.00    -0.347 OA
ATOM     35  C   UNL     1       4.834  -3.600  24.018  0.00  0.00    +0.208 C 
ENDBRANCH  27  28
ENDBRANCH  25  27
ENDBRANCH  22  23
BRANCH  22  36
ATOM     36  C   UNL     1       7.726  -0.293  26.035  0.00  0.00    +0.060 C 
BRANCH  36  37
ATOM     37  C   UNL     1       8.302  -0.764  24.712  0.00  0.00    -0.046 A 
ATOM     38  C   UNL     1       9.688  -0.741  24.514  0.00  0.00    +0.004 A 
ATOM     39  C   UNL     1      10.257  -1.169  23.307  0.00  0.00    +0.000 A 
ATOM     40  C   UNL     1       9.448  -1.599  22.261  0.00  0.00    +0.000 A 
ATOM     41  C   UNL     1       8.066  -1.540  22.402  0.00  0.00    +0.000 A 
ATOM     42  C   UNL     1       7.493  -1.115  23.612  0.00  0.00    +0.004 A 
ENDBRANCH  36  37
ENDBRANCH  22  36
ENDBRANCH   1  22
TORSDOF 14
ENDMDL
MODEL 3
REMARK VINA RESULT:      -6.9      2.508      7.848
REMARK  Name = 
REMARK  16 active torsions:
REMARK  status: ('A' for Active; 'I' for Inactive)
REMARK    1  A    between atoms: C_1  and  C_2
REMARK    2  A    between atoms: C_2  and  C_3
REMARK    3  A    between atoms: C_2  and  C_4
REMARK    4  A    between atoms: C_4  and  N_5
REMARK    5  A    between atoms: N_5  and  C_6
REMARK    6  A    between atoms: N_5  and  S_33
REMARK    7  A    between atoms: C_6  and  C_7
REMARK    8  A    between atoms: C_7  and  C_8
REMARK    9  A    between atoms: C_7  and  O_32
REMARK   10  A    between atoms: C_8  and  C_10
REMARK   11  A    between atoms: C_8  and  N_17
REMARK   12  A    between atoms: C_10  and  C_11
REMARK   13  A    between atoms: C_18  and  O_20
REMARK   14  A    between atoms: O_20  and  C_21
REMARK   15  A    between atoms: S_33  and  C_36
REMARK   16  A    between atoms: C_39  and  N_42
REMARK                            x       y       z     vdW  Elec       q    Type
REMARK                         _______ _______ _______ _____ _____    ______ ____
ROOT
ATOM      1  C   UNL     1       7.689  -1.063  25.284  0.00  0.00    +0.151 C 
ENDROOT
BRANCH   1   2
ATOM      2  O   UNL     1       8.165   0.269  25.633  0.00  0.00    -0.389 OA
ATOM      3  H   UNL     1       8.088   0.857  24.860  0.00  0.00    +0.210 HD
ENDBRANCH   1   2
BRANCH   1   4
ATOM      4  C   UNL     1       7.388  -1.804  26.631  0.00  0.00    +0.142 C 
BRANCH   4   5
ATOM      5  N   UNL     1       6.003  -2.514  26.761  0.00  0.00    -0.174 NA
BRANCH   5   6
ATOM      6  S   UNL     1       6.093  -4.236  27.098  0.00  0.00    +0.061 S 
ATOM      7  O   UNL     1       5.432  -4.459  28.368  0.00  0.00    -0.153 OA
ATOM      8  O   UNL     1       7.465  -4.657  26.883  0.00  0.00    -0.153 OA
BRANCH   6   9
ATOM      9  C   UNL     1       5.078  -4.983  25.815  0.00  0.00    +0.106 A 
ATOM     10  C   UNL     1       4.270  -4.193  24.979  0.00  0.00    +0.030 A 
ATOM     11  C   UNL     1       3.505  -4.800  23.962  0.00  0.00    +0.024 A 
ATOM     12  C   UNL     1       3.560  -6.182  23.749  0.00  0.00    +0.025 A 
ATOM     13  C   UNL     1       4.297  -6.957  24.650  0.00  0.00    +0.024 A 
ATOM     14  C   UNL     1       5.069  -6.367  25.664  0.00  0.00    +0.030 A 
BRANCH  12  15
ATOM     15  N   UNL     1       2.722  -6.792  22.812  0.00  0.00    -0.358 N 
ATOM     16  H   UNL     1       1.762  -6.914  23.119  0.00  0.00    +0.142 HD
ATOM     17  H   UNL     1       2.772  -6.387  21.881  0.00  0.00    +0.142 HD
ENDBRANCH  12  15
ENDBRANCH   6   9
ENDBRANCH   5   6
BRANCH   5  18
ATOM     18  C   UNL     1       4.940  -1.878  27.616  0.00  0.00    +0.112 C 
BRANCH  18  20
ATOM     19  C   UNL     1       2.477  -1.116  27.522  0.00  0.00    +0.008 C 
ATOM     20  C   UNL     1       3.887  -0.994  26.922  0.00  0.00    -0.001 C 
ATOM     21  C   UNL     1       4.388   0.458  27.045  0.00  0.00    +0.008 C 
ENDBRANCH  18  20
ENDBRANCH   5  18
ENDBRANCH   4   5
ENDBRANCH   1   4
BRANCH   1  22
ATOM     22  C   UNL     1       6.599  -0.853  24.120  0.00  0.00    +0.110 C 
BRANCH  22  23
ATOM     23  N   UNL     1       5.907   0.499  23.835  0.00  0.00    -0.275 N 
ATOM     24  H   UNL     1       5.143   0.618  24.490  0.00  0.00    +0.152 HD
ATOM     25  C   UNL     1       5.943   1.705  23.189  0.00  0.00    +0.401 C 
ATOM     26  O   UNL     1       5.034   2.521  23.461  0.00  0.00    -0.226 OA
BRANCH  25  27
ATOM     27  O   UNL     1       6.891   1.960  22.276  0.00  0.00    -0.444 OA
BRANCH  27  28
ATOM     28  C   UNL     1       8.196   2.527  22.663  0.00  0.00    +0.212 C 
ATOM     29  C   UNL     1       9.527   1.766  22.495  0.00  0.00    +0.090 C 
ATOM     30  C   UNL     1       9.645   0.265  22.558  0.00  0.00    +0.040 C 
ATOM     31  C   UNL     1      10.867  -0.005  23.427  0.00  0.00    +0.163 C 
ATOM     32  O   UNL     1      11.179   1.181  24.151  0.00  0.00    -0.351 OA
ATOM     33  C   UNL     1      10.400   2.256  23.645  0.00  0.00    +0.257 C 
ATOM     34  O   UNL     1       9.539   2.769  24.653  0.00  0.00    -0.347 OA
ATOM     35  C   UNL     1       8.356   3.253  24.011  0.00  0.00    +0.208 C 
ENDBRANCH  27  28
ENDBRANCH  25  27
ENDBRANCH  22  23
BRANCH  22  36
ATOM     36  C   UNL     1       6.726  -1.588  22.714  0.00  0.00    +0.060 C 
BRANCH  36  37
ATOM     37  C   UNL     1       6.805  -3.097  22.572  0.00  0.00    -0.046 A 
ATOM     38  C   UNL     1       7.673  -3.825  23.396  0.00  0.00    +0.004 A 
ATOM     39  C   UNL     1       7.773  -5.219  23.295  0.00  0.00    +0.000 A 
ATOM     40  C   UNL     1       7.029  -5.911  22.345  0.00  0.00    +0.000 A 
ATOM     41  C   UNL     1       6.234  -5.200  21.454  0.00  0.00    +0.000 A 
ATOM     42  C   UNL     1       6.129  -3.803  21.556  0.00  0.00    +0.004 A 
ENDBRANCH  36  37
ENDBRANCH  22  36
ENDBRANCH   1  22
TORSDOF 14
ENDMDL
MODEL 4
REMARK VINA RESULT:      -6.9      2.738      8.825
REMARK  Name = 
REMARK  16 active torsions:
REMARK  status: ('A' for Active; 'I' for Inactive)
REMARK    1  A    between atoms: C_1  and  C_2
REMARK    2  A    between atoms: C_2  and  C_3
REMARK    3  A    between atoms: C_2  and  C_4
REMARK    4  A    between atoms: C_4  and  N_5
REMARK    5  A    between atoms: N_5  and  C_6
REMARK    6  A    between atoms: N_5  and  S_33
REMARK    7  A    between atoms: C_6  and  C_7
REMARK    8  A    between atoms: C_7  and  C_8
REMARK    9  A    between atoms: C_7  and  O_32
REMARK   10  A    between atoms: C_8  and  C_10
REMARK   11  A    between atoms: C_8  and  N_17
REMARK   12  A    between atoms: C_10  and  C_11
REMARK   13  A    between atoms: C_18  and  O_20
REMARK   14  A    between atoms: O_20  and  C_21
REMARK   15  A    between atoms: S_33  and  C_36
REMARK   16  A    between atoms: C_39  and  N_42
REMARK                            x       y       z     vdW  Elec       q    Type
REMARK                         _______ _______ _______ _____ _____    ______ ____
ROOT
ATOM      1  C   UNL     1       5.596  -1.326  25.022  0.00  0.00    +0.151 C 
ENDROOT
BRANCH   1   2
ATOM      2  O   UNL     1       4.265  -1.369  25.613  0.00  0.00    -0.389 OA
ATOM      3  H   UNL     1       3.912  -2.276  25.559  0.00  0.00    +0.210 HD
ENDBRANCH   1   2
BRANCH   1   4
ATOM      4  C   UNL     1       5.572  -2.284  23.783  0.00  0.00    +0.142 C 
BRANCH   4   5
ATOM      5  N   UNL     1       6.740  -3.314  23.655  0.00  0.00    -0.174 NA
BRANCH   5   6
ATOM      6  S   UNL     1       6.233  -4.948  23.252  0.00  0.00    +0.061 S 
ATOM      7  O   UNL     1       7.407  -5.659  22.790  0.00  0.00    -0.153 OA
ATOM      8  O   UNL     1       5.043  -4.850  22.428  0.00  0.00    -0.153 OA
BRANCH   6   9
ATOM      9  C   UNL     1       5.753  -5.655  24.834  0.00  0.00    +0.106 A 
ATOM     10  C   UNL     1       6.444  -5.328  26.014  0.00  0.00    +0.030 A 
ATOM     11  C   UNL     1       6.030  -5.874  27.247  0.00  0.00    +0.024 A 
ATOM     12  C   UNL     1       4.916  -6.718  27.321  0.00  0.00    +0.025 A 
ATOM     13  C   UNL     1       4.302  -7.103  26.125  0.00  0.00    +0.024 A 
ATOM     14  C   UNL     1       4.699  -6.563  24.891  0.00  0.00    +0.030 A 
BRANCH  12  15
ATOM     15  N   UNL     1       4.574  -7.340  28.524  0.00  0.00    -0.358 N 
ATOM     16  H   UNL     1       5.345  -7.460  29.174  0.00  0.00    +0.142 HD
ATOM     17  H   UNL     1       3.754  -6.948  28.979  0.00  0.00    +0.142 HD
ENDBRANCH  12  15
ENDBRANCH   6   9
ENDBRANCH   5   6
BRANCH   5  18
ATOM     18  C   UNL     1       7.952  -2.938  22.846  0.00  0.00    +0.112 C 
BRANCH  18  20
ATOM     19  C   UNL     1      10.270  -1.814  22.993  0.00  0.00    +0.008 C 
ATOM     20  C   UNL     1       9.310  -2.868  23.568  0.00  0.00    -0.001 C 
ATOM     21  C   UNL     1       9.002  -2.550  25.044  0.00  0.00    +0.008 C 
ENDBRANCH  18  20
ENDBRANCH   5  18
ENDBRANCH   4   5
ENDBRANCH   1   4
BRANCH   1  22
ATOM     22  C   UNL     1       5.993   0.230  24.937  0.00  0.00    +0.110 C 
BRANCH  22  23
ATOM     23  N   UNL     1       5.051   1.375  25.373  0.00  0.00    -0.275 N 
ATOM     24  H   UNL     1       4.217   0.971  25.782  0.00  0.00    +0.152 HD
ATOM     25  C   UNL     1       4.884   2.714  25.602  0.00  0.00    +0.401 C 
ATOM     26  O   UNL     1       3.794   3.072  26.101  0.00  0.00    -0.226 OA
BRANCH  25  27
ATOM     27  O   UNL     1       5.841   3.588  25.258  0.00  0.00    -0.444 OA
BRANCH  27  28
ATOM     28  C   UNL     1       5.994   4.048  23.866  0.00  0.00    +0.212 C 
ATOM     29  C   UNL     1       7.338   4.527  23.281  0.00  0.00    +0.090 C 
ATOM     30  C   UNL     1       8.419   5.184  24.100  0.00  0.00    +0.040 C 
ATOM     31  C   UNL     1       8.888   6.370  23.266  0.00  0.00    +0.163 C 
ATOM     32  O   UNL     1       7.906   6.642  22.272  0.00  0.00    -0.351 OA
ATOM     33  C   UNL     1       6.958   5.585  22.251  0.00  0.00    +0.257 C 
ATOM     34  O   UNL     1       5.662   6.066  22.586  0.00  0.00    -0.347 OA
ATOM     35  C   UNL     1       4.963   5.010  23.250  0.00  0.00    +0.208 C 
ENDBRANCH  27  28
ENDBRANCH  25  27
ENDBRANCH  22  23
BRANCH  22  36
ATOM     36  C   UNL     1       7.470   0.733  25.248  0.00  0.00    +0.060 C 
BRANCH  36  37
ATOM     37  C   UNL     1       8.435   1.191  24.169  0.00  0.00    -0.046 A 
ATOM     38  C   UNL     1       8.098   1.015  22.821  0.00  0.00    +0.004 A 
ATOM     39  C   UNL     1       8.962   1.426  21.797  0.00  0.00    +0.000 A 
ATOM     40  C   UNL     1      10.195   1.993  22.101  0.00  0.00    +0.000 A 
ATOM     41  C   UNL     1      10.589   2.091  23.430  0.00  0.00    +0.000 A 
ATOM     42  C   UNL     1       9.724   1.683  24.459  0.00  0.00    +0.004 A 
ENDBRANCH  36  37
ENDBRANCH  22  36
ENDBRANCH   1  22
TORSDOF 14
ENDMDL
MODEL 5
REMARK VINA RESULT:      -6.8      1.594      2.285
REMARK  Name = 
REMARK  16 active torsions:
REMARK  status: ('A' for Active; 'I' for Inactive)
REMARK    1  A    between atoms: C_1  and  C_2
REMARK    2  A    between atoms: C_2  and  C_3
REMARK    3  A    between atoms: C_2  and  C_4
REMARK    4  A    between atoms: C_4  and  N_5
REMARK    5  A    between atoms: N_5  and  C_6
REMARK    6  A    between atoms: N_5  and  S_33
REMARK    7  A    between atoms: C_6  and  C_7
REMARK    8  A    between atoms: C_7  and  C_8
REMARK    9  A    between atoms: C_7  and  O_32
REMARK   10  A    between atoms: C_8  and  C_10
REMARK   11  A    between atoms: C_8  and  N_17
REMARK   12  A    between atoms: C_10  and  C_11
REMARK   13  A    between atoms: C_18  and  O_20
REMARK   14  A    between atoms: O_20  and  C_21
REMARK   15  A    between atoms: S_33  and  C_36
REMARK   16  A    between atoms: C_39  and  N_42
REMARK                            x       y       z     vdW  Elec       q    Type
REMARK                         _______ _______ _______ _____ _____    ______ ____
ROOT
ATOM      1  C   UNL     1       8.328  -1.818  25.777  0.00  0.00    +0.151 C 
ENDROOT
BRANCH   1   2
ATOM      2  O   UNL     1       8.656  -1.318  27.106  0.00  0.00    -0.389 OA
ATOM      3  H   UNL     1       8.223  -0.457  27.247  0.00  0.00    +0.210 HD
ENDBRANCH   1   2
BRANCH   1   4
ATOM      4  C   UNL     1       8.879  -0.771  24.751  0.00  0.00    +0.142 C 
BRANCH   4   5
ATOM      5  N   UNL     1       7.889   0.330  24.253  0.00  0.00    -0.174 NA
BRANCH   5   6
ATOM      6  S   UNL     1       8.309   1.044  22.703  0.00  0.00    +0.061 S 
ATOM      7  O   UNL     1       7.070   1.423  22.056  0.00  0.00    -0.153 OA
ATOM      8  O   UNL     1       9.255   0.158  22.050  0.00  0.00    -0.153 OA
BRANCH   6   9
ATOM      9  C   UNL     1       9.180   2.554  23.143  0.00  0.00    +0.106 A 
ATOM     10  C   UNL     1      10.582   2.628  23.075  0.00  0.00    +0.030 A 
ATOM     11  C   UNL     1      11.239   3.834  23.399  0.00  0.00    +0.024 A 
ATOM     12  C   UNL     1      10.514   4.974  23.760  0.00  0.00    +0.025 A 
ATOM     13  C   UNL     1       9.128   4.851  23.911  0.00  0.00    +0.024 A 
ATOM     14  C   UNL     1       8.459   3.660  23.586  0.00  0.00    +0.030 A 
BRANCH  12  15
ATOM     15  N   UNL     1      11.171   6.132  24.182  0.00  0.00    -0.358 N 
ATOM     16  H   UNL     1      12.175   6.129  24.029  0.00  0.00    +0.142 HD
ATOM     17  H   UNL     1      10.742   6.996  23.861  0.00  0.00    +0.142 HD
ENDBRANCH  12  15
ENDBRANCH   6   9
ENDBRANCH   5   6
BRANCH   5  18
ATOM     18  C   UNL     1       6.411   0.054  24.306  0.00  0.00    +0.112 C 
BRANCH  18  20
ATOM     19  C   UNL     1       6.348   1.286  26.572  0.00  0.00    +0.008 C 
ATOM     20  C   UNL     1       5.565   0.837  25.328  0.00  0.00    -0.001 C 
ATOM     21  C   UNL     1       5.011   2.067  24.582  0.00  0.00    +0.008 C 
ENDBRANCH  18  20
ENDBRANCH   5  18
ENDBRANCH   4   5
ENDBRANCH   1   4
BRANCH   1  22
ATOM     22  C   UNL     1       8.742  -3.372  25.773  0.00  0.00    +0.110 C 
BRANCH  22  23
ATOM     23  N   UNL     1       8.151  -4.414  26.750  0.00  0.00    -0.275 N 
ATOM     24  H   UNL     1       8.592  -4.297  27.655  0.00  0.00    +0.152 HD
ATOM     25  C   UNL     1       7.179  -5.343  27.004  0.00  0.00    +0.401 C 
ATOM     26  O   UNL     1       7.164  -5.851  28.147  0.00  0.00    -0.226 OA
BRANCH  25  27
ATOM     27  O   UNL     1       6.321  -5.710  26.041  0.00  0.00    -0.444 OA
BRANCH  27  28
ATOM     28  C   UNL     1       5.029  -5.024  25.862  0.00  0.00    +0.212 C 
ATOM     29  C   UNL     1       3.820  -5.674  25.160  0.00  0.00    +0.090 C 
ATOM     30  C   UNL     1       3.944  -6.704  24.067  0.00  0.00    +0.040 C 
ATOM     31  C   UNL     1       2.940  -6.281  23.002  0.00  0.00    +0.163 C 
ATOM     32  O   UNL     1       2.577  -4.925  23.234  0.00  0.00    -0.351 OA
ATOM     33  C   UNL     1       3.087  -4.514  24.494  0.00  0.00    +0.257 C 
ATOM     34  O   UNL     1       4.018  -3.450  24.338  0.00  0.00    -0.347 OA
ATOM     35  C   UNL     1       4.988  -3.562  25.382  0.00  0.00    +0.208 C 
ENDBRANCH  27  28
ENDBRANCH  25  27
ENDBRANCH  22  23
BRANCH  22  36
ATOM     36  C   UNL     1       9.033  -4.155  24.418  0.00  0.00    +0.060 C 
BRANCH  36  37
ATOM     37  C   UNL     1       7.970  -4.418  23.367  0.00  0.00    -0.046 A 
ATOM     38  C   UNL     1       7.728  -5.730  22.941  0.00  0.00    +0.004 A 
ATOM     39  C   UNL     1       6.755  -6.012  21.974  0.00  0.00    +0.000 A 
ATOM     40  C   UNL     1       6.025  -4.983  21.389  0.00  0.00    +0.000 A 
ATOM     41  C   UNL     1       6.314  -3.666  21.727  0.00  0.00    +0.000 A 
ATOM     42  C   UNL     1       7.287  -3.381  22.700  0.00  0.00    +0.004 A 
ENDBRANCH  36  37
ENDBRANCH  22  36
ENDBRANCH   1  22
TORSDOF 14
ENDMDL
MODEL 6
REMARK VINA RESULT:      -6.8      2.671      4.159
REMARK  Name = 
REMARK  16 active torsions:
REMARK  status: ('A' for Active; 'I' for Inactive)
REMARK    1  A    between atoms: C_1  and  C_2
REMARK    2  A    between atoms: C_2  and  C_3
REMARK    3  A    between atoms: C_2  and  C_4
REMARK    4  A    between atoms: C_4  and  N_5
REMARK    5  A    between atoms: N_5  and  C_6
REMARK    6  A    between atoms: N_5  and  S_33
REMARK    7  A    between atoms: C_6  and  C_7
REMARK    8  A    between atoms: C_7  and  C_8
REMARK    9  A    between atoms: C_7  and  O_32
REMARK   10  A    between atoms: C_8  and  C_10
REMARK   11  A    between atoms: C_8  and  N_17
REMARK   12  A    between atoms: C_10  and  C_11
REMARK   13  A    between atoms: C_18  and  O_20
REMARK   14  A    between atoms: O_20  and  C_21
REMARK   15  A    between atoms: S_33  and  C_36
REMARK   16  A    between atoms: C_39  and  N_42
REMARK                            x       y       z     vdW  Elec       q    Type
REMARK                         _______ _______ _______ _____ _____    ______ ____
ROOT
ATOM      1  C   UNL     1       6.818  -3.849  22.021  0.00  0.00    +0.151 C 
ENDROOT
BRANCH   1   2
ATOM      2  O   UNL     1       5.698  -4.220  21.166  0.00  0.00    -0.389 OA
ATOM      3  H   UNL     1       5.979  -4.913  20.541  0.00  0.00    +0.210 HD
ENDBRANCH   1   2
BRANCH   1   4
ATOM      4  C   UNL     1       6.620  -2.343  22.400  0.00  0.00    +0.142 C 
BRANCH   4   5
ATOM      5  N   UNL     1       7.611  -1.732  23.441  0.00  0.00    -0.174 NA
BRANCH   5   6
ATOM      6  S   UNL     1       9.303  -1.807  22.972  0.00  0.00    +0.061 S 
ATOM      7  O   UNL     1       9.346  -2.232  21.588  0.00  0.00    -0.153 OA
ATOM      8  O   UNL     1      10.015  -2.540  24.002  0.00  0.00    -0.153 OA
BRANCH   6   9
ATOM      9  C   UNL     1       9.847  -0.094  23.036  0.00  0.00    +0.106 A 
ATOM     10  C   UNL     1       9.664   0.765  21.939  0.00  0.00    +0.030 A 
ATOM     11  C   UNL     1      10.074   2.112  22.025  0.00  0.00    +0.024 A 
ATOM     12  C   UNL     1      10.635   2.620  23.202  0.00  0.00    +0.025 A 
ATOM     13  C   UNL     1      10.892   1.725  24.246  0.00  0.00    +0.024 A 
ATOM     14  C   UNL     1      10.484   0.383  24.178  0.00  0.00    +0.030 A 
BRANCH  12  15
ATOM     15  N   UNL     1      11.136   3.922  23.247  0.00  0.00    -0.358 N 
ATOM     16  H   UNL     1      11.966   4.078  22.683  0.00  0.00    +0.142 HD
ATOM     17  H   UNL     1      10.436   4.645  23.097  0.00  0.00    +0.142 HD
ENDBRANCH  12  15
ENDBRANCH   6   9
ENDBRANCH   5   6
BRANCH   5  18
ATOM     18  C   UNL     1       7.303  -0.383  24.032  0.00  0.00    +0.112 C 
BRANCH  18  20
ATOM     19  C   UNL     1       5.398  -0.927  25.685  0.00  0.00    +0.008 C 
ATOM     20  C   UNL     1       6.800  -0.328  25.486  0.00  0.00    -0.001 C 
ATOM     21  C   UNL     1       7.828  -1.105  26.332  0.00  0.00    +0.008 C 
ENDBRANCH  18  20
ENDBRANCH   5  18
ENDBRANCH   4   5
ENDBRANCH   1   4
BRANCH   1  22
ATOM     22  C   UNL     1       6.957  -5.029  23.105  0.00  0.00    +0.110 C 
BRANCH  22  23
ATOM     23  N   UNL     1       7.808  -4.910  24.390  0.00  0.00    -0.275 N 
ATOM     24  H   UNL     1       8.553  -4.242  24.225  0.00  0.00    +0.152 HD
ATOM     25  C   UNL     1       7.934  -5.182  25.725  0.00  0.00    +0.401 C 
ATOM     26  O   UNL     1       8.917  -4.681  26.316  0.00  0.00    -0.226 OA
BRANCH  25  27
ATOM     27  O   UNL     1       7.059  -5.990  26.340  0.00  0.00    -0.444 OA
BRANCH  27  28
ATOM     28  C   UNL     1       6.293  -5.538  27.516  0.00  0.00    +0.212 C 
ATOM     29  C   UNL     1       5.006  -6.234  28.001  0.00  0.00    +0.090 C 
ATOM     30  C   UNL     1       4.052  -6.957  27.086  0.00  0.00    +0.040 C 
ATOM     31  C   UNL     1       2.662  -6.508  27.520  0.00  0.00    +0.163 C 
ATOM     32  O   UNL     1       2.792  -5.329  28.307  0.00  0.00    -0.351 OA
ATOM     33  C   UNL     1       4.164  -5.116  28.606  0.00  0.00    +0.257 C 
ATOM     34  O   UNL     1       4.615  -3.888  28.050  0.00  0.00    -0.347 OA
ATOM     35  C   UNL     1       5.998  -4.040  27.718  0.00  0.00    +0.208 C 
ENDBRANCH  27  28
ENDBRANCH  25  27
ENDBRANCH  22  23
BRANCH  22  36
ATOM     36  C   UNL     1       5.730  -5.971  23.476  0.00  0.00    +0.060 C 
BRANCH  36  37
ATOM     37  C   UNL     1       4.350  -5.439  23.821  0.00  0.00    -0.046 A 
ATOM     38  C   UNL     1       4.231  -4.294  24.619  0.00  0.00    +0.004 A 
ATOM     39  C   UNL     1       2.976  -3.772  24.958  0.00  0.00    +0.000 A 
ATOM     40  C   UNL     1       1.813  -4.403  24.530  0.00  0.00    +0.000 A 
ATOM     41  C   UNL     1       1.907  -5.593  23.817  0.00  0.00    +0.000 A 
ATOM     42  C   UNL     1       3.164  -6.116  23.473  0.00  0.00    +0.004 A 
ENDBRANCH  36  37
ENDBRANCH  22  36
ENDBRANCH   1  22
TORSDOF 14
ENDMDL
MODEL 7
REMARK VINA RESULT:      -6.8      2.680      7.775
REMARK  Name = 
REMARK  16 active torsions:
REMARK  status: ('A' for Active; 'I' for Inactive)
REMARK    1  A    between atoms: C_1  and  C_2
REMARK    2  A    between atoms: C_2  and  C_3
REMARK    3  A    between atoms: C_2  and  C_4
REMARK    4  A    between atoms: C_4  and  N_5
REMARK    5  A    between atoms: N_5  and  C_6
REMARK    6  A    between atoms: N_5  and  S_33
REMARK    7  A    between atoms: C_6  and  C_7
REMARK    8  A    between atoms: C_7  and  C_8
REMARK    9  A    between atoms: C_7  and  O_32
REMARK   10  A    between atoms: C_8  and  C_10
REMARK   11  A    between atoms: C_8  and  N_17
REMARK   12  A    between atoms: C_10  and  C_11
REMARK   13  A    between atoms: C_18  and  O_20
REMARK   14  A    between atoms: O_20  and  C_21
REMARK   15  A    between atoms: S_33  and  C_36
REMARK   16  A    between atoms: C_39  and  N_42
REMARK                            x       y       z     vdW  Elec       q    Type
REMARK                         _______ _______ _______ _____ _____    ______ ____
ROOT
ATOM      1  C   UNL     1       7.319  -0.729  25.545  0.00  0.00    +0.151 C 
ENDROOT
BRANCH   1   2
ATOM      2  O   UNL     1       6.145   0.130  25.616  0.00  0.00    -0.389 OA
ATOM      3  H   UNL     1       6.359   0.935  26.122  0.00  0.00    +0.210 HD
ENDBRANCH   1   2
BRANCH   1   4
ATOM      4  C   UNL     1       7.175  -1.788  26.690  0.00  0.00    +0.142 C 
BRANCH   4   5
ATOM      5  N   UNL     1       5.755  -2.396  26.925  0.00  0.00    -0.174 NA
BRANCH   5   6
ATOM      6  S   UNL     1       5.752  -4.092  27.385  0.00  0.00    +0.061 S 
ATOM      7  O   UNL     1       4.890  -4.221  28.541  0.00  0.00    -0.153 OA
ATOM      8  O   UNL     1       7.131  -4.541  27.424  0.00  0.00    -0.153 OA
BRANCH   6   9
ATOM      9  C   UNL     1       4.943  -4.913  26.004  0.00  0.00    +0.106 A 
ATOM     10  C   UNL     1       5.185  -6.269  25.726  0.00  0.00    +0.030 A 
ATOM     11  C   UNL     1       4.516  -6.897  24.654  0.00  0.00    +0.024 A 
ATOM     12  C   UNL     1       3.587  -6.197  23.877  0.00  0.00    +0.025 A 
ATOM     13  C   UNL     1       3.432  -4.827  24.113  0.00  0.00    +0.024 A 
ATOM     14  C   UNL     1       4.085  -4.189  25.180  0.00  0.00    +0.030 A 
BRANCH  12  15
ATOM     15  N   UNL     1       3.007  -6.791  22.753  0.00  0.00    -0.358 N 
ATOM     16  H   UNL     1       2.142  -6.359  22.445  0.00  0.00    +0.142 HD
ATOM     17  H   UNL     1       3.651  -6.940  21.981  0.00  0.00    +0.142 HD
ENDBRANCH  12  15
ENDBRANCH   6   9
ENDBRANCH   5   6
BRANCH   5  18
ATOM     18  C   UNL     1       4.772  -1.633  27.773  0.00  0.00    +0.112 C 
BRANCH  18  20
ATOM     19  C   UNL     1       2.238  -2.107  27.655  0.00  0.00    +0.008 C 
ATOM     20  C   UNL     1       3.415  -1.260  27.146  0.00  0.00    -0.001 C 
ATOM     21  C   UNL     1       3.177   0.226  27.479  0.00  0.00    +0.008 C 
ENDBRANCH  18  20
ENDBRANCH   5  18
ENDBRANCH   4   5
ENDBRANCH   1   4
BRANCH   1  22
ATOM     22  C   UNL     1       7.494  -1.114  23.993  0.00  0.00    +0.110 C 
BRANCH  22  23
ATOM     23  N   UNL     1       8.857  -1.455  23.348  0.00  0.00    -0.275 N 
ATOM     24  H   UNL     1       8.806  -2.388  22.955  0.00  0.00    +0.152 HD
ATOM     25  C   UNL     1      10.079  -1.012  22.922  0.00  0.00    +0.401 C 
ATOM     26  O   UNL     1      10.802  -1.836  22.318  0.00  0.00    -0.226 OA
BRANCH  25  27
ATOM     27  O   UNL     1      10.482   0.238  23.190  0.00  0.00    -0.444 OA
BRANCH  27  28
ATOM     28  C   UNL     1       9.869   1.401  22.523  0.00  0.00    +0.212 C 
ATOM     29  C   UNL     1       9.305   2.613  23.293  0.00  0.00    +0.090 C 
ATOM     30  C   UNL     1       8.722   2.523  24.680  0.00  0.00    +0.040 C 
ATOM     31  C   UNL     1       7.444   3.350  24.631  0.00  0.00    +0.163 C 
ATOM     32  O   UNL     1       7.082   3.547  23.269  0.00  0.00    -0.351 OA
ATOM     33  C   UNL     1       8.147   3.112  22.436  0.00  0.00    +0.257 C 
ATOM     34  O   UNL     1       7.729   2.035  21.607  0.00  0.00    -0.347 OA
ATOM     35  C   UNL     1       8.864   1.196  21.376  0.00  0.00    +0.208 C 
ENDBRANCH  27  28
ENDBRANCH  25  27
ENDBRANCH  22  23
BRANCH  22  36
ATOM     36  C   UNL     1       6.411  -1.989  23.222  0.00  0.00    +0.060 C 
BRANCH  36  37
ATOM     37  C   UNL     1       6.662  -3.421  22.784  0.00  0.00    -0.046 A 
ATOM     38  C   UNL     1       5.977  -3.935  21.675  0.00  0.00    +0.004 A 
ATOM     39  C   UNL     1       6.182  -5.250  21.241  0.00  0.00    +0.000 A 
ATOM     40  C   UNL     1       7.054  -6.090  21.926  0.00  0.00    +0.000 A 
ATOM     41  C   UNL     1       7.672  -5.632  23.084  0.00  0.00    +0.000 A 
ATOM     42  C   UNL     1       7.470  -4.312  23.520  0.00  0.00    +0.004 A 
ENDBRANCH  36  37
ENDBRANCH  22  36
ENDBRANCH   1  22
TORSDOF 14
ENDMDL
MODEL 8
REMARK VINA RESULT:      -6.8      2.483      7.957
REMARK  Name = 
REMARK  16 active torsions:
REMARK  status: ('A' for Active; 'I' for Inactive)
REMARK    1  A    between atoms: C_1  and  C_2
REMARK    2  A    between atoms: C_2  and  C_3
REMARK    3  A    between atoms: C_2  and  C_4
REMARK    4  A    between atoms: C_4  and  N_5
REMARK    5  A    between atoms: N_5  and  C_6
REMARK    6  A    between atoms: N_5  and  S_33
REMARK    7  A    between atoms: C_6  and  C_7
REMARK    8  A    between atoms: C_7  and  C_8
REMARK    9  A    between atoms: C_7  and  O_32
REMARK   10  A    between atoms: C_8  and  C_10
REMARK   11  A    between atoms: C_8  and  N_17
REMARK   12  A    between atoms: C_10  and  C_11
REMARK   13  A    between atoms: C_18  and  O_20
REMARK   14  A    between atoms: O_20  and  C_21
REMARK   15  A    between atoms: S_33  and  C_36
REMARK   16  A    between atoms: C_39  and  N_42
REMARK                            x       y       z     vdW  Elec       q    Type
REMARK                         _______ _______ _______ _____ _____    ______ ____
ROOT
ATOM      1  C   UNL     1       5.177  -1.577  26.078  0.00  0.00    +0.151 C 
ENDROOT
BRANCH   1   2
ATOM      2  O   UNL     1       4.826  -1.984  24.724  0.00  0.00    -0.389 OA
ATOM      3  H   UNL     1       4.789  -2.956  24.674  0.00  0.00    +0.210 HD
ENDBRANCH   1   2
BRANCH   1   4
ATOM      4  C   UNL     1       5.860  -2.812  26.759  0.00  0.00    +0.142 C 
BRANCH   4   5
ATOM      5  N   UNL     1       6.351  -3.962  25.823  0.00  0.00    -0.174 NA
BRANCH   5   6
ATOM      6  S   UNL     1       8.097  -4.144  25.742  0.00  0.00    +0.061 S 
ATOM      7  O   UNL     1       8.369  -5.530  25.421  0.00  0.00    -0.153 OA
ATOM      8  O   UNL     1       8.660  -3.525  26.928  0.00  0.00    -0.153 OA
BRANCH   6   9
ATOM      9  C   UNL     1       8.571  -3.149  24.321  0.00  0.00    +0.106 A 
ATOM     10  C   UNL     1       9.873  -2.636  24.199  0.00  0.00    +0.030 A 
ATOM     11  C   UNL     1      10.228  -1.882  23.060  0.00  0.00    +0.024 A 
ATOM     12  C   UNL     1       9.309  -1.661  22.029  0.00  0.00    +0.025 A 
ATOM     13  C   UNL     1       7.994  -2.101  22.216  0.00  0.00    +0.024 A 
ATOM     14  C   UNL     1       7.627  -2.858  23.340  0.00  0.00    +0.030 A 
BRANCH  12  15
ATOM     15  N   UNL     1       9.630  -0.826  20.956  0.00  0.00    -0.358 N 
ATOM     16  H   UNL     1       9.713   0.157  21.194  0.00  0.00    +0.142 HD
ATOM     17  H   UNL     1      10.416  -1.148  20.397  0.00  0.00    +0.142 HD
ENDBRANCH  12  15
ENDBRANCH   6   9
ENDBRANCH   5   6
BRANCH   5  18
ATOM     18  C   UNL     1       5.698  -5.314  25.932  0.00  0.00    +0.112 C 
BRANCH  18  20
ATOM     19  C   UNL     1       5.416  -5.837  23.422  0.00  0.00    +0.008 C 
ATOM     20  C   UNL     1       4.747  -5.751  24.803  0.00  0.00    -0.001 C 
ATOM     21  C   UNL     1       4.196  -7.132  25.208  0.00  0.00    +0.008 C 
ENDBRANCH  18  20
ENDBRANCH   5  18
ENDBRANCH   4   5
ENDBRANCH   1   4
BRANCH   1  22
ATOM     22  C   UNL     1       5.876  -0.136  25.942  0.00  0.00    +0.110 C 
BRANCH  22  23
ATOM     23  N   UNL     1       5.379   1.126  26.684  0.00  0.00    -0.275 N 
ATOM     24  H   UNL     1       5.213   0.887  27.654  0.00  0.00    +0.152 HD
ATOM     25  C   UNL     1       5.200   2.483  26.669  0.00  0.00    +0.401 C 
ATOM     26  O   UNL     1       4.795   3.012  27.728  0.00  0.00    -0.226 OA
BRANCH  25  27
ATOM     27  O   UNL     1       5.409   3.185  25.547  0.00  0.00    -0.444 OA
BRANCH  27  28
ATOM     28  C   UNL     1       6.324   4.341  25.524  0.00  0.00    +0.212 C 
ATOM     29  C   UNL     1       6.416   5.319  24.336  0.00  0.00    +0.090 C 
ATOM     30  C   UNL     1       6.145   4.925  22.907  0.00  0.00    +0.040 C 
ATOM     31  C   UNL     1       7.269   5.558  22.096  0.00  0.00    +0.163 C 
ATOM     32  O   UNL     1       8.322   5.917  22.984  0.00  0.00    -0.351 OA
ATOM     33  C   UNL     1       7.870   5.779  24.324  0.00  0.00    +0.257 C 
ATOM     34  O   UNL     1       8.637   4.801  25.014  0.00  0.00    -0.347 OA
ATOM     35  C   UNL     1       7.786   4.180  25.981  0.00  0.00    +0.208 C 
ENDBRANCH  27  28
ENDBRANCH  25  27
ENDBRANCH  22  23
BRANCH  22  36
ATOM     36  C   UNL     1       7.455   0.018  25.820  0.00  0.00    +0.060 C 
BRANCH  36  37
ATOM     37  C   UNL     1       8.128   0.826  24.724  0.00  0.00    -0.046 A 
ATOM     38  C   UNL     1       7.401   1.177  23.579  0.00  0.00    +0.004 A 
ATOM     39  C   UNL     1       7.986   1.922  22.547  0.00  0.00    +0.000 A 
ATOM     40  C   UNL     1       9.321   2.304  22.625  0.00  0.00    +0.000 A 
ATOM     41  C   UNL     1      10.087   1.886  23.707  0.00  0.00    +0.000 A 
ATOM     42  C   UNL     1       9.501   1.142  24.745  0.00  0.00    +0.004 A 
ENDBRANCH  36  37
ENDBRANCH  22  36
ENDBRANCH   1  22
TORSDOF 14
ENDMDL
MODEL 9
REMARK VINA RESULT:      -6.7      2.597      8.255
REMARK  Name = 
REMARK  16 active torsions:
REMARK  status: ('A' for Active; 'I' for Inactive)
REMARK    1  A    between atoms: C_1  and  C_2
REMARK    2  A    between atoms: C_2  and  C_3
REMARK    3  A    between atoms: C_2  and  C_4
REMARK    4  A    between atoms: C_4  and  N_5
REMARK    5  A    between atoms: N_5  and  C_6
REMARK    6  A    between atoms: N_5  and  S_33
REMARK    7  A    between atoms: C_6  and  C_7
REMARK    8  A    between atoms: C_7  and  C_8
REMARK    9  A    between atoms: C_7  and  O_32
REMARK   10  A    between atoms: C_8  and  C_10
REMARK   11  A    between atoms: C_8  and  N_17
REMARK   12  A    between atoms: C_10  and  C_11
REMARK   13  A    between atoms: C_18  and  O_20
REMARK   14  A    between atoms: O_20  and  C_21
REMARK   15  A    between atoms: S_33  and  C_36
REMARK   16  A    between atoms: C_39  and  N_42
REMARK                            x       y       z     vdW  Elec       q    Type
REMARK                         _______ _______ _______ _____ _____    ______ ____
ROOT
ATOM      1  C   UNL     1       5.752  -0.500  26.506  0.00  0.00    +0.151 C 
ENDROOT
BRANCH   1   2
ATOM      2  O   UNL     1       5.185  -0.778  25.193  0.00  0.00    -0.389 OA
ATOM      3  H   UNL     1       4.671  -0.008  24.889  0.00  0.00    +0.210 HD
ENDBRANCH   1   2
BRANCH   1   4
ATOM      4  C   UNL     1       6.091  -1.884  27.155  0.00  0.00    +0.142 C 
BRANCH   4   5
ATOM      5  N   UNL     1       5.689  -3.165  26.356  0.00  0.00    -0.174 NA
BRANCH   5   6
ATOM      6  S   UNL     1       7.029  -4.231  25.961  0.00  0.00    +0.061 S 
ATOM      7  O   UNL     1       6.463  -5.449  25.418  0.00  0.00    -0.153 OA
ATOM      8  O   UNL     1       7.919  -4.264  27.107  0.00  0.00    -0.153 OA
BRANCH   6   9
ATOM      9  C   UNL     1       7.880  -3.380  24.625  0.00  0.00    +0.106 A 
ATOM     10  C   UNL     1       9.245  -3.060  24.723  0.00  0.00    +0.030 A 
ATOM     11  C   UNL     1       9.896  -2.417  23.648  0.00  0.00    +0.024 A 
ATOM     12  C   UNL     1       9.210  -2.119  22.467  0.00  0.00    +0.025 A 
ATOM     13  C   UNL     1       7.833  -2.363  22.427  0.00  0.00    +0.024 A 
ATOM     14  C   UNL     1       7.172  -3.007  23.485  0.00  0.00    +0.030 A 
BRANCH  12  15
ATOM     15  N   UNL     1       9.828  -1.390  21.449  0.00  0.00    -0.358 N 
ATOM     16  H   UNL     1      10.595  -1.870  20.988  0.00  0.00    +0.142 HD
ATOM     17  H   UNL     1       9.184  -0.978  20.779  0.00  0.00    +0.142 HD
ENDBRANCH  12  15
ENDBRANCH   6   9
ENDBRANCH   5   6
BRANCH   5  18
ATOM     18  C   UNL     1       4.512  -3.974  26.828  0.00  0.00    +0.112 C 
BRANCH  18  20
ATOM     19  C   UNL     1       2.406  -2.525  26.481  0.00  0.00    +0.008 C 
ATOM     20  C   UNL     1       3.171  -3.799  26.090  0.00  0.00    -0.001 C 
ATOM     21  C   UNL     1       3.503  -3.773  24.586  0.00  0.00    +0.008 C 
ENDBRANCH  18  20
ENDBRANCH   5  18
ENDBRANCH   4   5
ENDBRANCH   1   4
BRANCH   1  22
ATOM     22  C   UNL     1       6.836   0.668  26.282  0.00  0.00    +0.110 C 
BRANCH  22  23
ATOM     23  N   UNL     1       7.011   1.863  27.246  0.00  0.00    -0.275 N 
ATOM     24  H   UNL     1       7.457   1.533  28.094  0.00  0.00    +0.152 HD
ATOM     25  C   UNL     1       6.978   3.219  27.428  0.00  0.00    +0.401 C 
ATOM     26  O   UNL     1       7.358   3.651  28.539  0.00  0.00    -0.226 OA
BRANCH  25  27
ATOM     27  O   UNL     1       6.512   4.024  26.462  0.00  0.00    -0.444 OA
BRANCH  27  28
ATOM     28  C   UNL     1       7.160   4.090  25.140  0.00  0.00    +0.212 C 
ATOM     29  C   UNL     1       8.535   4.748  24.908  0.00  0.00    +0.090 C 
ATOM     30  C   UNL     1       9.062   5.895  25.731  0.00  0.00    +0.040 C 
ATOM     31  C   UNL     1       9.649   6.876  24.724  0.00  0.00    +0.163 C 
ATOM     32  O   UNL     1       9.142   6.556  23.432  0.00  0.00    -0.351 OA
ATOM     33  C   UNL     1       8.462   5.310  23.492  0.00  0.00    +0.257 C 
ATOM     34  O   UNL     1       7.088   5.472  23.163  0.00  0.00    -0.347 OA
ATOM     35  C   UNL     1       6.345   4.496  23.898  0.00  0.00    +0.208 C 
ENDBRANCH  27  28
ENDBRANCH  25  27
ENDBRANCH  22  23
BRANCH  22  36
ATOM     36  C   UNL     1       8.281   0.364  25.690  0.00  0.00    +0.060 C 
BRANCH  36  37
ATOM     37  C   UNL     1       8.789   0.966  24.393  0.00  0.00    -0.046 A 
ATOM     38  C   UNL     1      10.110   1.426  24.315  0.00  0.00    +0.004 A 
ATOM     39  C   UNL     1      10.616   1.987  23.135  0.00  0.00    +0.000 A 
ATOM     40  C   UNL     1       9.800   2.130  22.017  0.00  0.00    +0.000 A 
ATOM     41  C   UNL     1       8.460   1.769  22.103  0.00  0.00    +0.000 A 
ATOM     42  C   UNL     1       7.952   1.202  23.283  0.00  0.00    +0.004 A 
ENDBRANCH  36  37
ENDBRANCH  22  36
ENDBRANCH   1  22
TORSDOF 14
ENDMDL
