MODEL 1
REMARK VINA RESULT:      -6.8      0.000      0.000
REMARK  Name = 
REMARK  18 active torsions:
REMARK  status: ('A' for Active; 'I' for Inactive)
REMARK    1  A    between atoms: C_1  and  C_2
REMARK    2  A    between atoms: C_2  and  C_3
REMARK    3  A    between atoms: C_3  and  C_4
REMARK    4  A    between atoms: C_4  and  C_6
REMARK    5  A    between atoms: C_4  and  N_14
REMARK    6  A    between atoms: C_6  and  C_8
REMARK    7  A    between atoms: N_10  and  C_11
REMARK    8  A    between atoms: C_15  and  C_17
REMARK    9  A    between atoms: C_28  and  C_30
REMARK   10  A    between atoms: C_30  and  C_32
REMARK   11  A    between atoms: C_30  and  N_36
REMARK   12  A    between atoms: C_32  and  C_33
REMARK   13  A    between atoms: C_32  and  C_34
REMARK   14  A    between atoms: C_32  and  C_35
REMARK   15  A    between atoms: C_37  and  C_39
REMARK   16  A    between atoms: C_39  and  C_41
REMARK   17  A    between atoms: C_39  and  N_47
REMARK   18  A    between atoms: C_48  and  C_50
REMARK                            x       y       z     vdW  Elec       q    Type
REMARK                         _______ _______ _______ _____ _____    ______ ____
ROOT
ATOM      1  N   UNL     1       4.708  -4.050  26.860  0.00  0.00    -0.228 N 
ATOM      2  C   UNL     1       4.508  -2.753  26.283  0.00  0.00    +0.243 C 
ATOM      3  O   UNL     1       3.856  -2.627  25.239  0.00  0.00    -0.273 OA
ATOM      4  C   UNL     1       4.059  -5.246  26.386  0.00  0.00    +0.240 C 
ATOM      5  O   UNL     1       3.971  -6.255  27.100  0.00  0.00    -0.273 OA
ENDROOT
BRANCH   4   6
ATOM      6  C   UNL     1       3.329  -5.320  25.017  0.00  0.00    +0.144 C 
ATOM      7  N   UNL     1       4.290  -5.110  23.911  0.00  0.00    -0.305 NA
ATOM      8  H   UNL     1       4.413  -4.109  23.803  0.00  0.00    +0.123 HD
ATOM      9  C   UNL     1       3.700  -5.686  22.698  0.00  0.00    +0.085 C 
ATOM     10  C   UNL     1       2.641  -6.679  23.153  0.00  0.00    +0.008 C 
ATOM     11  C   UNL     1       1.194  -6.206  22.939  0.00  0.00    +0.005 C 
ATOM     12  C   UNL     1       0.443  -6.493  24.238  0.00  0.00    +0.001 C 
ATOM     13  C   UNL     1       1.439  -7.204  25.141  0.00  0.00    +0.006 C 
ATOM     14  C   UNL     1       2.817  -6.747  24.667  0.00  0.00    +0.019 C 
ENDBRANCH   4   6
BRANCH   1  15
ATOM     15  C   UNL     1       5.626  -4.264  28.057  0.00  0.00    +0.160 C 
BRANCH  15  16
ATOM     16  C   UNL     1       6.826  -5.153  27.657  0.00  0.00    +0.238 C 
ATOM     17  O   UNL     1       7.189  -6.172  28.233  0.00  0.00    -0.285 OA
BRANCH  16  18
ATOM     18  C   UNL     1       7.638  -4.695  26.441  0.00  0.00    +0.282 C 
ATOM     19  N   UNL     1       7.323  -5.310  25.243  0.00  0.00    -0.306 N 
ATOM     20  H   UNL     1       6.568  -5.990  25.258  0.00  0.00    +0.149 HD
ATOM     21  O   UNL     1       8.502  -3.841  26.586  0.00  0.00    -0.267 OA
BRANCH  19  22
ATOM     22  C   UNL     1       8.066  -5.084  24.037  0.00  0.00    +0.073 C 
ATOM     23  C   UNL     1       7.574  -4.139  22.973  0.00  0.00    +0.024 C 
ATOM     24  C   UNL     1       7.582  -5.616  22.714  0.00  0.00    +0.024 C 
ENDBRANCH  19  22
ENDBRANCH  16  18
ENDBRANCH  15  16
BRANCH  15  25
ATOM     25  C   UNL     1       4.914  -4.799  29.335  0.00  0.00    +0.031 C 
BRANCH  25  27
ATOM     26  C   UNL     1       2.407  -4.461  29.916  0.00  0.00    +0.004 C 
ATOM     27  C   UNL     1       3.830  -3.948  30.002  0.00  0.00    -0.001 C 
ENDBRANCH  25  27
ENDBRANCH  15  25
ENDBRANCH   1  15
BRANCH   2  28
ATOM     28  C   UNL     1       5.083  -1.408  26.984  0.00  0.00    +0.165 C 
BRANCH  28  29
ATOM     29  N   UNL     1       6.031  -0.598  26.115  0.00  0.00    -0.302 N 
ATOM     30  H   UNL     1       5.691  -0.325  25.193  0.00  0.00    +0.150 HD
ATOM     31  C   UNL     1       7.307  -0.157  26.426  0.00  0.00    +0.234 C 
ATOM     32  O   UNL     1       7.813  -0.357  27.533  0.00  0.00    -0.274 OA
BRANCH  31  33
ATOM     33  C   UNL     1       8.091   0.764  25.379  0.00  0.00    +0.162 C 
BRANCH  33  34
ATOM     34  C   UNL     1       9.447   0.128  24.907  0.00  0.00    +0.018 C 
ATOM     35  C   UNL     1      10.454   1.068  24.178  0.00  0.00    +0.006 C 
ATOM     36  C   UNL     1      10.255   1.296  22.667  0.00  0.00    +0.000 C 
ATOM     37  C   UNL     1       9.841   0.056  21.881  0.00  0.00    +0.000 C 
ATOM     38  C   UNL     1       8.744  -0.710  22.601  0.00  0.00    +0.000 C 
ATOM     39  C   UNL     1       9.219  -1.101  23.999  0.00  0.00    +0.006 C 
ENDBRANCH  33  34
BRANCH  33  40
ATOM     40  N   UNL     1       8.152   2.178  25.809  0.00  0.00    -0.298 N 
ATOM     41  H   UNL     1       8.694   2.397  26.644  0.00  0.00    +0.150 HD
ATOM     42  C   UNL     1       7.734   3.266  25.080  0.00  0.00    +0.264 C 
ATOM     43  O   UNL     1       7.208   3.157  23.977  0.00  0.00    -0.268 OA
BRANCH  42  44
ATOM     44  C   UNL     1       8.078   4.614  25.635  0.00  0.00    +0.143 A 
ATOM     45  C   UNL     1       9.008   5.405  24.973  0.00  0.00    +0.143 A 
ATOM     46  N   UNL     1       9.484   6.568  25.491  0.00  0.00    -0.259 NA
ATOM     47  C   UNL     1       8.981   6.911  26.698  0.00  0.00    +0.130 A 
ATOM     48  C   UNL     1       8.027   6.139  27.348  0.00  0.00    +0.131 A 
ATOM     49  N   UNL     1       7.550   4.968  26.843  0.00  0.00    -0.247 NA
ENDBRANCH  42  44
ENDBRANCH  33  40
ENDBRANCH  31  33
ENDBRANCH  28  29
BRANCH  28  50
ATOM     50  C   UNL     1       4.010  -0.546  27.813  0.00  0.00    -0.011 C 
ATOM     51  C   UNL     1       4.515  -0.337  29.263  0.00  0.00    +0.013 C 
ATOM     52  C   UNL     1       2.629  -1.229  27.938  0.00  0.00    +0.013 C 
ATOM     53  C   UNL     1       3.723   0.847  27.226  0.00  0.00    +0.013 C 
ENDBRANCH  28  50
ENDBRANCH   2  28
TORSDOF 14
ENDMDL
MODEL 2
REMARK VINA RESULT:      -6.5      2.768      8.987
REMARK  Name = 
REMARK  18 active torsions:
REMARK  status: ('A' for Active; 'I' for Inactive)
REMARK    1  A    between atoms: C_1  and  C_2
REMARK    2  A    between atoms: C_2  and  C_3
REMARK    3  A    between atoms: C_3  and  C_4
REMARK    4  A    between atoms: C_4  and  C_6
REMARK    5  A    between atoms: C_4  and  N_14
REMARK    6  A    between atoms: C_6  and  C_8
REMARK    7  A    between atoms: N_10  and  C_11
REMARK    8  A    between atoms: C_15  and  C_17
REMARK    9  A    between atoms: C_28  and  C_30
REMARK   10  A    between atoms: C_30  and  C_32
REMARK   11  A    between atoms: C_30  and  N_36
REMARK   12  A    between atoms: C_32  and  C_33
REMARK   13  A    between atoms: C_32  and  C_34
REMARK   14  A    between atoms: C_32  and  C_35
REMARK   15  A    between atoms: C_37  and  C_39
REMARK   16  A    between atoms: C_39  and  C_41
REMARK   17  A    between atoms: C_39  and  N_47
REMARK   18  A    between atoms: C_48  and  C_50
REMARK                            x       y       z     vdW  Elec       q    Type
REMARK                         _______ _______ _______ _____ _____    ______ ____
ROOT
ATOM      1  N   UNL     1       6.606   3.184  24.628  0.00  0.00    -0.228 N 
ATOM      2  C   UNL     1       6.578   2.002  23.818  0.00  0.00    +0.243 C 
ATOM      3  O   UNL     1       5.606   1.764  23.091  0.00  0.00    -0.273 OA
ATOM      4  C   UNL     1       5.621   4.233  24.546  0.00  0.00    +0.240 C 
ATOM      5  O   UNL     1       5.856   5.369  24.983  0.00  0.00    -0.273 OA
ENDROOT
BRANCH   4   6
ATOM      6  C   UNL     1       4.265   4.058  23.810  0.00  0.00    +0.144 C 
ATOM      7  N   UNL     1       3.419   3.073  24.522  0.00  0.00    -0.305 NA
ATOM      8  H   UNL     1       3.712   2.150  24.222  0.00  0.00    +0.123 HD
ATOM      9  C   UNL     1       2.028   3.321  24.127  0.00  0.00    +0.085 C 
ATOM     10  C   UNL     1       1.968   4.744  23.595  0.00  0.00    +0.008 C 
ATOM     11  C   UNL     1       1.814   4.845  22.068  0.00  0.00    +0.005 C 
ATOM     12  C   UNL     1       2.828   5.883  21.593  0.00  0.00    +0.001 C 
ATOM     13  C   UNL     1       3.483   6.426  22.855  0.00  0.00    +0.006 C 
ATOM     14  C   UNL     1       3.352   5.315  23.893  0.00  0.00    +0.019 C 
ENDBRANCH   4   6
BRANCH   1  15
ATOM     15  C   UNL     1       7.711   3.436  25.645  0.00  0.00    +0.160 C 
BRANCH  15  16
ATOM     16  C   UNL     1       7.201   3.137  27.074  0.00  0.00    +0.238 C 
ATOM     17  O   UNL     1       7.172   3.930  28.007  0.00  0.00    -0.285 OA
BRANCH  16  18
ATOM     18  C   UNL     1       6.707   1.710  27.337  0.00  0.00    +0.282 C 
ATOM     19  N   UNL     1       5.334   1.546  27.366  0.00  0.00    -0.306 N 
ATOM     20  H   UNL     1       4.767   2.370  27.185  0.00  0.00    +0.149 HD
ATOM     21  O   UNL     1       7.525   0.817  27.511  0.00  0.00    -0.267 OA
BRANCH  19  22
ATOM     22  C   UNL     1       4.710   0.304  27.717  0.00  0.00    +0.073 C 
ATOM     23  C   UNL     1       4.507  -0.791  26.703  0.00  0.00    +0.024 C 
ATOM     24  C   UNL     1       3.325  -0.034  27.232  0.00  0.00    +0.024 C 
ENDBRANCH  19  22
ENDBRANCH  16  18
ENDBRANCH  15  16
BRANCH  15  25
ATOM     25  C   UNL     1       8.372   4.843  25.553  0.00  0.00    +0.031 C 
BRANCH  25  27
ATOM     26  C   UNL     1       9.035   6.141  23.406  0.00  0.00    +0.004 C 
ATOM     27  C   UNL     1       9.406   5.117  24.458  0.00  0.00    -0.001 C 
ENDBRANCH  25  27
ENDBRANCH  15  25
ENDBRANCH   1  15
BRANCH   2  28
ATOM     28  C   UNL     1       7.820   0.958  23.787  0.00  0.00    +0.165 C 
BRANCH  28  29
ATOM     29  N   UNL     1       7.419  -0.505  23.873  0.00  0.00    -0.302 N 
ATOM     30  H   UNL     1       6.633  -0.801  23.293  0.00  0.00    +0.150 HD
ATOM     31  C   UNL     1       8.004  -1.508  24.629  0.00  0.00    +0.234 C 
ATOM     32  O   UNL     1       9.004  -1.302  25.320  0.00  0.00    -0.274 OA
BRANCH  31  33
ATOM     33  C   UNL     1       7.462  -3.006  24.491  0.00  0.00    +0.162 C 
BRANCH  33  34
ATOM     34  C   UNL     1       6.537  -3.205  23.237  0.00  0.00    +0.018 C 
ATOM     35  C   UNL     1       5.116  -3.793  23.491  0.00  0.00    +0.006 C 
ATOM     36  C   UNL     1       4.983  -5.324  23.594  0.00  0.00    +0.000 C 
ATOM     37  C   UNL     1       5.842  -6.108  22.606  0.00  0.00    +0.000 C 
ATOM     38  C   UNL     1       7.255  -5.554  22.545  0.00  0.00    +0.000 C 
ATOM     39  C   UNL     1       7.214  -4.077  22.157  0.00  0.00    +0.006 C 
ENDBRANCH  33  34
BRANCH  33  40
ATOM     40  N   UNL     1       6.943  -3.537  25.771  0.00  0.00    -0.298 N 
ATOM     41  H   UNL     1       6.107  -3.104  26.160  0.00  0.00    +0.150 HD
ATOM     42  C   UNL     1       7.342  -4.699  26.388  0.00  0.00    +0.264 C 
ATOM     43  O   UNL     1       8.234  -5.411  25.938  0.00  0.00    -0.268 OA
BRANCH  42  44
ATOM     44  C   UNL     1       6.536  -5.137  27.572  0.00  0.00    +0.143 A 
ATOM     45  C   UNL     1       5.465  -4.359  27.991  0.00  0.00    +0.143 A 
ATOM     46  N   UNL     1       4.784  -4.607  29.141  0.00  0.00    -0.259 NA
ATOM     47  C   UNL     1       5.215  -5.675  29.849  0.00  0.00    +0.130 A 
ATOM     48  C   UNL     1       6.265  -6.475  29.415  0.00  0.00    +0.131 A 
ATOM     49  N   UNL     1       6.960  -6.230  28.271  0.00  0.00    -0.247 NA
ENDBRANCH  42  44
ENDBRANCH  33  40
ENDBRANCH  31  33
ENDBRANCH  28  29
BRANCH  28  50
ATOM     50  C   UNL     1       8.977   1.289  22.722  0.00  0.00    -0.011 C 
ATOM     51  C   UNL     1      10.301   1.596  23.467  0.00  0.00    +0.013 C 
ATOM     52  C   UNL     1       8.680   2.530  21.850  0.00  0.00    +0.013 C 
ATOM     53  C   UNL     1       9.268   0.153  21.726  0.00  0.00    +0.013 C 
ENDBRANCH  28  50
ENDBRANCH   2  28
TORSDOF 14
ENDMDL
MODEL 3
REMARK VINA RESULT:      -6.5      1.477      1.638
REMARK  Name = 
REMARK  18 active torsions:
REMARK  status: ('A' for Active; 'I' for Inactive)
REMARK    1  A    between atoms: C_1  and  C_2
REMARK    2  A    between atoms: C_2  and  C_3
REMARK    3  A    between atoms: C_3  and  C_4
REMARK    4  A    between atoms: C_4  and  C_6
REMARK    5  A    between atoms: C_4  and  N_14
REMARK    6  A    between atoms: C_6  and  C_8
REMARK    7  A    between atoms: N_10  and  C_11
REMARK    8  A    between atoms: C_15  and  C_17
REMARK    9  A    between atoms: C_28  and  C_30
REMARK   10  A    between atoms: C_30  and  C_32
REMARK   11  A    between atoms: C_30  and  N_36
REMARK   12  A    between atoms: C_32  and  C_33
REMARK   13  A    between atoms: C_32  and  C_34
REMARK   14  A    between atoms: C_32  and  C_35
REMARK   15  A    between atoms: C_37  and  C_39
REMARK   16  A    between atoms: C_39  and  C_41
REMARK   17  A    between atoms: C_39  and  N_47
REMARK   18  A    between atoms: C_48  and  C_50
REMARK                            x       y       z     vdW  Elec       q    Type
REMARK                         _______ _______ _______ _____ _____    ______ ____
ROOT
ATOM      1  N   UNL     1       4.526  -4.536  26.935  0.00  0.00    -0.228 N 
ATOM      2  C   UNL     1       4.273  -3.336  26.193  0.00  0.00    +0.243 C 
ATOM      3  O   UNL     1       3.595  -3.371  25.160  0.00  0.00    -0.273 OA
ATOM      4  C   UNL     1       3.905  -5.803  26.643  0.00  0.00    +0.240 C 
ATOM      5  O   UNL     1       3.865  -6.708  27.489  0.00  0.00    -0.273 OA
ENDROOT
BRANCH   4   6
ATOM      6  C   UNL     1       3.147  -6.082  25.317  0.00  0.00    +0.144 C 
ATOM      7  N   UNL     1       3.500  -7.423  24.796  0.00  0.00    -0.305 NA
ATOM      8  H   UNL     1       4.374  -7.330  24.290  0.00  0.00    +0.123 HD
ATOM      9  C   UNL     1       2.426  -7.841  23.890  0.00  0.00    +0.085 C 
ATOM     10  C   UNL     1       1.202  -7.011  24.246  0.00  0.00    +0.008 C 
ATOM     11  C   UNL     1       0.857  -5.917  23.222  0.00  0.00    +0.005 C 
ATOM     12  C   UNL     1       0.589  -4.642  24.017  0.00  0.00    +0.001 C 
ATOM     13  C   UNL     1       0.694  -5.040  25.482  0.00  0.00    +0.006 C 
ATOM     14  C   UNL     1       1.613  -6.258  25.508  0.00  0.00    +0.019 C 
ENDBRANCH   4   6
BRANCH   1  15
ATOM     15  C   UNL     1       5.478  -4.561  28.125  0.00  0.00    +0.160 C 
BRANCH  15  16
ATOM     16  C   UNL     1       6.745  -5.377  27.779  0.00  0.00    +0.238 C 
ATOM     17  O   UNL     1       7.111  -6.405  28.336  0.00  0.00    -0.285 OA
BRANCH  16  18
ATOM     18  C   UNL     1       7.621  -4.828  26.649  0.00  0.00    +0.282 C 
ATOM     19  N   UNL     1       7.240  -5.182  25.367  0.00  0.00    -0.306 N 
ATOM     20  H   UNL     1       6.401  -5.749  25.276  0.00  0.00    +0.149 HD
ATOM     21  O   UNL     1       8.589  -4.133  26.926  0.00  0.00    -0.267 OA
BRANCH  19  22
ATOM     22  C   UNL     1       8.017  -4.852  24.209  0.00  0.00    +0.073 C 
ATOM     23  C   UNL     1       7.563  -3.806  23.225  0.00  0.00    +0.024 C 
ATOM     24  C   UNL     1       7.565  -5.253  22.829  0.00  0.00    +0.024 C 
ENDBRANCH  19  22
ENDBRANCH  16  18
ENDBRANCH  15  16
BRANCH  15  25
ATOM     25  C   UNL     1       4.834  -5.035  29.462  0.00  0.00    +0.031 C 
BRANCH  25  27
ATOM     26  C   UNL     1       2.303  -4.568  29.791  0.00  0.00    +0.004 C 
ATOM     27  C   UNL     1       3.734  -4.188  30.107  0.00  0.00    -0.001 C 
ENDBRANCH  25  27
ENDBRANCH  15  25
ENDBRANCH   1  15
BRANCH   2  28
ATOM     28  C   UNL     1       4.822  -1.892  26.691  0.00  0.00    +0.165 C 
BRANCH  28  29
ATOM     29  N   UNL     1       5.596  -1.114  25.641  0.00  0.00    -0.302 N 
ATOM     30  H   UNL     1       5.082  -0.831  24.806  0.00  0.00    +0.150 HD
ATOM     31  C   UNL     1       6.922  -0.713  25.680  0.00  0.00    +0.234 C 
ATOM     32  O   UNL     1       7.638  -0.928  26.661  0.00  0.00    -0.274 OA
BRANCH  31  33
ATOM     33  C   UNL     1       7.502   0.182  24.488  0.00  0.00    +0.162 C 
BRANCH  33  34
ATOM     34  C   UNL     1       9.048  -0.004  24.286  0.00  0.00    +0.018 C 
ATOM     35  C   UNL     1       9.949   1.245  24.526  0.00  0.00    +0.006 C 
ATOM     36  C   UNL     1      10.110   2.245  23.365  0.00  0.00    +0.000 C 
ATOM     37  C   UNL     1      10.242   1.607  21.986  0.00  0.00    +0.000 C 
ATOM     38  C   UNL     1       9.216   0.502  21.791  0.00  0.00    +0.000 C 
ATOM     39  C   UNL     1       9.382  -0.553  22.882  0.00  0.00    +0.006 C 
ENDBRANCH  33  34
BRANCH  33  40
ATOM     40  N   UNL     1       7.018   1.579  24.546  0.00  0.00    -0.298 N 
ATOM     41  H   UNL     1       7.273   2.136  25.360  0.00  0.00    +0.150 HD
ATOM     42  C   UNL     1       6.438   2.279  23.515  0.00  0.00    +0.264 C 
ATOM     43  O   UNL     1       6.219   1.776  22.417  0.00  0.00    -0.268 OA
BRANCH  42  44
ATOM     44  C   UNL     1       6.211   3.742  23.746  0.00  0.00    +0.143 A 
ATOM     45  C   UNL     1       6.303   4.622  22.675  0.00  0.00    +0.143 A 
ATOM     46  N   UNL     1       6.261   5.972  22.830  0.00  0.00    -0.259 NA
ATOM     47  C   UNL     1       6.113   6.403  24.103  0.00  0.00    +0.130 A 
ATOM     48  C   UNL     1       5.987   5.524  25.171  0.00  0.00    +0.131 A 
ATOM     49  N   UNL     1       6.037   4.172  25.029  0.00  0.00    -0.247 NA
ENDBRANCH  42  44
ENDBRANCH  33  40
ENDBRANCH  31  33
ENDBRANCH  28  29
BRANCH  28  50
ATOM     50  C   UNL     1       3.791  -1.024  27.566  0.00  0.00    -0.011 C 
ATOM     51  C   UNL     1       4.292  -0.935  29.030  0.00  0.00    +0.013 C 
ATOM     52  C   UNL     1       2.372  -1.632  27.637  0.00  0.00    +0.013 C 
ATOM     53  C   UNL     1       3.590   0.418  27.066  0.00  0.00    +0.013 C 
ENDBRANCH  28  50
ENDBRANCH   2  28
TORSDOF 14
ENDMDL
MODEL 4
REMARK VINA RESULT:      -6.4      2.912      8.603
REMARK  Name = 
REMARK  18 active torsions:
REMARK  status: ('A' for Active; 'I' for Inactive)
REMARK    1  A    between atoms: C_1  and  C_2
REMARK    2  A    between atoms: C_2  and  C_3
REMARK    3  A    between atoms: C_3  and  C_4
REMARK    4  A    between atoms: C_4  and  C_6
REMARK    5  A    between atoms: C_4  and  N_14
REMARK    6  A    between atoms: C_6  and  C_8
REMARK    7  A    between atoms: N_10  and  C_11
REMARK    8  A    between atoms: C_15  and  C_17
REMARK    9  A    between atoms: C_28  and  C_30
REMARK   10  A    between atoms: C_30  and  C_32
REMARK   11  A    between atoms: C_30  and  N_36
REMARK   12  A    between atoms: C_32  and  C_33
REMARK   13  A    between atoms: C_32  and  C_34
REMARK   14  A    between atoms: C_32  and  C_35
REMARK   15  A    between atoms: C_37  and  C_39
REMARK   16  A    between atoms: C_39  and  C_41
REMARK   17  A    between atoms: C_39  and  N_47
REMARK   18  A    between atoms: C_48  and  C_50
REMARK                            x       y       z     vdW  Elec       q    Type
REMARK                         _______ _______ _______ _____ _____    ______ ____
ROOT
ATOM      1  N   UNL     1       5.962   2.438  25.190  0.00  0.00    -0.228 N 
ATOM      2  C   UNL     1       6.671   1.916  24.060  0.00  0.00    +0.243 C 
ATOM      3  O   UNL     1       6.361   2.261  22.913  0.00  0.00    -0.273 OA
ATOM      4  C   UNL     1       4.977   3.487  25.103  0.00  0.00    +0.240 C 
ATOM      5  O   UNL     1       4.651   4.147  26.100  0.00  0.00    -0.273 OA
ENDROOT
BRANCH   4   6
ATOM      6  C   UNL     1       4.351   3.942  23.756  0.00  0.00    +0.144 C 
ATOM      7  N   UNL     1       3.466   2.884  23.218  0.00  0.00    -0.305 NA
ATOM      8  H   UNL     1       4.055   2.217  22.731  0.00  0.00    +0.123 HD
ATOM      9  C   UNL     1       2.535   3.523  22.282  0.00  0.00    +0.085 C 
ATOM     10  C   UNL     1       2.508   5.003  22.629  0.00  0.00    +0.008 C 
ATOM     11  C   UNL     1       3.237   5.905  21.619  0.00  0.00    +0.005 C 
ATOM     12  C   UNL     1       4.110   6.858  22.433  0.00  0.00    +0.001 C 
ATOM     13  C   UNL     1       3.803   6.553  23.891  0.00  0.00    +0.006 C 
ATOM     14  C   UNL     1       3.327   5.103  23.913  0.00  0.00    +0.019 C 
ENDBRANCH   4   6
BRANCH   1  15
ATOM     15  C   UNL     1       6.213   1.927  26.604  0.00  0.00    +0.160 C 
BRANCH  15  16
ATOM     16  C   UNL     1       4.945   1.231  27.153  0.00  0.00    +0.238 C 
ATOM     17  O   UNL     1       4.074   1.759  27.833  0.00  0.00    -0.285 OA
BRANCH  16  18
ATOM     18  C   UNL     1       4.790  -0.258  26.825  0.00  0.00    +0.282 C 
ATOM     19  N   UNL     1       4.699  -1.106  27.914  0.00  0.00    -0.306 N 
ATOM     20  H   UNL     1       4.715  -0.676  28.835  0.00  0.00    +0.149 HD
ATOM     21  O   UNL     1       4.762  -0.613  25.655  0.00  0.00    -0.267 OA
BRANCH  19  22
ATOM     22  C   UNL     1       4.670  -2.533  27.784  0.00  0.00    +0.073 C 
ATOM     23  C   UNL     1       3.391  -3.273  27.494  0.00  0.00    +0.024 C 
ATOM     24  C   UNL     1       4.037  -3.398  28.842  0.00  0.00    +0.024 C 
ENDBRANCH  19  22
ENDBRANCH  16  18
ENDBRANCH  15  16
BRANCH  15  25
ATOM     25  C   UNL     1       6.757   2.998  27.595  0.00  0.00    +0.031 C 
BRANCH  25  27
ATOM     26  C   UNL     1       7.577   1.208  29.285  0.00  0.00    +0.004 C 
ATOM     27  C   UNL     1       7.037   2.603  29.047  0.00  0.00    -0.001 C 
ENDBRANCH  25  27
ENDBRANCH  15  25
ENDBRANCH   1  15
BRANCH   2  28
ATOM     28  C   UNL     1       7.922   0.897  24.233  0.00  0.00    +0.165 C 
BRANCH  28  29
ATOM     29  N   UNL     1       7.580  -0.566  24.013  0.00  0.00    -0.302 N 
ATOM     30  H   UNL     1       7.098  -0.802  23.145  0.00  0.00    +0.150 HD
ATOM     31  C   UNL     1       7.861  -1.643  24.839  0.00  0.00    +0.234 C 
ATOM     32  O   UNL     1       8.501  -1.510  25.885  0.00  0.00    -0.274 OA
BRANCH  31  33
ATOM     33  C   UNL     1       7.479  -3.119  24.356  0.00  0.00    +0.162 C 
BRANCH  33  34
ATOM     34  C   UNL     1       6.707  -3.130  22.989  0.00  0.00    +0.018 C 
ATOM     35  C   UNL     1       5.190  -3.487  23.035  0.00  0.00    +0.006 C 
ATOM     36  C   UNL     1       4.806  -4.979  23.045  0.00  0.00    +0.000 C 
ATOM     37  C   UNL     1       5.653  -5.863  22.135  0.00  0.00    +0.000 C 
ATOM     38  C   UNL     1       7.132  -5.544  22.278  0.00  0.00    +0.000 C 
ATOM     39  C   UNL     1       7.374  -4.069  21.961  0.00  0.00    +0.006 C 
ENDBRANCH  33  34
BRANCH  33  40
ATOM     40  N   UNL     1       6.887  -3.931  25.442  0.00  0.00    -0.298 N 
ATOM     41  H   UNL     1       5.920  -3.742  25.703  0.00  0.00    +0.150 HD
ATOM     42  C   UNL     1       7.433  -5.065  25.997  0.00  0.00    +0.264 C 
ATOM     43  O   UNL     1       8.528  -5.502  25.658  0.00  0.00    -0.268 OA
BRANCH  42  44
ATOM     44  C   UNL     1       6.560  -5.832  26.943  0.00  0.00    +0.143 A 
ATOM     45  C   UNL     1       5.323  -6.288  26.509  0.00  0.00    +0.143 A 
ATOM     46  N   UNL     1       4.415  -6.855  27.347  0.00  0.00    -0.259 NA
ATOM     47  C   UNL     1       4.804  -6.955  28.638  0.00  0.00    +0.130 A 
ATOM     48  C   UNL     1       6.055  -6.529  29.068  0.00  0.00    +0.131 A 
ATOM     49  N   UNL     1       6.967  -5.952  28.240  0.00  0.00    -0.247 NA
ENDBRANCH  42  44
ENDBRANCH  33  40
ENDBRANCH  31  33
ENDBRANCH  28  29
BRANCH  28  50
ATOM     50  C   UNL     1       9.306   1.382  23.577  0.00  0.00    -0.011 C 
ATOM     51  C   UNL     1       9.410   2.927  23.656  0.00  0.00    +0.013 C 
ATOM     52  C   UNL     1       9.443   1.022  22.080  0.00  0.00    +0.013 C 
ATOM     53  C   UNL     1      10.565   0.807  24.250  0.00  0.00    +0.013 C 
ENDBRANCH  28  50
ENDBRANCH   2  28
TORSDOF 14
ENDMDL
MODEL 5
REMARK VINA RESULT:      -6.1      3.220      5.848
REMARK  Name = 
REMARK  18 active torsions:
REMARK  status: ('A' for Active; 'I' for Inactive)
REMARK    1  A    between atoms: C_1  and  C_2
REMARK    2  A    between atoms: C_2  and  C_3
REMARK    3  A    between atoms: C_3  and  C_4
REMARK    4  A    between atoms: C_4  and  C_6
REMARK    5  A    between atoms: C_4  and  N_14
REMARK    6  A    between atoms: C_6  and  C_8
REMARK    7  A    between atoms: N_10  and  C_11
REMARK    8  A    between atoms: C_15  and  C_17
REMARK    9  A    between atoms: C_28  and  C_30
REMARK   10  A    between atoms: C_30  and  C_32
REMARK   11  A    between atoms: C_30  and  N_36
REMARK   12  A    between atoms: C_32  and  C_33
REMARK   13  A    between atoms: C_32  and  C_34
REMARK   14  A    between atoms: C_32  and  C_35
REMARK   15  A    between atoms: C_37  and  C_39
REMARK   16  A    between atoms: C_39  and  C_41
REMARK   17  A    between atoms: C_39  and  N_47
REMARK   18  A    between atoms: C_48  and  C_50
REMARK                            x       y       z     vdW  Elec       q    Type
REMARK                         _______ _______ _______ _____ _____    ______ ____
ROOT
ATOM      1  N   UNL     1       6.167  -2.597  24.877  0.00  0.00    -0.228 N 
ATOM      2  C   UNL     1       6.256  -1.178  25.063  0.00  0.00    +0.243 C 
ATOM      3  O   UNL     1       5.519  -0.607  25.875  0.00  0.00    -0.273 OA
ATOM      4  C   UNL     1       5.361  -3.463  25.700  0.00  0.00    +0.240 C 
ATOM      5  O   UNL     1       5.572  -4.683  25.747  0.00  0.00    -0.273 OA
ENDROOT
BRANCH   4   6
ATOM      6  C   UNL     1       4.267  -2.928  26.664  0.00  0.00    +0.144 C 
ATOM      7  N   UNL     1       3.089  -2.464  25.897  0.00  0.00    -0.305 NA
ATOM      8  H   UNL     1       3.286  -1.521  25.580  0.00  0.00    +0.123 HD
ATOM      9  C   UNL     1       1.940  -2.468  26.808  0.00  0.00    +0.085 C 
ATOM     10  C   UNL     1       2.293  -3.400  27.957  0.00  0.00    +0.008 C 
ATOM     11  C   UNL     1       2.608  -2.684  29.281  0.00  0.00    +0.005 C 
ATOM     12  C   UNL     1       3.885  -3.318  29.828  0.00  0.00    +0.001 C 
ATOM     13  C   UNL     1       4.232  -4.442  28.864  0.00  0.00    +0.006 C 
ATOM     14  C   UNL     1       3.610  -4.041  27.530  0.00  0.00    +0.019 C 
ENDBRANCH   4   6
BRANCH   1  15
ATOM     15  C   UNL     1       6.948  -3.315  23.784  0.00  0.00    +0.160 C 
BRANCH  15  16
ATOM     16  C   UNL     1       6.066  -3.492  22.525  0.00  0.00    +0.238 C 
ATOM     17  O   UNL     1       5.872  -2.646  21.660  0.00  0.00    -0.285 OA
BRANCH  16  18
ATOM     18  C   UNL     1       5.363  -4.844  22.370  0.00  0.00    +0.282 C 
ATOM     19  N   UNL     1       4.221  -5.017  23.131  0.00  0.00    -0.306 N 
ATOM     20  H   UNL     1       3.926  -4.232  23.706  0.00  0.00    +0.149 HD
ATOM     21  O   UNL     1       5.834  -5.680  21.612  0.00  0.00    -0.267 OA
BRANCH  19  22
ATOM     22  C   UNL     1       3.513  -6.262  23.194  0.00  0.00    +0.073 C 
ATOM     23  C   UNL     1       2.281  -6.427  24.043  0.00  0.00    +0.024 C 
ATOM     24  C   UNL     1       3.554  -7.119  24.431  0.00  0.00    +0.024 C 
ENDBRANCH  19  22
ENDBRANCH  16  18
ENDBRANCH  15  16
BRANCH  15  25
ATOM     25  C   UNL     1       7.596  -4.660  24.225  0.00  0.00    +0.031 C 
BRANCH  25  27
ATOM     26  C   UNL     1       9.045  -4.769  26.375  0.00  0.00    +0.004 C 
ATOM     27  C   UNL     1       8.986  -4.649  24.867  0.00  0.00    -0.001 C 
ENDBRANCH  25  27
ENDBRANCH  15  25
ENDBRANCH   1  15
BRANCH   2  28
ATOM     28  C   UNL     1       7.340  -0.278  24.258  0.00  0.00    +0.165 C 
BRANCH  28  29
ATOM     29  N   UNL     1       6.901   1.152  23.993  0.00  0.00    -0.302 N 
ATOM     30  H   UNL     1       6.480   1.657  24.773  0.00  0.00    +0.150 HD
ATOM     31  C   UNL     1       7.021   1.878  22.819  0.00  0.00    +0.234 C 
ATOM     32  O   UNL     1       7.574   1.413  21.820  0.00  0.00    -0.274 OA
BRANCH  31  33
ATOM     33  C   UNL     1       6.564   3.411  22.799  0.00  0.00    +0.162 C 
BRANCH  33  34
ATOM     34  C   UNL     1       6.947   4.176  24.116  0.00  0.00    +0.018 C 
ATOM     35  C   UNL     1       6.331   5.593  24.316  0.00  0.00    +0.006 C 
ATOM     36  C   UNL     1       7.042   6.784  23.645  0.00  0.00    +0.000 C 
ATOM     37  C   UNL     1       8.565   6.727  23.691  0.00  0.00    +0.000 C 
ATOM     38  C   UNL     1       9.076   5.342  23.329  0.00  0.00    +0.000 C 
ATOM     39  C   UNL     1       8.476   4.307  24.280  0.00  0.00    +0.006 C 
ENDBRANCH  33  34
BRANCH  33  40
ATOM     40  N   UNL     1       5.170   3.577  22.333  0.00  0.00    -0.298 N 
ATOM     41  H   UNL     1       5.024   3.918  21.384  0.00  0.00    +0.150 HD
ATOM     42  C   UNL     1       4.042   3.114  22.969  0.00  0.00    +0.264 C 
ATOM     43  O   UNL     1       4.086   2.534  24.049  0.00  0.00    -0.268 OA
BRANCH  42  44
ATOM     44  C   UNL     1       2.755   3.224  22.210  0.00  0.00    +0.143 A 
ATOM     45  C   UNL     1       2.719   3.965  21.036  0.00  0.00    +0.143 A 
ATOM     46  N   UNL     1       1.562   4.237  20.376  0.00  0.00    -0.259 NA
ATOM     47  C   UNL     1       0.443   3.727  20.937  0.00  0.00    +0.130 A 
ATOM     48  C   UNL     1       0.481   2.958  22.093  0.00  0.00    +0.131 A 
ATOM     49  N   UNL     1       1.631   2.687  22.767  0.00  0.00    -0.247 NA
ENDBRANCH  42  44
ENDBRANCH  33  40
ENDBRANCH  31  33
ENDBRANCH  28  29
BRANCH  28  50
ATOM     50  C   UNL     1       8.867  -0.450  24.728  0.00  0.00    -0.011 C 
ATOM     51  C   UNL     1       8.912  -1.097  26.135  0.00  0.00    +0.013 C 
ATOM     52  C   UNL     1       9.632   0.887  24.849  0.00  0.00    +0.013 C 
ATOM     53  C   UNL     1       9.724  -1.326  23.797  0.00  0.00    +0.013 C 
ENDBRANCH  28  50
ENDBRANCH   2  28
TORSDOF 14
ENDMDL
MODEL 6
REMARK VINA RESULT:      -6.1      2.722      9.348
REMARK  Name = 
REMARK  18 active torsions:
REMARK  status: ('A' for Active; 'I' for Inactive)
REMARK    1  A    between atoms: C_1  and  C_2
REMARK    2  A    between atoms: C_2  and  C_3
REMARK    3  A    between atoms: C_3  and  C_4
REMARK    4  A    between atoms: C_4  and  C_6
REMARK    5  A    between atoms: C_4  and  N_14
REMARK    6  A    between atoms: C_6  and  C_8
REMARK    7  A    between atoms: N_10  and  C_11
REMARK    8  A    between atoms: C_15  and  C_17
REMARK    9  A    between atoms: C_28  and  C_30
REMARK   10  A    between atoms: C_30  and  C_32
REMARK   11  A    between atoms: C_30  and  N_36
REMARK   12  A    between atoms: C_32  and  C_33
REMARK   13  A    between atoms: C_32  and  C_34
REMARK   14  A    between atoms: C_32  and  C_35
REMARK   15  A    between atoms: C_37  and  C_39
REMARK   16  A    between atoms: C_39  and  C_41
REMARK   17  A    between atoms: C_39  and  N_47
REMARK   18  A    between atoms: C_48  and  C_50
REMARK                            x       y       z     vdW  Elec       q    Type
REMARK                         _______ _______ _______ _____ _____    ______ ____
ROOT
ATOM      1  N   UNL     1       6.137   1.979  23.977  0.00  0.00    -0.228 N 
ATOM      2  C   UNL     1       5.284   1.791  25.114  0.00  0.00    +0.243 C 
ATOM      3  O   UNL     1       4.364   2.584  25.343  0.00  0.00    -0.273 OA
ATOM      4  C   UNL     1       5.904   2.970  22.958  0.00  0.00    +0.240 C 
ATOM      5  O   UNL     1       6.431   2.878  21.840  0.00  0.00    -0.273 OA
ENDROOT
BRANCH   4   6
ATOM      6  C   UNL     1       4.898   4.141  23.137  0.00  0.00    +0.144 C 
ATOM      7  N   UNL     1       5.496   5.408  22.658  0.00  0.00    -0.305 NA
ATOM      8  H   UNL     1       6.071   5.774  23.409  0.00  0.00    +0.123 HD
ATOM      9  C   UNL     1       4.395   6.330  22.363  0.00  0.00    +0.085 C 
ATOM     10  C   UNL     1       3.148   5.480  22.170  0.00  0.00    +0.008 C 
ATOM     11  C   UNL     1       2.140   5.560  23.328  0.00  0.00    +0.005 C 
ATOM     12  C   UNL     1       1.729   4.126  23.651  0.00  0.00    +0.001 C 
ATOM     13  C   UNL     1       2.432   3.254  22.622  0.00  0.00    +0.006 C 
ATOM     14  C   UNL     1       3.666   4.045  22.193  0.00  0.00    +0.019 C 
ENDBRANCH   4   6
BRANCH   1  15
ATOM     15  C   UNL     1       7.370   1.115  23.745  0.00  0.00    +0.160 C 
BRANCH  15  16
ATOM     16  C   UNL     1       8.608   1.760  24.410  0.00  0.00    +0.238 C 
ATOM     17  O   UNL     1       9.457   1.173  25.068  0.00  0.00    -0.285 OA
BRANCH  16  18
ATOM     18  C   UNL     1       8.761   3.275  24.238  0.00  0.00    +0.282 C 
ATOM     19  N   UNL     1       8.313   4.047  25.294  0.00  0.00    -0.306 N 
ATOM     20  H   UNL     1       7.947   3.554  26.103  0.00  0.00    +0.149 HD
ATOM     21  O   UNL     1       9.250   3.713  23.205  0.00  0.00    -0.267 OA
BRANCH  19  22
ATOM     22  C   UNL     1       8.274   5.480  25.244  0.00  0.00    +0.073 C 
ATOM     23  C   UNL     1       9.480   6.314  25.589  0.00  0.00    +0.024 C 
ATOM     24  C   UNL     1       8.292   6.302  26.505  0.00  0.00    +0.024 C 
ENDBRANCH  19  22
ENDBRANCH  16  18
ENDBRANCH  15  16
BRANCH  15  25
ATOM     25  C   UNL     1       7.639   0.755  22.254  0.00  0.00    +0.031 C 
BRANCH  25  27
ATOM     26  C   UNL     1       9.466  -0.963  21.585  0.00  0.00    +0.004 C 
ATOM     27  C   UNL     1       9.074   0.485  21.794  0.00  0.00    -0.001 C 
ENDBRANCH  25  27
ENDBRANCH  15  25
ENDBRANCH   1  15
BRANCH   2  28
ATOM     28  C   UNL     1       5.461   0.525  26.114  0.00  0.00    +0.165 C 
BRANCH  28  29
ATOM     29  N   UNL     1       5.741  -0.796  25.417  0.00  0.00    -0.302 N 
ATOM     30  H   UNL     1       6.642  -0.888  24.949  0.00  0.00    +0.150 HD
ATOM     31  C   UNL     1       4.927  -1.916  25.353  0.00  0.00    +0.234 C 
ATOM     32  O   UNL     1       3.841  -1.966  25.934  0.00  0.00    -0.274 OA
BRANCH  31  33
ATOM     33  C   UNL     1       5.472  -3.236  24.632  0.00  0.00    +0.162 C 
BRANCH  33  34
ATOM     34  C   UNL     1       6.387  -2.919  23.395  0.00  0.00    +0.018 C 
ATOM     35  C   UNL     1       5.836  -3.308  21.990  0.00  0.00    +0.006 C 
ATOM     36  C   UNL     1       6.033  -4.763  21.522  0.00  0.00    +0.000 C 
ATOM     37  C   UNL     1       7.385  -5.373  21.880  0.00  0.00    +0.000 C 
ATOM     38  C   UNL     1       7.762  -5.068  23.320  0.00  0.00    +0.000 C 
ATOM     39  C   UNL     1       7.786  -3.556  23.538  0.00  0.00    +0.006 C 
ENDBRANCH  33  34
BRANCH  33  40
ATOM     40  N   UNL     1       4.406  -4.238  24.412  0.00  0.00    -0.298 N 
ATOM     41  H   UNL     1       3.675  -4.013  23.739  0.00  0.00    +0.150 HD
ATOM     42  C   UNL     1       4.411  -5.539  24.858  0.00  0.00    +0.264 C 
ATOM     43  O   UNL     1       5.318  -5.996  25.547  0.00  0.00    -0.268 OA
BRANCH  42  44
ATOM     44  C   UNL     1       3.318  -6.425  24.344  0.00  0.00    +0.143 A 
ATOM     45  C   UNL     1       3.124  -7.672  24.924  0.00  0.00    +0.143 A 
ATOM     46  N   UNL     1       2.259  -8.590  24.418  0.00  0.00    -0.259 NA
ATOM     47  C   UNL     1       1.587  -8.201  23.311  0.00  0.00    +0.130 A 
ATOM     48  C   UNL     1       1.755  -6.942  22.748  0.00  0.00    +0.131 A 
ATOM     49  N   UNL     1       2.625  -6.020  23.241  0.00  0.00    -0.247 NA
ENDBRANCH  42  44
ENDBRANCH  33  40
ENDBRANCH  31  33
ENDBRANCH  28  29
BRANCH  28  50
ATOM     50  C   UNL     1       6.335   0.801  27.433  0.00  0.00    -0.011 C 
ATOM     51  C   UNL     1       5.482   0.517  28.695  0.00  0.00    +0.013 C 
ATOM     52  C   UNL     1       6.816   2.265  27.564  0.00  0.00    +0.013 C 
ATOM     53  C   UNL     1       7.609  -0.056  27.544  0.00  0.00    +0.013 C 
ENDBRANCH  28  50
ENDBRANCH   2  28
TORSDOF 14
ENDMDL
MODEL 7
REMARK VINA RESULT:      -6.1      2.848      5.154
REMARK  Name = 
REMARK  18 active torsions:
REMARK  status: ('A' for Active; 'I' for Inactive)
REMARK    1  A    between atoms: C_1  and  C_2
REMARK    2  A    between atoms: C_2  and  C_3
REMARK    3  A    between atoms: C_3  and  C_4
REMARK    4  A    between atoms: C_4  and  C_6
REMARK    5  A    between atoms: C_4  and  N_14
REMARK    6  A    between atoms: C_6  and  C_8
REMARK    7  A    between atoms: N_10  and  C_11
REMARK    8  A    between atoms: C_15  and  C_17
REMARK    9  A    between atoms: C_28  and  C_30
REMARK   10  A    between atoms: C_30  and  C_32
REMARK   11  A    between atoms: C_30  and  N_36
REMARK   12  A    between atoms: C_32  and  C_33
REMARK   13  A    between atoms: C_32  and  C_34
REMARK   14  A    between atoms: C_32  and  C_35
REMARK   15  A    between atoms: C_37  and  C_39
REMARK   16  A    between atoms: C_39  and  C_41
REMARK   17  A    between atoms: C_39  and  N_47
REMARK   18  A    between atoms: C_48  and  C_50
REMARK                            x       y       z     vdW  Elec       q    Type
REMARK                         _______ _______ _______ _____ _____    ______ ____
ROOT
ATOM      1  N   UNL     1       5.864  -2.055  24.572  0.00  0.00    -0.228 N 
ATOM      2  C   UNL     1       6.243  -1.909  23.198  0.00  0.00    +0.243 C 
ATOM      3  O   UNL     1       5.776  -2.663  22.337  0.00  0.00    -0.273 OA
ATOM      4  C   UNL     1       4.827  -2.947  25.026  0.00  0.00    +0.240 C 
ATOM      5  O   UNL     1       4.290  -2.798  26.133  0.00  0.00    -0.273 OA
ENDROOT
BRANCH   4   6
ATOM      6  C   UNL     1       4.231  -4.068  24.131  0.00  0.00    +0.144 C 
ATOM      7  N   UNL     1       5.254  -5.102  23.855  0.00  0.00    -0.305 NA
ATOM      8  H   UNL     1       5.819  -4.770  23.081  0.00  0.00    +0.123 HD
ATOM      9  C   UNL     1       4.547  -6.332  23.481  0.00  0.00    +0.085 C 
ATOM     10  C   UNL     1       3.129  -6.204  24.016  0.00  0.00    +0.008 C 
ATOM     11  C   UNL     1       2.064  -5.949  22.937  0.00  0.00    +0.005 C 
ATOM     12  C   UNL     1       1.183  -4.813  23.452  0.00  0.00    +0.001 C 
ATOM     13  C   UNL     1       1.694  -4.495  24.849  0.00  0.00    +0.006 C 
ATOM     14  C   UNL     1       3.157  -4.930  24.855  0.00  0.00    +0.019 C 
ENDBRANCH   4   6
BRANCH   1  15
ATOM     15  C   UNL     1       6.529  -1.248  25.680  0.00  0.00    +0.160 C 
BRANCH  15  16
ATOM     16  C   UNL     1       7.653  -2.077  26.345  0.00  0.00    +0.238 C 
ATOM     17  O   UNL     1       8.692  -1.631  26.816  0.00  0.00    -0.285 OA
BRANCH  16  18
ATOM     18  C   UNL     1       7.443  -3.594  26.393  0.00  0.00    +0.282 C 
ATOM     19  N   UNL     1       6.735  -4.067  27.483  0.00  0.00    -0.306 N 
ATOM     20  H   UNL     1       6.390  -3.377  28.144  0.00  0.00    +0.149 HD
ATOM     21  O   UNL     1       7.903  -4.290  25.499  0.00  0.00    -0.267 OA
BRANCH  19  22
ATOM     22  C   UNL     1       6.554  -5.466  27.741  0.00  0.00    +0.073 C 
ATOM     23  C   UNL     1       5.336  -6.207  27.256  0.00  0.00    +0.024 C 
ATOM     24  C   UNL     1       5.519  -5.948  28.722  0.00  0.00    +0.024 C 
ENDBRANCH  19  22
ENDBRANCH  16  18
ENDBRANCH  15  16
BRANCH  15  25
ATOM     25  C   UNL     1       5.546  -0.660  26.736  0.00  0.00    +0.031 C 
BRANCH  25  27
ATOM     26  C   UNL     1       6.799   1.043  28.240  0.00  0.00    +0.004 C 
ATOM     27  C   UNL     1       5.724   0.786  27.204  0.00  0.00    -0.001 C 
ENDBRANCH  25  27
ENDBRANCH  15  25
ENDBRANCH   1  15
BRANCH   2  28
ATOM     28  C   UNL     1       7.257  -0.739  22.711  0.00  0.00    +0.165 C 
BRANCH  28  29
ATOM     29  N   UNL     1       6.885   0.656  23.185  0.00  0.00    -0.302 N 
ATOM     30  H   UNL     1       6.474   0.732  24.115  0.00  0.00    +0.150 HD
ATOM     31  C   UNL     1       7.055   1.858  22.517  0.00  0.00    +0.234 C 
ATOM     32  O   UNL     1       7.603   1.917  21.414  0.00  0.00    -0.274 OA
BRANCH  31  33
ATOM     33  C   UNL     1       6.667   3.223  23.254  0.00  0.00    +0.162 C 
BRANCH  33  34
ATOM     34  C   UNL     1       7.195   3.286  24.732  0.00  0.00    +0.018 C 
ATOM     35  C   UNL     1       6.731   4.496  25.599  0.00  0.00    +0.006 C 
ATOM     36  C   UNL     1       7.515   5.816  25.464  0.00  0.00    +0.000 C 
ATOM     37  C   UNL     1       9.026   5.652  25.336  0.00  0.00    +0.000 C 
ATOM     38  C   UNL     1       9.379   4.551  24.350  0.00  0.00    +0.000 C 
ATOM     39  C   UNL     1       8.737   3.237  24.792  0.00  0.00    +0.006 C 
ENDBRANCH  33  34
BRANCH  33  40
ATOM     40  N   UNL     1       5.246   3.585  23.057  0.00  0.00    -0.298 N 
ATOM     41  H   UNL     1       5.025   4.260  22.326  0.00  0.00    +0.150 HD
ATOM     42  C   UNL     1       4.162   2.944  23.610  0.00  0.00    +0.264 C 
ATOM     43  O   UNL     1       4.279   2.002  24.386  0.00  0.00    -0.268 OA
BRANCH  42  44
ATOM     44  C   UNL     1       2.813   3.362  23.109  0.00  0.00    +0.143 A 
ATOM     45  C   UNL     1       2.725   4.338  22.124  0.00  0.00    +0.143 A 
ATOM     46  N   UNL     1       1.541   4.876  21.729  0.00  0.00    -0.259 NA
ATOM     47  C   UNL     1       0.447   4.388  22.355  0.00  0.00    +0.130 A 
ATOM     48  C   UNL     1       0.529   3.388  23.316  0.00  0.00    +0.131 A 
ATOM     49  N   UNL     1       1.709   2.849  23.726  0.00  0.00    -0.247 NA
ENDBRANCH  42  44
ENDBRANCH  33  40
ENDBRANCH  31  33
ENDBRANCH  28  29
BRANCH  28  50
ATOM     50  C   UNL     1       8.820  -1.097  22.798  0.00  0.00    -0.011 C 
ATOM     51  C   UNL     1       9.493  -0.838  21.426  0.00  0.00    +0.013 C 
ATOM     52  C   UNL     1       9.100  -2.579  23.136  0.00  0.00    +0.013 C 
ATOM     53  C   UNL     1       9.601  -0.287  23.847  0.00  0.00    +0.013 C 
ENDBRANCH  28  50
ENDBRANCH   2  28
TORSDOF 14
ENDMDL
MODEL 8
REMARK VINA RESULT:      -6.0      2.522      4.968
REMARK  Name = 
REMARK  18 active torsions:
REMARK  status: ('A' for Active; 'I' for Inactive)
REMARK    1  A    between atoms: C_1  and  C_2
REMARK    2  A    between atoms: C_2  and  C_3
REMARK    3  A    between atoms: C_3  and  C_4
REMARK    4  A    between atoms: C_4  and  C_6
REMARK    5  A    between atoms: C_4  and  N_14
REMARK    6  A    between atoms: C_6  and  C_8
REMARK    7  A    between atoms: N_10  and  C_11
REMARK    8  A    between atoms: C_15  and  C_17
REMARK    9  A    between atoms: C_28  and  C_30
REMARK   10  A    between atoms: C_30  and  C_32
REMARK   11  A    between atoms: C_30  and  N_36
REMARK   12  A    between atoms: C_32  and  C_33
REMARK   13  A    between atoms: C_32  and  C_34
REMARK   14  A    between atoms: C_32  and  C_35
REMARK   15  A    between atoms: C_37  and  C_39
REMARK   16  A    between atoms: C_39  and  C_41
REMARK   17  A    between atoms: C_39  and  N_47
REMARK   18  A    between atoms: C_48  and  C_50
REMARK                            x       y       z     vdW  Elec       q    Type
REMARK                         _______ _______ _______ _____ _____    ______ ____
ROOT
ATOM      1  N   UNL     1       5.888  -1.174  24.609  0.00  0.00    -0.228 N 
ATOM      2  C   UNL     1       6.559  -1.153  23.342  0.00  0.00    +0.243 C 
ATOM      3  O   UNL     1       6.437  -2.099  22.555  0.00  0.00    -0.273 OA
ATOM      4  C   UNL     1       4.926  -2.177  24.989  0.00  0.00    +0.240 C 
ATOM      5  O   UNL     1       4.122  -1.979  25.910  0.00  0.00    -0.273 OA
ENDROOT
BRANCH   4   6
ATOM      6  C   UNL     1       4.747  -3.509  24.209  0.00  0.00    +0.144 C 
ATOM      7  N   UNL     1       6.017  -4.269  24.195  0.00  0.00    -0.305 NA
ATOM      8  H   UNL     1       6.587  -3.894  23.444  0.00  0.00    +0.123 HD
ATOM      9  C   UNL     1       5.687  -5.674  23.932  0.00  0.00    +0.085 C 
ATOM     10  C   UNL     1       4.220  -5.855  24.292  0.00  0.00    +0.008 C 
ATOM     11  C   UNL     1       3.285  -6.008  23.081  0.00  0.00    +0.005 C 
ATOM     12  C   UNL     1       2.093  -5.087  23.330  0.00  0.00    +0.001 C 
ATOM     13  C   UNL     1       2.315  -4.490  24.712  0.00  0.00    +0.006 C 
ATOM     14  C   UNL     1       3.824  -4.529  24.934  0.00  0.00    +0.019 C 
ENDBRANCH   4   6
BRANCH   1  15
ATOM     15  C   UNL     1       6.130  -0.102  25.665  0.00  0.00    +0.160 C 
BRANCH  15  16
ATOM     16  C   UNL     1       6.726  -0.738  26.942  0.00  0.00    +0.238 C 
ATOM     17  O   UNL     1       6.268  -0.640  28.074  0.00  0.00    -0.285 OA
BRANCH  16  18
ATOM     18  C   UNL     1       8.018  -1.543  26.764  0.00  0.00    +0.282 C 
ATOM     19  N   UNL     1       7.854  -2.894  26.522  0.00  0.00    -0.306 N 
ATOM     20  H   UNL     1       6.900  -3.238  26.455  0.00  0.00    +0.149 HD
ATOM     21  O   UNL     1       9.096  -0.970  26.850  0.00  0.00    -0.267 OA
BRANCH  19  22
ATOM     22  C   UNL     1       8.957  -3.808  26.451  0.00  0.00    +0.073 C 
ATOM     23  C   UNL     1       9.288  -4.548  25.182  0.00  0.00    +0.024 C 
ATOM     24  C   UNL     1       8.732  -5.294  26.359  0.00  0.00    +0.024 C 
ENDBRANCH  19  22
ENDBRANCH  16  18
ENDBRANCH  15  16
BRANCH  15  25
ATOM     25  C   UNL     1       4.892   0.785  25.987  0.00  0.00    +0.031 C 
BRANCH  25  27
ATOM     26  C   UNL     1       3.931   2.832  27.260  0.00  0.00    +0.004 C 
ATOM     27  C   UNL     1       5.103   2.196  26.542  0.00  0.00    -0.001 C 
ENDBRANCH  25  27
ENDBRANCH  15  25
ENDBRANCH   1  15
BRANCH   2  28
ATOM     28  C   UNL     1       7.462   0.111  22.875  0.00  0.00    +0.165 C 
BRANCH  28  29
ATOM     29  N   UNL     1       7.028   1.446  23.455  0.00  0.00    -0.302 N 
ATOM     30  H   UNL     1       6.770   1.458  24.441  0.00  0.00    +0.150 HD
ATOM     31  C   UNL     1       6.958   2.673  22.814  0.00  0.00    +0.234 C 
ATOM     32  O   UNL     1       7.309   2.815  21.640  0.00  0.00    -0.274 OA
BRANCH  31  33
ATOM     33  C   UNL     1       6.554   3.972  23.656  0.00  0.00    +0.162 C 
BRANCH  33  34
ATOM     34  C   UNL     1       5.435   4.824  22.958  0.00  0.00    +0.018 C 
ATOM     35  C   UNL     1       4.810   5.987  23.787  0.00  0.00    +0.006 C 
ATOM     36  C   UNL     1       3.670   5.638  24.763  0.00  0.00    +0.000 C 
ATOM     37  C   UNL     1       2.675   4.607  24.240  0.00  0.00    +0.000 C 
ATOM     38  C   UNL     1       3.388   3.436  23.586  0.00  0.00    +0.000 C 
ATOM     39  C   UNL     1       4.275   3.941  22.449  0.00  0.00    +0.006 C 
ENDBRANCH  33  34
BRANCH  33  40
ATOM     40  N   UNL     1       7.736   4.721  24.136  0.00  0.00    -0.298 N 
ATOM     41  H   UNL     1       8.165   4.422  25.011  0.00  0.00    +0.150 HD
ATOM     42  C   UNL     1       8.456   5.647  23.418  0.00  0.00    +0.264 C 
ATOM     43  O   UNL     1       8.146   5.984  22.280  0.00  0.00    -0.268 OA
BRANCH  42  44
ATOM     44  C   UNL     1       9.732   6.128  24.039  0.00  0.00    +0.143 A 
ATOM     45  C   UNL     1      10.946   5.740  23.486  0.00  0.00    +0.143 A 
ATOM     46  N   UNL     1      12.140   6.008  24.078  0.00  0.00    -0.259 NA
ATOM     47  C   UNL     1      12.067   6.690  25.243  0.00  0.00    +0.130 A 
ATOM     48  C   UNL     1      10.856   7.108  25.781  0.00  0.00    +0.131 A 
ATOM     49  N   UNL     1       9.655   6.837  25.203  0.00  0.00    -0.247 NA
ENDBRANCH  42  44
ENDBRANCH  33  40
ENDBRANCH  31  33
ENDBRANCH  28  29
BRANCH  28  50
ATOM     50  C   UNL     1       9.049  -0.142  22.852  0.00  0.00    -0.011 C 
ATOM     51  C   UNL     1       9.349  -1.614  23.235  0.00  0.00    +0.013 C 
ATOM     52  C   UNL     1       9.830   0.728  23.862  0.00  0.00    +0.013 C 
ATOM     53  C   UNL     1       9.715   0.118  21.490  0.00  0.00    +0.013 C 
ENDBRANCH  28  50
ENDBRANCH   2  28
TORSDOF 14
ENDMDL
MODEL 9
REMARK VINA RESULT:      -6.0      2.041      3.810
REMARK  Name = 
REMARK  18 active torsions:
REMARK  status: ('A' for Active; 'I' for Inactive)
REMARK    1  A    between atoms: C_1  and  C_2
REMARK    2  A    between atoms: C_2  and  C_3
REMARK    3  A    between atoms: C_3  and  C_4
REMARK    4  A    between atoms: C_4  and  C_6
REMARK    5  A    between atoms: C_4  and  N_14
REMARK    6  A    between atoms: C_6  and  C_8
REMARK    7  A    between atoms: N_10  and  C_11
REMARK    8  A    between atoms: C_15  and  C_17
REMARK    9  A    between atoms: C_28  and  C_30
REMARK   10  A    between atoms: C_30  and  C_32
REMARK   11  A    between atoms: C_30  and  N_36
REMARK   12  A    between atoms: C_32  and  C_33
REMARK   13  A    between atoms: C_32  and  C_34
REMARK   14  A    between atoms: C_32  and  C_35
REMARK   15  A    between atoms: C_37  and  C_39
REMARK   16  A    between atoms: C_39  and  C_41
REMARK   17  A    between atoms: C_39  and  N_47
REMARK   18  A    between atoms: C_48  and  C_50
REMARK                            x       y       z     vdW  Elec       q    Type
REMARK                         _______ _______ _______ _____ _____    ______ ____
ROOT
ATOM      1  N   UNL     1       4.813  -4.873  27.111  0.00  0.00    -0.228 N 
ATOM      2  C   UNL     1       4.009  -3.697  27.264  0.00  0.00    +0.243 C 
ATOM      3  O   UNL     1       2.959  -3.570  26.624  0.00  0.00    -0.273 OA
ATOM      4  C   UNL     1       4.405  -6.029  26.354  0.00  0.00    +0.240 C 
ATOM      5  O   UNL     1       4.941  -7.133  26.527  0.00  0.00    -0.273 OA
ENDROOT
BRANCH   4   6
ATOM      6  C   UNL     1       3.203  -6.009  25.370  0.00  0.00    +0.144 C 
ATOM      7  N   UNL     1       3.596  -5.372  24.093  0.00  0.00    -0.305 NA
ATOM      8  H   UNL     1       3.523  -4.368  24.219  0.00  0.00    +0.123 HD
ATOM      9  C   UNL     1       2.654  -5.827  23.065  0.00  0.00    +0.085 C 
ATOM     10  C   UNL     1       2.020  -7.108  23.586  0.00  0.00    +0.008 C 
ATOM     11  C   UNL     1       0.558  -6.953  24.038  0.00  0.00    +0.005 C 
ATOM     12  C   UNL     1       0.443  -7.650  25.392  0.00  0.00    +0.001 C 
ATOM     13  C   UNL     1       1.808  -8.268  25.654  0.00  0.00    +0.006 C 
ATOM     14  C   UNL     1       2.798  -7.421  24.860  0.00  0.00    +0.019 C 
ENDBRANCH   4   6
BRANCH   1  15
ATOM     15  C   UNL     1       6.183  -5.002  27.765  0.00  0.00    +0.160 C 
BRANCH  15  16
ATOM     16  C   UNL     1       7.289  -5.049  26.685  0.00  0.00    +0.238 C 
ATOM     17  O   UNL     1       8.215  -5.850  26.639  0.00  0.00    -0.285 OA
BRANCH  16  18
ATOM     18  C   UNL     1       7.218  -3.979  25.590  0.00  0.00    +0.282 C 
ATOM     19  N   UNL     1       7.003  -4.447  24.307  0.00  0.00    -0.306 N 
ATOM     20  H   UNL     1       6.883  -5.450  24.195  0.00  0.00    +0.149 HD
ATOM     21  O   UNL     1       7.359  -2.802  25.894  0.00  0.00    -0.267 OA
BRANCH  19  22
ATOM     22  C   UNL     1       7.030  -3.592  23.156  0.00  0.00    +0.073 C 
ATOM     23  C   UNL     1       5.853  -2.729  22.787  0.00  0.00    +0.024 C 
ATOM     24  C   UNL     1       6.211  -3.909  21.933  0.00  0.00    +0.024 C 
ENDBRANCH  19  22
ENDBRANCH  16  18
ENDBRANCH  15  16
BRANCH  15  25
ATOM     25  C   UNL     1       6.314  -6.181  28.774  0.00  0.00    +0.031 C 
BRANCH  25  27
ATOM     26  C   UNL     1       4.137  -6.819  30.034  0.00  0.00    +0.004 C 
ATOM     27  C   UNL     1       5.497  -6.155  30.069  0.00  0.00    -0.001 C 
ENDBRANCH  25  27
ENDBRANCH  15  25
ENDBRANCH   1  15
BRANCH   2  28
ATOM     28  C   UNL     1       4.412  -2.516  28.301  0.00  0.00    +0.165 C 
BRANCH  28  29
ATOM     29  N   UNL     1       5.147  -1.345  27.671  0.00  0.00    -0.302 N 
ATOM     30  H   UNL     1       6.120  -1.210  27.946  0.00  0.00    +0.150 HD
ATOM     31  C   UNL     1       4.668  -0.437  26.740  0.00  0.00    +0.234 C 
ATOM     32  O   UNL     1       3.531  -0.527  26.269  0.00  0.00    -0.274 OA
BRANCH  31  33
ATOM     33  C   UNL     1       5.658   0.669  26.146  0.00  0.00    +0.162 C 
BRANCH  33  34
ATOM     34  C   UNL     1       4.913   1.981  25.711  0.00  0.00    +0.018 C 
ATOM     35  C   UNL     1       5.132   2.467  24.246  0.00  0.00    +0.006 C 
ATOM     36  C   UNL     1       6.388   3.310  23.952  0.00  0.00    +0.000 C 
ATOM     37  C   UNL     1       6.743   4.327  25.033  0.00  0.00    +0.000 C 
ATOM     38  C   UNL     1       6.649   3.712  26.419  0.00  0.00    +0.000 C 
ATOM     39  C   UNL     1       5.241   3.165  26.647  0.00  0.00    +0.006 C 
ENDBRANCH  33  34
BRANCH  33  40
ATOM     40  N   UNL     1       6.607   0.104  25.162  0.00  0.00    -0.298 N 
ATOM     41  H   UNL     1       6.226  -0.263  24.291  0.00  0.00    +0.150 HD
ATOM     42  C   UNL     1       7.977   0.216  25.200  0.00  0.00    +0.264 C 
ATOM     43  O   UNL     1       8.567   0.780  26.116  0.00  0.00    -0.268 OA
BRANCH  42  44
ATOM     44  C   UNL     1       8.720  -0.264  23.991  0.00  0.00    +0.143 A 
ATOM     45  C   UNL     1       8.293   0.130  22.729  0.00  0.00    +0.143 A 
ATOM     46  N   UNL     1       8.817  -0.383  21.585  0.00  0.00    -0.259 NA
ATOM     47  C   UNL     1       9.797  -1.299  21.757  0.00  0.00    +0.130 A 
ATOM     48  C   UNL     1      10.249  -1.669  23.017  0.00  0.00    +0.131 A 
ATOM     49  N   UNL     1       9.725  -1.170  24.169  0.00  0.00    -0.247 NA
ENDBRANCH  42  44
ENDBRANCH  33  40
ENDBRANCH  31  33
ENDBRANCH  28  29
BRANCH  28  50
ATOM     50  C   UNL     1       3.281  -2.118  29.371  0.00  0.00    -0.011 C 
ATOM     51  C   UNL     1       2.942  -3.345  30.255  0.00  0.00    +0.013 C 
ATOM     52  C   UNL     1       1.948  -1.674  28.728  0.00  0.00    +0.013 C 
ATOM     53  C   UNL     1       3.677  -0.971  30.318  0.00  0.00    +0.013 C 
ENDBRANCH  28  50
ENDBRANCH   2  28
TORSDOF 14
ENDMDL
