MODEL 1
REMARK VINA RESULT:      -5.9      0.000      0.000
REMARK  Name = 
REMARK  5 active torsions:
REMARK  status: ('A' for Active; 'I' for Inactive)
REMARK    1  A    between atoms: C3*_2  and  O3*_22
REMARK    2  A    between atoms: C4*_4  and  C5*_20
REMARK    3  A    between atoms: C1*_7  and  N_9
REMARK    4  A    between atoms: C_11  and  C_17
REMARK    5  A    between atoms: C5*_20  and  O5*_21
REMARK                            x       y       z     vdW  Elec       q    Type
REMARK                         _______ _______ _______ _____ _____    ______ ____
ROOT
ATOM      1  N   UNL     1       8.681  -3.596  25.253  0.00  0.00    -0.273 N 
ATOM      2  C   UNL     1       9.299  -4.820  25.477  0.00  0.00    +0.331 A 
ATOM      3  O   UNL     1      10.370  -5.155  24.976  0.00  0.00    -0.246 OA
ATOM      4  N   UNL     1       8.665  -5.650  26.360  0.00  0.00    -0.274 N 
ATOM      5  H   UNL     1       9.157  -6.491  26.613  0.00  0.00    +0.173 HD
ATOM      6  C   UNL     1       7.576  -5.329  27.117  0.00  0.00    +0.261 A 
ATOM      7  O   UNL     1       7.222  -6.029  28.060  0.00  0.00    -0.267 OA
ATOM      8  C   UNL     1       6.861  -4.071  26.743  0.00  0.00    +0.056 A 
ATOM      9  C   UNL     1       7.470  -3.281  25.847  0.00  0.00    +0.106 A 
ENDROOT
BRANCH   1  11
ATOM     10  C2* UNL     1       9.280  -1.200  24.902  0.00  0.00    +0.088 C 
ATOM     11  C1* UNL     1       9.378  -2.639  24.386  0.00  0.00    +0.226 C 
ATOM     12  O4* UNL     1       8.823  -2.655  23.055  0.00  0.00    -0.348 OA
ATOM     13  C4* UNL     1       8.350  -1.329  22.732  0.00  0.00    +0.175 C 
ATOM     14  C3* UNL     1       9.120  -0.385  23.645  0.00  0.00    +0.150 C 
BRANCH  14  15
ATOM     15  O3* UNL     1      10.406  -0.108  23.091  0.00  0.00    -0.389 OA
ATOM     16  H3* UNL     1      10.867   0.502  23.693  0.00  0.00    +0.210 HD
ENDBRANCH  14  15
BRANCH  13  17
ATOM     17  C5* UNL     1       6.832  -1.254  22.971  0.00  0.00    +0.190 C 
BRANCH  17  18
ATOM     18  O5* UNL     1       6.363   0.093  22.954  0.00  0.00    -0.392 OA
ATOM     19  H5* UNL     1       5.403   0.079  23.108  0.00  0.00    +0.210 HD
ENDBRANCH  17  18
ENDBRANCH  13  17
ENDBRANCH   1  11
BRANCH   8  20
ATOM     20  C   UNL     1       5.645  -3.705  27.450  0.00  0.00    +0.022 C 
ATOM     21  C   UNL     1       4.405  -4.092  27.131  0.00  0.00    +0.052 C 
ATOM     22 BR   UNL     1       2.887  -3.561  28.057  0.00  0.00    -0.059 Br
ENDBRANCH   8  20
TORSDOF 5
ENDMDL
MODEL 2
REMARK VINA RESULT:      -5.8      3.074      3.378
REMARK  Name = 
REMARK  5 active torsions:
REMARK  status: ('A' for Active; 'I' for Inactive)
REMARK    1  A    between atoms: C3*_2  and  O3*_22
REMARK    2  A    between atoms: C4*_4  and  C5*_20
REMARK    3  A    between atoms: C1*_7  and  N_9
REMARK    4  A    between atoms: C_11  and  C_17
REMARK    5  A    between atoms: C5*_20  and  O5*_21
REMARK                            x       y       z     vdW  Elec       q    Type
REMARK                         _______ _______ _______ _____ _____    ______ ____
ROOT
ATOM      1  N   UNL     1       6.475  -4.880  23.275  0.00  0.00    -0.273 N 
ATOM      2  C   UNL     1       5.664  -5.510  22.340  0.00  0.00    +0.331 A 
ATOM      3  O   UNL     1       5.771  -5.366  21.125  0.00  0.00    -0.246 OA
ATOM      4  N   UNL     1       4.736  -6.376  22.850  0.00  0.00    -0.274 N 
ATOM      5  H   UNL     1       4.217  -6.919  22.179  0.00  0.00    +0.173 HD
ATOM      6  C   UNL     1       4.634  -6.760  24.155  0.00  0.00    +0.261 A 
ATOM      7  O   UNL     1       3.949  -7.721  24.489  0.00  0.00    -0.267 OA
ATOM      8  C   UNL     1       5.419  -5.957  25.141  0.00  0.00    +0.056 A 
ATOM      9  C   UNL     1       6.299  -5.082  24.634  0.00  0.00    +0.106 A 
ENDROOT
BRANCH   1  11
ATOM     10  C2* UNL     1       8.583  -3.669  23.837  0.00  0.00    +0.088 C 
ATOM     11  C1* UNL     1       7.545  -4.016  22.764  0.00  0.00    +0.226 C 
ATOM     12  O4* UNL     1       7.009  -2.772  22.272  0.00  0.00    -0.348 OA
ATOM     13  C4* UNL     1       7.615  -1.682  22.998  0.00  0.00    +0.175 C 
ATOM     14  C3* UNL     1       8.925  -2.231  23.545  0.00  0.00    +0.150 C 
BRANCH  14  15
ATOM     15  O3* UNL     1       9.936  -2.179  22.538  0.00  0.00    -0.389 OA
ATOM     16  H3* UNL     1      10.786  -1.996  22.976  0.00  0.00    +0.210 HD
ENDBRANCH  14  15
BRANCH  13  17
ATOM     17  C5* UNL     1       6.668  -1.225  24.122  0.00  0.00    +0.190 C 
BRANCH  17  18
ATOM     18  O5* UNL     1       5.982  -0.023  23.776  0.00  0.00    -0.392 OA
ATOM     19  H5* UNL     1       5.198   0.050  24.347  0.00  0.00    +0.210 HD
ENDBRANCH  17  18
ENDBRANCH  13  17
ENDBRANCH   1  11
BRANCH   8  20
ATOM     20  C   UNL     1       5.299  -6.254  26.559  0.00  0.00    +0.022 C 
ATOM     21  C   UNL     1       5.880  -5.576  27.555  0.00  0.00    +0.052 C 
ATOM     22 BR   UNL     1       5.714  -6.027  29.347  0.00  0.00    -0.059 Br
ENDBRANCH   8  20
TORSDOF 5
ENDMDL
MODEL 3
REMARK VINA RESULT:      -5.7      2.689      5.201
REMARK  Name = 
REMARK  5 active torsions:
REMARK  status: ('A' for Active; 'I' for Inactive)
REMARK    1  A    between atoms: C3*_2  and  O3*_22
REMARK    2  A    between atoms: C4*_4  and  C5*_20
REMARK    3  A    between atoms: C1*_7  and  N_9
REMARK    4  A    between atoms: C_11  and  C_17
REMARK    5  A    between atoms: C5*_20  and  O5*_21
REMARK                            x       y       z     vdW  Elec       q    Type
REMARK                         _______ _______ _______ _____ _____    ______ ____
ROOT
ATOM      1  N   UNL     1       8.943  -1.891  23.959  0.00  0.00    -0.273 N 
ATOM      2  C   UNL     1      10.018  -1.291  23.315  0.00  0.00    +0.331 A 
ATOM      3  O   UNL     1      10.668  -1.821  22.417  0.00  0.00    -0.246 OA
ATOM      4  N   UNL     1      10.300  -0.011  23.702  0.00  0.00    -0.274 N 
ATOM      5  H   UNL     1      11.004   0.472  23.168  0.00  0.00    +0.173 HD
ATOM      6  C   UNL     1       9.550   0.750  24.552  0.00  0.00    +0.261 A 
ATOM      7  O   UNL     1       9.725   1.960  24.652  0.00  0.00    -0.267 OA
ATOM      8  C   UNL     1       8.498   0.028  25.329  0.00  0.00    +0.056 A 
ATOM      9  C   UNL     1       8.254  -1.241  24.969  0.00  0.00    +0.106 A 
ENDROOT
BRANCH   1  11
ATOM     10  C2* UNL     1       7.071  -3.530  23.776  0.00  0.00    +0.088 C 
ATOM     11  C1* UNL     1       8.549  -3.230  23.506  0.00  0.00    +0.226 C 
ATOM     12  O4* UNL     1       9.320  -4.246  24.178  0.00  0.00    -0.348 OA
ATOM     13  C4* UNL     1       8.419  -5.129  24.879  0.00  0.00    +0.175 C 
ATOM     14  C3* UNL     1       7.074  -4.981  24.181  0.00  0.00    +0.150 C 
BRANCH  14  15
ATOM     15  O3* UNL     1       7.036  -5.800  23.013  0.00  0.00    -0.389 OA
ATOM     16  H3* UNL     1       7.929  -6.160  22.869  0.00  0.00    +0.210 HD
ENDBRANCH  14  15
BRANCH  13  17
ATOM     17  C5* UNL     1       8.348  -4.718  26.360  0.00  0.00    +0.190 C 
BRANCH  17  18
ATOM     18  O5* UNL     1       8.028  -5.827  27.199  0.00  0.00    -0.392 OA
ATOM     19  H5* UNL     1       7.227  -5.601  27.702  0.00  0.00    +0.210 HD
ENDBRANCH  17  18
ENDBRANCH  13  17
ENDBRANCH   1  11
BRANCH   8  20
ATOM     20  C   UNL     1       7.713   0.755  26.313  0.00  0.00    +0.022 C 
ATOM     21  C   UNL     1       7.332   0.293  27.509  0.00  0.00    +0.052 C 
ATOM     22 BR   UNL     1       6.300   1.261  28.709  0.00  0.00    -0.059 Br
ENDBRANCH   8  20
TORSDOF 5
ENDMDL
MODEL 4
REMARK VINA RESULT:      -5.7      2.953      3.704
REMARK  Name = 
REMARK  5 active torsions:
REMARK  status: ('A' for Active; 'I' for Inactive)
REMARK    1  A    between atoms: C3*_2  and  O3*_22
REMARK    2  A    between atoms: C4*_4  and  C5*_20
REMARK    3  A    between atoms: C1*_7  and  N_9
REMARK    4  A    between atoms: C_11  and  C_17
REMARK    5  A    between atoms: C5*_20  and  O5*_21
REMARK                            x       y       z     vdW  Elec       q    Type
REMARK                         _______ _______ _______ _____ _____    ______ ____
ROOT
ATOM      1  N   UNL     1       9.120  -1.393  25.037  0.00  0.00    -0.273 N 
ATOM      2  C   UNL     1       8.700  -1.568  26.350  0.00  0.00    +0.331 A 
ATOM      3  O   UNL     1       8.888  -0.752  27.249  0.00  0.00    -0.246 OA
ATOM      4  N   UNL     1       7.991  -2.710  26.596  0.00  0.00    -0.274 N 
ATOM      5  H   UNL     1       7.589  -2.796  27.516  0.00  0.00    +0.173 HD
ATOM      6  C   UNL     1       7.562  -3.603  25.658  0.00  0.00    +0.261 A 
ATOM      7  O   UNL     1       6.724  -4.459  25.923  0.00  0.00    -0.267 OA
ATOM      8  C   UNL     1       8.153  -3.459  24.293  0.00  0.00    +0.056 A 
ATOM      9  C   UNL     1       8.880  -2.355  24.070  0.00  0.00    +0.106 A 
ENDROOT
BRANCH   1  11
ATOM     10  C2* UNL     1       8.821   1.015  24.456  0.00  0.00    +0.088 C 
ATOM     11  C1* UNL     1       9.801  -0.136  24.711  0.00  0.00    +0.226 C 
ATOM     12  O4* UNL     1      10.605  -0.281  23.522  0.00  0.00    -0.348 OA
ATOM     13  C4* UNL     1      10.158   0.675  22.536  0.00  0.00    +0.175 C 
ATOM     14  C3* UNL     1       9.455   1.774  23.320  0.00  0.00    +0.150 C 
BRANCH  14  15
ATOM     15  O3* UNL     1      10.414   2.694  23.840  0.00  0.00    -0.389 OA
ATOM     16  H3* UNL     1      11.234   2.598  23.323  0.00  0.00    +0.210 HD
ENDBRANCH  14  15
BRANCH  13  17
ATOM     17  C5* UNL     1       9.212  -0.020  21.542  0.00  0.00    +0.190 C 
BRANCH  17  18
ATOM     18  O5* UNL     1       9.739  -1.269  21.099  0.00  0.00    -0.392 OA
ATOM     19  H5* UNL     1       9.241  -1.542  20.309  0.00  0.00    +0.210 HD
ENDBRANCH  17  18
ENDBRANCH  13  17
ENDBRANCH   1  11
BRANCH   8  20
ATOM     20  C   UNL     1       7.807  -4.422  23.261  0.00  0.00    +0.022 C 
ATOM     21  C   UNL     1       6.754  -4.346  22.439  0.00  0.00    +0.052 C 
ATOM     22 BR   UNL     1       6.347  -5.629  21.162  0.00  0.00    -0.059 Br
ENDBRANCH   8  20
TORSDOF 5
ENDMDL
MODEL 5
REMARK VINA RESULT:      -5.7      3.691      6.111
REMARK  Name = 
REMARK  5 active torsions:
REMARK  status: ('A' for Active; 'I' for Inactive)
REMARK    1  A    between atoms: C3*_2  and  O3*_22
REMARK    2  A    between atoms: C4*_4  and  C5*_20
REMARK    3  A    between atoms: C1*_7  and  N_9
REMARK    4  A    between atoms: C_11  and  C_17
REMARK    5  A    between atoms: C5*_20  and  O5*_21
REMARK                            x       y       z     vdW  Elec       q    Type
REMARK                         _______ _______ _______ _____ _____    ______ ____
ROOT
ATOM      1  N   UNL     1       5.758  -5.557  24.363  0.00  0.00    -0.273 N 
ATOM      2  C   UNL     1       5.087  -6.468  23.558  0.00  0.00    +0.331 A 
ATOM      3  O   UNL     1       4.318  -7.328  23.980  0.00  0.00    -0.246 OA
ATOM      4  N   UNL     1       5.285  -6.325  22.212  0.00  0.00    -0.274 N 
ATOM      5  H   UNL     1       4.722  -6.908  21.614  0.00  0.00    +0.173 HD
ATOM      6  C   UNL     1       5.964  -5.307  21.608  0.00  0.00    +0.261 A 
ATOM      7  O   UNL     1       5.884  -5.112  20.400  0.00  0.00    -0.267 OA
ATOM      8  C   UNL     1       6.786  -4.440  22.505  0.00  0.00    +0.056 A 
ATOM      9  C   UNL     1       6.615  -4.613  23.824  0.00  0.00    +0.106 A 
ENDROOT
BRANCH   1  11
ATOM     10  C2* UNL     1       5.126  -4.249  26.392  0.00  0.00    +0.088 C 
ATOM     11  C1* UNL     1       5.497  -5.616  25.806  0.00  0.00    +0.226 C 
ATOM     12  O4* UNL     1       6.660  -6.083  26.518  0.00  0.00    -0.348 OA
ATOM     13  C4* UNL     1       7.057  -5.078  27.476  0.00  0.00    +0.175 C 
ATOM     14  C3* UNL     1       5.810  -4.243  27.734  0.00  0.00    +0.150 C 
BRANCH  14  15
ATOM     15  O3* UNL     1       4.977  -4.892  28.695  0.00  0.00    -0.389 OA
ATOM     16  H3* UNL     1       4.054  -4.654  28.500  0.00  0.00    +0.210 HD
ENDBRANCH  14  15
BRANCH  13  17
ATOM     17  C5* UNL     1       8.204  -4.236  26.890  0.00  0.00    +0.190 C 
BRANCH  17  18
ATOM     18  O5* UNL     1       9.459  -4.905  27.004  0.00  0.00    -0.392 OA
ATOM     19  H5* UNL     1       9.310  -5.852  26.840  0.00  0.00    +0.210 HD
ENDBRANCH  17  18
ENDBRANCH  13  17
ENDBRANCH   1  11
BRANCH   8  20
ATOM     20  C   UNL     1       7.601  -3.385  21.926  0.00  0.00    +0.022 C 
ATOM     21  C   UNL     1       8.156  -2.367  22.593  0.00  0.00    +0.052 C 
ATOM     22 BR   UNL     1       9.161  -1.031  21.788  0.00  0.00    -0.059 Br
ENDBRANCH   8  20
TORSDOF 5
ENDMDL
MODEL 6
REMARK VINA RESULT:      -5.6      3.378      5.426
REMARK  Name = 
REMARK  5 active torsions:
REMARK  status: ('A' for Active; 'I' for Inactive)
REMARK    1  A    between atoms: C3*_2  and  O3*_22
REMARK    2  A    between atoms: C4*_4  and  C5*_20
REMARK    3  A    between atoms: C1*_7  and  N_9
REMARK    4  A    between atoms: C_11  and  C_17
REMARK    5  A    between atoms: C5*_20  and  O5*_21
REMARK                            x       y       z     vdW  Elec       q    Type
REMARK                         _______ _______ _______ _____ _____    ______ ____
ROOT
ATOM      1  N   UNL     1       8.185  -2.991  23.394  0.00  0.00    -0.273 N 
ATOM      2  C   UNL     1       9.422  -2.967  24.023  0.00  0.00    +0.331 A 
ATOM      3  O   UNL     1      10.018  -3.968  24.416  0.00  0.00    -0.246 OA
ATOM      4  N   UNL     1      10.000  -1.733  24.144  0.00  0.00    -0.274 N 
ATOM      5  H   UNL     1      10.942  -1.715  24.500  0.00  0.00    +0.173 HD
ATOM      6  C   UNL     1       9.532  -0.575  23.595  0.00  0.00    +0.261 A 
ATOM      7  O   UNL     1      10.230   0.432  23.534  0.00  0.00    -0.267 OA
ATOM      8  C   UNL     1       8.139  -0.616  23.058  0.00  0.00    +0.056 A 
ATOM      9  C   UNL     1       7.564  -1.825  22.978  0.00  0.00    +0.106 A 
ENDROOT
BRANCH   1  11
ATOM     10  C2* UNL     1       6.633  -4.309  21.951  0.00  0.00    +0.088 C 
ATOM     11  C1* UNL     1       7.575  -4.306  23.159  0.00  0.00    +0.226 C 
ATOM     12  O4* UNL     1       6.804  -4.724  24.303  0.00  0.00    -0.348 OA
ATOM     13  C4* UNL     1       5.438  -4.945  23.889  0.00  0.00    +0.175 C 
ATOM     14  C3* UNL     1       5.500  -5.199  22.389  0.00  0.00    +0.150 C 
BRANCH  14  15
ATOM     15  O3* UNL     1       5.842  -6.562  22.138  0.00  0.00    -0.389 OA
ATOM     16  H3* UNL     1       5.116  -7.120  22.469  0.00  0.00    +0.210 HD
ENDBRANCH  14  15
BRANCH  13  17
ATOM     17  C5* UNL     1       4.593  -3.705  24.230  0.00  0.00    +0.190 C 
BRANCH  17  18
ATOM     18  O5* UNL     1       5.139  -2.983  25.332  0.00  0.00    -0.392 OA
ATOM     19  H5* UNL     1       5.772  -3.564  25.788  0.00  0.00    +0.210 HD
ENDBRANCH  17  18
ENDBRANCH  13  17
ENDBRANCH   1  11
BRANCH   8  20
ATOM     20  C   UNL     1       7.542   0.599  22.530  0.00  0.00    +0.022 C 
ATOM     21  C   UNL     1       6.790   1.466  23.218  0.00  0.00    +0.052 C 
ATOM     22 BR   UNL     1       6.028   2.987  22.476  0.00  0.00    -0.059 Br
ENDBRANCH   8  20
TORSDOF 5
ENDMDL
MODEL 7
REMARK VINA RESULT:      -5.4      3.111      4.072
REMARK  Name = 
REMARK  5 active torsions:
REMARK  status: ('A' for Active; 'I' for Inactive)
REMARK    1  A    between atoms: C3*_2  and  O3*_22
REMARK    2  A    between atoms: C4*_4  and  C5*_20
REMARK    3  A    between atoms: C1*_7  and  N_9
REMARK    4  A    between atoms: C_11  and  C_17
REMARK    5  A    between atoms: C5*_20  and  O5*_21
REMARK                            x       y       z     vdW  Elec       q    Type
REMARK                         _______ _______ _______ _____ _____    ______ ____
ROOT
ATOM      1  N   UNL     1       6.492  -5.240  23.721  0.00  0.00    -0.273 N 
ATOM      2  C   UNL     1       6.050  -5.901  22.582  0.00  0.00    +0.331 A 
ATOM      3  O   UNL     1       6.774  -6.562  21.842  0.00  0.00    -0.246 OA
ATOM      4  N   UNL     1       4.706  -5.827  22.341  0.00  0.00    -0.274 N 
ATOM      5  H   UNL     1       4.357  -6.391  21.582  0.00  0.00    +0.173 HD
ATOM      6  C   UNL     1       3.773  -5.284  23.175  0.00  0.00    +0.261 A 
ATOM      7  O   UNL     1       2.573  -5.479  23.009  0.00  0.00    -0.267 OA
ATOM      8  C   UNL     1       4.299  -4.461  24.306  0.00  0.00    +0.056 A 
ATOM      9  C   UNL     1       5.624  -4.508  24.513  0.00  0.00    +0.106 A 
ENDROOT
BRANCH   1  11
ATOM     10  C2* UNL     1       8.147  -5.402  25.581  0.00  0.00    +0.088 C 
ATOM     11  C1* UNL     1       7.912  -5.374  24.067  0.00  0.00    +0.226 C 
ATOM     12  O4* UNL     1       8.675  -4.271  23.538  0.00  0.00    -0.348 OA
ATOM     13  C4* UNL     1       9.332  -3.591  24.629  0.00  0.00    +0.175 C 
ATOM     14  C3* UNL     1       9.417  -4.611  25.756  0.00  0.00    +0.150 C 
BRANCH  14  15
ATOM     15  O3* UNL     1      10.541  -5.468  25.556  0.00  0.00    -0.389 OA
ATOM     16  H3* UNL     1      10.890  -5.715  26.431  0.00  0.00    +0.210 HD
ENDBRANCH  14  15
BRANCH  13  17
ATOM     17  C5* UNL     1       8.510  -2.355  25.031  0.00  0.00    +0.190 C 
BRANCH  17  18
ATOM     18  O5* UNL     1       7.811  -1.803  23.917  0.00  0.00    -0.392 OA
ATOM     19  H5* UNL     1       7.120  -2.434  23.653  0.00  0.00    +0.210 HD
ENDBRANCH  17  18
ENDBRANCH  13  17
ENDBRANCH   1  11
BRANCH   8  20
ATOM     20  C   UNL     1       3.366  -3.783  25.190  0.00  0.00    +0.022 C 
ATOM     21  C   UNL     1       3.644  -2.728  25.963  0.00  0.00    +0.052 C 
ATOM     22 BR   UNL     1       2.413  -1.927  27.098  0.00  0.00    -0.059 Br
ENDBRANCH   8  20
TORSDOF 5
ENDMDL
MODEL 8
REMARK VINA RESULT:      -5.4      2.301      3.267
REMARK  Name = 
REMARK  5 active torsions:
REMARK  status: ('A' for Active; 'I' for Inactive)
REMARK    1  A    between atoms: C3*_2  and  O3*_22
REMARK    2  A    between atoms: C4*_4  and  C5*_20
REMARK    3  A    between atoms: C1*_7  and  N_9
REMARK    4  A    between atoms: C_11  and  C_17
REMARK    5  A    between atoms: C5*_20  and  O5*_21
REMARK                            x       y       z     vdW  Elec       q    Type
REMARK                         _______ _______ _______ _____ _____    ______ ____
ROOT
ATOM      1  N   UNL     1       9.399  -0.660  23.812  0.00  0.00    -0.273 N 
ATOM      2  C   UNL     1       9.927  -1.855  23.339  0.00  0.00    +0.331 A 
ATOM      3  O   UNL     1      10.784  -1.933  22.463  0.00  0.00    -0.246 OA
ATOM      4  N   UNL     1       9.471  -2.987  23.956  0.00  0.00    -0.274 N 
ATOM      5  H   UNL     1       9.925  -3.849  23.698  0.00  0.00    +0.173 HD
ATOM      6  C   UNL     1       8.663  -3.028  25.055  0.00  0.00    +0.261 A 
ATOM      7  O   UNL     1       8.505  -4.062  25.695  0.00  0.00    -0.267 OA
ATOM      8  C   UNL     1       8.006  -1.742  25.438  0.00  0.00    +0.056 A 
ATOM      9  C   UNL     1       8.430  -0.641  24.800  0.00  0.00    +0.106 A 
ENDROOT
BRANCH   1  11
ATOM     10  C2* UNL     1       9.957   1.731  24.256  0.00  0.00    +0.088 C 
ATOM     11  C1* UNL     1       9.933   0.582  23.242  0.00  0.00    +0.226 C 
ATOM     12  O4* UNL     1       9.133   1.018  22.124  0.00  0.00    -0.348 OA
ATOM     13  C4* UNL     1       8.628   2.343  22.398  0.00  0.00    +0.175 C 
ATOM     14  C3* UNL     1       9.572   2.935  23.436  0.00  0.00    +0.150 C 
BRANCH  14  15
ATOM     15  O3* UNL     1      10.733   3.463  22.795  0.00  0.00    -0.389 OA
ATOM     16  H3* UNL     1      10.599   3.402  21.833  0.00  0.00    +0.210 HD
ENDBRANCH  14  15
BRANCH  13  17
ATOM     17  C5* UNL     1       7.185   2.242  22.923  0.00  0.00    +0.190 C 
BRANCH  17  18
ATOM     18  O5* UNL     1       6.503   1.116  22.373  0.00  0.00    -0.392 OA
ATOM     19  H5* UNL     1       6.365   0.470  23.087  0.00  0.00    +0.210 HD
ENDBRANCH  17  18
ENDBRANCH  13  17
ENDBRANCH   1  11
BRANCH   8  20
ATOM     20  C   UNL     1       7.067  -1.724  26.547  0.00  0.00    +0.022 C 
ATOM     21  C   UNL     1       5.735  -1.775  26.449  0.00  0.00    +0.052 C 
ATOM     22 BR   UNL     1       4.588  -1.714  27.906  0.00  0.00    -0.059 Br
ENDBRANCH   8  20
TORSDOF 5
ENDMDL
MODEL 9
REMARK VINA RESULT:      -5.3      3.253      4.323
REMARK  Name = 
REMARK  5 active torsions:
REMARK  status: ('A' for Active; 'I' for Inactive)
REMARK    1  A    between atoms: C3*_2  and  O3*_22
REMARK    2  A    between atoms: C4*_4  and  C5*_20
REMARK    3  A    between atoms: C1*_7  and  N_9
REMARK    4  A    between atoms: C_11  and  C_17
REMARK    5  A    between atoms: C5*_20  and  O5*_21
REMARK                            x       y       z     vdW  Elec       q    Type
REMARK                         _______ _______ _______ _____ _____    ______ ____
ROOT
ATOM      1  N   UNL     1       5.688  -5.010  24.153  0.00  0.00    -0.273 N 
ATOM      2  C   UNL     1       5.049  -5.528  23.034  0.00  0.00    +0.331 A 
ATOM      3  O   UNL     1       5.290  -5.182  21.880  0.00  0.00    -0.246 OA
ATOM      4  N   UNL     1       4.141  -6.520  23.278  0.00  0.00    -0.274 N 
ATOM      5  H   UNL     1       3.752  -6.978  22.469  0.00  0.00    +0.173 HD
ATOM      6  C   UNL     1       3.915  -7.117  24.484  0.00  0.00    +0.261 A 
ATOM      7  O   UNL     1       3.275  -8.161  24.572  0.00  0.00    -0.267 OA
ATOM      8  C   UNL     1       4.507  -6.440  25.676  0.00  0.00    +0.056 A 
ATOM      9  C   UNL     1       5.367  -5.441  25.430  0.00  0.00    +0.106 A 
ENDROOT
BRANCH   1  11
ATOM     10  C2* UNL     1       8.095  -4.645  23.606  0.00  0.00    +0.088 C 
ATOM     11  C1* UNL     1       6.737  -4.010  23.926  0.00  0.00    +0.226 C 
ATOM     12  O4* UNL     1       6.919  -3.183  25.093  0.00  0.00    -0.348 OA
ATOM     13  C4* UNL     1       8.287  -3.298  25.539  0.00  0.00    +0.175 C 
ATOM     14  C3* UNL     1       9.078  -3.757  24.322  0.00  0.00    +0.150 C 
BRANCH  14  15
ATOM     15  O3* UNL     1       9.397  -2.638  23.495  0.00  0.00    -0.389 OA
ATOM     16  H3* UNL     1      10.091  -2.913  22.871  0.00  0.00    +0.210 HD
ENDBRANCH  14  15
BRANCH  13  17
ATOM     17  C5* UNL     1       8.366  -4.313  26.694  0.00  0.00    +0.190 C 
BRANCH  17  18
ATOM     18  O5* UNL     1       9.663  -4.898  26.792  0.00  0.00    -0.392 OA
ATOM     19  H5* UNL     1       9.553  -5.861  26.870  0.00  0.00    +0.210 HD
ENDBRANCH  17  18
ENDBRANCH  13  17
ENDBRANCH   1  11
BRANCH   8  20
ATOM     20  C   UNL     1       4.242  -6.970  27.003  0.00  0.00    +0.022 C 
ATOM     21  C   UNL     1       3.377  -6.467  27.890  0.00  0.00    +0.052 C 
ATOM     22 BR   UNL     1       3.108  -7.173  29.585  0.00  0.00    -0.059 Br
ENDBRANCH   8  20
TORSDOF 5
ENDMDL
