MODEL 1
REMARK VINA RESULT:      -8.0      0.000      0.000
REMARK  Name = 
REMARK  9 active torsions:
REMARK  status: ('A' for Active; 'I' for Inactive)
REMARK    1  A    between atoms: C_1  and  C_2
REMARK    2  A    between atoms: C_2  and  C_3
REMARK    3  A    between atoms: C_2  and  N_4
REMARK    4  A    between atoms: N_4  and  C_5
REMARK    5  A    between atoms: C_6  and  N_11
REMARK    6  A    between atoms: C_17  and  C_19
REMARK    7  A    between atoms: C_26  and  N_28
REMARK    8  A    between atoms: N_28  and  S_29
REMARK    9  A    between atoms: S_29  and  C_32
REMARK                            x       y       z     vdW  Elec       q    Type
REMARK                         _______ _______ _______ _____ _____    ______ ____
ROOT
ATOM      1  N   UNL     1       8.417   2.611  23.077  0.00  0.00    -0.311 N 
ATOM      2  C   UNL     1       7.635   1.568  23.757  0.00  0.00    +0.125 C 
ATOM      3  C   UNL     1       8.577   0.433  24.211  0.00  0.00    +0.127 C 
ATOM      4  N   UNL     1       9.367  -0.080  23.077  0.00  0.00    -0.293 N 
ATOM      5  C   UNL     1       9.631  -1.398  22.727  0.00  0.00    +0.263 C 
ATOM      6  O   UNL     1      10.460  -1.659  21.852  0.00  0.00    -0.268 OA
ATOM      7  C   UNL     1      10.135   0.981  22.412  0.00  0.00    +0.127 C 
ATOM      8  C   UNL     1       9.234   2.145  21.958  0.00  0.00    +0.125 C 
ENDROOT
BRANCH   5   9
ATOM      9  C   UNL     1       8.995  -2.499  23.425  0.00  0.00    +0.103 A 
ATOM     10  N   UNL     1       9.624  -3.069  24.518  0.00  0.00    -0.351 N 
ATOM     11  H   UNL     1      10.540  -2.783  24.836  0.00  0.00    +0.166 HD
ATOM     12  C   UNL     1       8.795  -3.957  25.159  0.00  0.00    +0.047 A 
ATOM     13  C   UNL     1       8.964  -4.655  26.359  0.00  0.00    +0.028 A 
ATOM     14  C   UNL     1       7.897  -5.450  26.791  0.00  0.00    +0.026 A 
ATOM     15  C   UNL     1       6.737  -5.567  26.028  0.00  0.00    +0.048 A 
ATOM     16  C   UNL     1       6.617  -4.921  24.796  0.00  0.00    +0.034 A 
ATOM     17  C   UNL     1       7.659  -4.079  24.368  0.00  0.00    +0.002 A 
ATOM     18  C   UNL     1       7.846  -3.244  23.232  0.00  0.00    +0.041 A 
BRANCH  15  19
ATOM     19  N   UNL     1       5.659  -6.366  26.495  0.00  0.00    -0.221 N 
ATOM     20  H   UNL     1       4.875  -6.524  25.864  0.00  0.00    +0.173 HD
BRANCH  19  21
ATOM     21  S   UNL     1       5.228  -6.283  28.120  0.00  0.00    +0.040 S 
ATOM     22  C   UNL     1       3.467  -6.522  28.053  0.00  0.00    +0.218 C 
ATOM     23  O   UNL     1       5.505  -4.963  28.634  0.00  0.00    -0.155 OA
ATOM     24  O   UNL     1       5.795  -7.464  28.735  0.00  0.00    -0.155 OA
ENDBRANCH  19  21
ENDBRANCH  15  19
ENDBRANCH   5   9
BRANCH   1  30
ATOM     25  C   UNL     1       8.527   4.994  23.790  0.00  0.00    +0.068 A 
ATOM     26  C   UNL     1       7.765   6.163  23.951  0.00  0.00    +0.028 A 
ATOM     27  C   UNL     1       6.496   6.270  23.399  0.00  0.00    +0.022 A 
ATOM     28  C   UNL     1       6.006   5.188  22.704  0.00  0.00    +0.113 A 
ATOM     29  N   UNL     1       6.668   4.022  22.576  0.00  0.00    -0.238 NA
ATOM     30  C   UNL     1       7.895   3.891  23.147  0.00  0.00    +0.142 A 
BRANCH  25  31
ATOM     31  N   UNL     1       9.825   4.896  24.343  0.00  0.00    -0.339 N 
ATOM     32  H   UNL     1       9.768   5.242  25.299  0.00  0.00    +0.146 HD
BRANCH  31  34
ATOM     33  C   UNL     1      11.642   6.471  24.627  0.00  0.00    +0.027 C 
ATOM     34  C   UNL     1      10.976   5.494  23.654  0.00  0.00    +0.064 C 
ATOM     35  C   UNL     1      11.997   4.437  23.226  0.00  0.00    +0.027 C 
ENDBRANCH  31  34
ENDBRANCH  25  31
ENDBRANCH   1  30
TORSDOF 6
ENDMDL
MODEL 2
REMARK VINA RESULT:      -8.0      1.952      2.450
REMARK  Name = 
REMARK  9 active torsions:
REMARK  status: ('A' for Active; 'I' for Inactive)
REMARK    1  A    between atoms: C_1  and  C_2
REMARK    2  A    between atoms: C_2  and  C_3
REMARK    3  A    between atoms: C_2  and  N_4
REMARK    4  A    between atoms: N_4  and  C_5
REMARK    5  A    between atoms: C_6  and  N_11
REMARK    6  A    between atoms: C_17  and  C_19
REMARK    7  A    between atoms: C_26  and  N_28
REMARK    8  A    between atoms: N_28  and  S_29
REMARK    9  A    between atoms: S_29  and  C_32
REMARK                            x       y       z     vdW  Elec       q    Type
REMARK                         _______ _______ _______ _____ _____    ______ ____
ROOT
ATOM      1  N   UNL     1       8.770   2.814  23.095  0.00  0.00    -0.311 N 
ATOM      2  C   UNL     1       7.640   1.874  23.125  0.00  0.00    +0.125 C 
ATOM      3  C   UNL     1       8.047   0.607  23.906  0.00  0.00    +0.127 C 
ATOM      4  N   UNL     1       9.277   0.017  23.347  0.00  0.00    -0.293 N 
ATOM      5  C   UNL     1       9.554  -1.316  23.071  0.00  0.00    +0.263 C 
ATOM      6  O   UNL     1      10.699  -1.668  22.774  0.00  0.00    -0.268 OA
ATOM      7  C   UNL     1      10.389   0.976  23.324  0.00  0.00    +0.127 C 
ATOM      8  C   UNL     1      10.020   2.267  22.568  0.00  0.00    +0.125 C 
ENDROOT
BRANCH   5   9
ATOM      9  C   UNL     1       8.529  -2.335  23.191  0.00  0.00    +0.103 A 
ATOM     10  N   UNL     1       7.711  -2.611  22.111  0.00  0.00    -0.351 N 
ATOM     11  H   UNL     1       7.761  -2.101  21.239  0.00  0.00    +0.166 HD
ATOM     12  C   UNL     1       6.940  -3.723  22.344  0.00  0.00    +0.047 A 
ATOM     13  C   UNL     1       6.079  -4.427  21.497  0.00  0.00    +0.028 A 
ATOM     14  C   UNL     1       5.473  -5.577  22.014  0.00  0.00    +0.026 A 
ATOM     15  C   UNL     1       5.692  -5.970  23.333  0.00  0.00    +0.048 A 
ATOM     16  C   UNL     1       6.498  -5.213  24.186  0.00  0.00    +0.034 A 
ATOM     17  C   UNL     1       7.154  -4.081  23.670  0.00  0.00    +0.002 A 
ATOM     18  C   UNL     1       8.068  -3.137  24.218  0.00  0.00    +0.041 A 
BRANCH  15  19
ATOM     19  N   UNL     1       5.081  -7.152  23.832  0.00  0.00    -0.221 N 
ATOM     20  H   UNL     1       5.124  -7.989  23.254  0.00  0.00    +0.173 HD
BRANCH  19  21
ATOM     21  S   UNL     1       3.675  -7.019  24.748  0.00  0.00    +0.040 S 
ATOM     22  C   UNL     1       4.319  -6.868  26.399  0.00  0.00    +0.218 C 
ATOM     23  O   UNL     1       2.910  -8.239  24.651  0.00  0.00    -0.155 OA
ATOM     24  O   UNL     1       3.099  -5.740  24.396  0.00  0.00    -0.155 OA
ENDBRANCH  19  21
ENDBRANCH  15  19
ENDBRANCH   5   9
BRANCH   1  30
ATOM     25  C   UNL     1       9.201   5.228  23.523  0.00  0.00    +0.068 A 
ATOM     26  C   UNL     1       8.609   6.502  23.518  0.00  0.00    +0.028 A 
ATOM     27  C   UNL     1       7.378   6.714  22.912  0.00  0.00    +0.022 A 
ATOM     28  C   UNL     1       6.754   5.633  22.333  0.00  0.00    +0.113 A 
ATOM     29  N   UNL     1       7.247   4.380  22.367  0.00  0.00    -0.238 NA
ATOM     30  C   UNL     1       8.433   4.152  22.993  0.00  0.00    +0.142 A 
BRANCH  25  31
ATOM     31  N   UNL     1      10.462   5.020  24.130  0.00  0.00    -0.339 N 
ATOM     32  H   UNL     1      10.323   5.092  25.137  0.00  0.00    +0.146 HD
BRANCH  31  34
ATOM     33  C   UNL     1      12.127   6.574  24.953  0.00  0.00    +0.027 C 
ATOM     34  C   UNL     1      11.627   5.815  23.720  0.00  0.00    +0.064 C 
ATOM     35  C   UNL     1      12.757   4.936  23.180  0.00  0.00    +0.027 C 
ENDBRANCH  31  34
ENDBRANCH  25  31
ENDBRANCH   1  30
TORSDOF 6
ENDMDL
MODEL 3
REMARK VINA RESULT:      -8.0      1.112      1.479
REMARK  Name = 
REMARK  9 active torsions:
REMARK  status: ('A' for Active; 'I' for Inactive)
REMARK    1  A    between atoms: C_1  and  C_2
REMARK    2  A    between atoms: C_2  and  C_3
REMARK    3  A    between atoms: C_2  and  N_4
REMARK    4  A    between atoms: N_4  and  C_5
REMARK    5  A    between atoms: C_6  and  N_11
REMARK    6  A    between atoms: C_17  and  C_19
REMARK    7  A    between atoms: C_26  and  N_28
REMARK    8  A    between atoms: N_28  and  S_29
REMARK    9  A    between atoms: S_29  and  C_32
REMARK                            x       y       z     vdW  Elec       q    Type
REMARK                         _______ _______ _______ _____ _____    ______ ____
ROOT
ATOM      1  N   UNL     1       8.883   2.629  23.274  0.00  0.00    -0.311 N 
ATOM      2  C   UNL     1       7.869   1.814  23.958  0.00  0.00    +0.125 C 
ATOM      3  C   UNL     1       8.561   0.666  24.722  0.00  0.00    +0.127 C 
ATOM      4  N   UNL     1       9.425  -0.119  23.821  0.00  0.00    -0.293 N 
ATOM      5  C   UNL     1       9.544  -1.499  23.716  0.00  0.00    +0.263 C 
ATOM      6  O   UNL     1      10.446  -2.000  23.038  0.00  0.00    -0.268 OA
ATOM      7  C   UNL     1      10.427   0.717  23.148  0.00  0.00    +0.127 C 
ATOM      8  C   UNL     1       9.780   1.889  22.385  0.00  0.00    +0.125 C 
ENDROOT
BRANCH   5   9
ATOM      9  C   UNL     1       8.662  -2.386  24.450  0.00  0.00    +0.103 A 
ATOM     10  N   UNL     1       7.472  -2.795  23.876  0.00  0.00    -0.351 N 
ATOM     11  H   UNL     1       7.157  -2.468  22.972  0.00  0.00    +0.166 HD
ATOM     12  C   UNL     1       6.868  -3.772  24.628  0.00  0.00    +0.047 A 
ATOM     13  C   UNL     1       5.736  -4.551  24.369  0.00  0.00    +0.028 A 
ATOM     14  C   UNL     1       5.399  -5.524  25.315  0.00  0.00    +0.026 A 
ATOM     15  C   UNL     1       6.144  -5.673  26.484  0.00  0.00    +0.048 A 
ATOM     16  C   UNL     1       7.227  -4.836  26.760  0.00  0.00    +0.034 A 
ATOM     17  C   UNL     1       7.609  -3.885  25.798  0.00  0.00    +0.002 A 
ATOM     18  C   UNL     1       8.665  -2.934  25.719  0.00  0.00    +0.041 A 
BRANCH  15  19
ATOM     19  N   UNL     1       5.794  -6.681  27.423  0.00  0.00    -0.221 N 
ATOM     20  H   UNL     1       5.386  -7.542  27.066  0.00  0.00    +0.173 HD
BRANCH  19  21
ATOM     21  S   UNL     1       5.219  -6.221  28.937  0.00  0.00    +0.040 S 
ATOM     22  C   UNL     1       4.099  -4.902  28.525  0.00  0.00    +0.218 C 
ATOM     23  O   UNL     1       6.301  -5.690  29.731  0.00  0.00    -0.155 OA
ATOM     24  O   UNL     1       4.417  -7.332  29.403  0.00  0.00    -0.155 OA
ENDBRANCH  19  21
ENDBRANCH  15  19
ENDBRANCH   5   9
BRANCH   1  30
ATOM     25  C   UNL     1       9.344   5.068  23.465  0.00  0.00    +0.068 A 
ATOM     26  C   UNL     1       8.758   6.341  23.373  0.00  0.00    +0.028 A 
ATOM     27  C   UNL     1       7.501   6.508  22.808  0.00  0.00    +0.022 A 
ATOM     28  C   UNL     1       6.846   5.385  22.356  0.00  0.00    +0.113 A 
ATOM     29  N   UNL     1       7.335   4.136  22.480  0.00  0.00    -0.238 NA
ATOM     30  C   UNL     1       8.547   3.955  23.069  0.00  0.00    +0.142 A 
BRANCH  25  31
ATOM     31  N   UNL     1      10.630   4.904  24.030  0.00  0.00    -0.339 N 
ATOM     32  H   UNL     1      10.512   4.892  25.042  0.00  0.00    +0.146 HD
BRANCH  31  34
ATOM     33  C   UNL     1      12.134   6.585  24.912  0.00  0.00    +0.027 C 
ATOM     34  C   UNL     1      11.728   5.806  23.657  0.00  0.00    +0.064 C 
ATOM     35  C   UNL     1      12.942   5.039  23.129  0.00  0.00    +0.027 C 
ENDBRANCH  31  34
ENDBRANCH  25  31
ENDBRANCH   1  30
TORSDOF 6
ENDMDL
MODEL 4
REMARK VINA RESULT:      -7.9      1.424      2.939
REMARK  Name = 
REMARK  9 active torsions:
REMARK  status: ('A' for Active; 'I' for Inactive)
REMARK    1  A    between atoms: C_1  and  C_2
REMARK    2  A    between atoms: C_2  and  C_3
REMARK    3  A    between atoms: C_2  and  N_4
REMARK    4  A    between atoms: N_4  and  C_5
REMARK    5  A    between atoms: C_6  and  N_11
REMARK    6  A    between atoms: C_17  and  C_19
REMARK    7  A    between atoms: C_26  and  N_28
REMARK    8  A    between atoms: N_28  and  S_29
REMARK    9  A    between atoms: S_29  and  C_32
REMARK                            x       y       z     vdW  Elec       q    Type
REMARK                         _______ _______ _______ _____ _____    ______ ____
ROOT
ATOM      1  N   UNL     1      10.021   2.069  23.272  0.00  0.00    -0.311 N 
ATOM      2  C   UNL     1       9.295   1.388  24.355  0.00  0.00    +0.125 C 
ATOM      3  C   UNL     1       9.593  -0.125  24.301  0.00  0.00    +0.127 C 
ATOM      4  N   UNL     1       9.290  -0.673  22.967  0.00  0.00    -0.293 N 
ATOM      5  C   UNL     1       8.615  -1.842  22.640  0.00  0.00    +0.263 C 
ATOM      6  O   UNL     1       8.603  -2.254  21.477  0.00  0.00    -0.268 OA
ATOM      7  C   UNL     1      10.024   0.025  21.903  0.00  0.00    +0.127 C 
ATOM      8  C   UNL     1       9.770   1.544  21.930  0.00  0.00    +0.125 C 
ENDROOT
BRANCH   5   9
ATOM      9  C   UNL     1       7.970  -2.645  23.661  0.00  0.00    +0.103 A 
ATOM     10  N   UNL     1       6.610  -2.510  23.878  0.00  0.00    -0.351 N 
ATOM     11  H   UNL     1       6.039  -1.838  23.383  0.00  0.00    +0.166 HD
ATOM     12  C   UNL     1       6.146  -3.476  24.737  0.00  0.00    +0.047 A 
ATOM     13  C   UNL     1       4.843  -3.794  25.130  0.00  0.00    +0.028 A 
ATOM     14  C   UNL     1       4.682  -4.891  25.983  0.00  0.00    +0.026 A 
ATOM     15  C   UNL     1       5.787  -5.603  26.449  0.00  0.00    +0.048 A 
ATOM     16  C   UNL     1       7.085  -5.224  26.103  0.00  0.00    +0.034 A 
ATOM     17  C   UNL     1       7.264  -4.155  25.208  0.00  0.00    +0.002 A 
ATOM     18  C   UNL     1       8.405  -3.551  24.610  0.00  0.00    +0.041 A 
BRANCH  15  19
ATOM     19  N   UNL     1       5.599  -6.725  27.300  0.00  0.00    -0.221 N 
ATOM     20  H   UNL     1       4.901  -7.416  27.029  0.00  0.00    +0.173 HD
BRANCH  19  21
ATOM     21  S   UNL     1       5.757  -6.523  28.963  0.00  0.00    +0.040 S 
ATOM     22  C   UNL     1       4.126  -6.926  29.546  0.00  0.00    +0.218 C 
ATOM     23  O   UNL     1       6.036  -5.138  29.264  0.00  0.00    -0.155 OA
ATOM     24  O   UNL     1       6.641  -7.581  29.403  0.00  0.00    -0.155 OA
ENDBRANCH  19  21
ENDBRANCH  15  19
ENDBRANCH   5   9
BRANCH   1  30
ATOM     25  C   UNL     1       9.418   4.437  23.745  0.00  0.00    +0.068 A 
ATOM     26  C   UNL     1       9.916   5.751  23.759  0.00  0.00    +0.028 A 
ATOM     27  C   UNL     1      11.280   5.997  23.669  0.00  0.00    +0.022 A 
ATOM     28  C   UNL     1      12.121   4.915  23.551  0.00  0.00    +0.113 A 
ATOM     29  N   UNL     1      11.691   3.641  23.467  0.00  0.00    -0.238 NA
ATOM     30  C   UNL     1      10.355   3.390  23.513  0.00  0.00    +0.142 A 
BRANCH  25  31
ATOM     31  N   UNL     1       8.030   4.191  23.849  0.00  0.00    -0.339 N 
ATOM     32  H   UNL     1       7.919   3.209  24.097  0.00  0.00    +0.146 HD
BRANCH  31  34
ATOM     33  C   UNL     1       6.582   3.236  22.159  0.00  0.00    +0.027 C 
ATOM     34  C   UNL     1       7.125   4.542  22.747  0.00  0.00    +0.064 C 
ATOM     35  C   UNL     1       5.953   5.403  23.222  0.00  0.00    +0.027 C 
ENDBRANCH  31  34
ENDBRANCH  25  31
ENDBRANCH   1  30
TORSDOF 6
ENDMDL
MODEL 5
REMARK VINA RESULT:      -7.8      3.623     10.173
REMARK  Name = 
REMARK  9 active torsions:
REMARK  status: ('A' for Active; 'I' for Inactive)
REMARK    1  A    between atoms: C_1  and  C_2
REMARK    2  A    between atoms: C_2  and  C_3
REMARK    3  A    between atoms: C_2  and  N_4
REMARK    4  A    between atoms: N_4  and  C_5
REMARK    5  A    between atoms: C_6  and  N_11
REMARK    6  A    between atoms: C_17  and  C_19
REMARK    7  A    between atoms: C_26  and  N_28
REMARK    8  A    between atoms: N_28  and  S_29
REMARK    9  A    between atoms: S_29  and  C_32
REMARK                            x       y       z     vdW  Elec       q    Type
REMARK                         _______ _______ _______ _____ _____    ______ ____
ROOT
ATOM      1  N   UNL     1       7.025  -4.832  26.273  0.00  0.00    -0.311 N 
ATOM      2  C   UNL     1       6.867  -3.373  26.368  0.00  0.00    +0.125 C 
ATOM      3  C   UNL     1       7.193  -2.731  25.004  0.00  0.00    +0.127 C 
ATOM      4  N   UNL     1       8.530  -3.140  24.536  0.00  0.00    -0.293 N 
ATOM      5  C   UNL     1       9.535  -2.357  23.983  0.00  0.00    +0.263 C 
ATOM      6  O   UNL     1      10.530  -2.881  23.475  0.00  0.00    -0.268 OA
ATOM      7  C   UNL     1       8.664  -4.600  24.454  0.00  0.00    +0.127 C 
ATOM      8  C   UNL     1       8.330  -5.286  25.792  0.00  0.00    +0.125 C 
ENDROOT
BRANCH   5   9
ATOM      9  C   UNL     1       9.412  -0.913  23.925  0.00  0.00    +0.103 A 
ATOM     10  N   UNL     1       8.985  -0.310  22.755  0.00  0.00    -0.351 N 
ATOM     11  H   UNL     1       8.792  -0.829  21.909  0.00  0.00    +0.166 HD
ATOM     12  C   UNL     1       8.746   1.029  22.945  0.00  0.00    +0.047 A 
ATOM     13  C   UNL     1       8.192   1.984  22.088  0.00  0.00    +0.028 A 
ATOM     14  C   UNL     1       8.016   3.275  22.599  0.00  0.00    +0.026 A 
ATOM     15  C   UNL     1       8.420   3.593  23.894  0.00  0.00    +0.048 A 
ATOM     16  C   UNL     1       9.040   2.644  24.709  0.00  0.00    +0.034 A 
ATOM     17  C   UNL     1       9.181   1.329  24.230  0.00  0.00    +0.002 A 
ATOM     18  C   UNL     1       9.695   0.127  24.792  0.00  0.00    +0.041 A 
BRANCH  15  19
ATOM     19  N   UNL     1       8.215   4.906  24.398  0.00  0.00    -0.221 N 
ATOM     20  H   UNL     1       7.265   5.178  24.643  0.00  0.00    +0.173 HD
BRANCH  19  21
ATOM     21  S   UNL     1       9.160   6.165  23.803  0.00  0.00    +0.040 S 
ATOM     22  C   UNL     1       9.496   7.108  25.273  0.00  0.00    +0.218 C 
ATOM     23  O   UNL     1       8.382   6.973  22.893  0.00  0.00    -0.155 OA
ATOM     24  O   UNL     1      10.406   5.557  23.391  0.00  0.00    -0.155 OA
ENDBRANCH  19  21
ENDBRANCH  15  19
ENDBRANCH   5   9
BRANCH   1  30
ATOM     25  C   UNL     1       4.905  -5.993  26.869  0.00  0.00    +0.068 A 
ATOM     26  C   UNL     1       4.184  -6.556  27.935  0.00  0.00    +0.028 A 
ATOM     27  C   UNL     1       4.794  -6.801  29.158  0.00  0.00    +0.022 A 
ATOM     28  C   UNL     1       6.120  -6.460  29.293  0.00  0.00    +0.113 A 
ATOM     29  N   UNL     1       6.838  -5.859  28.325  0.00  0.00    -0.238 NA
ATOM     30  C   UNL     1       6.241  -5.577  27.137  0.00  0.00    +0.142 A 
BRANCH  25  31
ATOM     31  N   UNL     1       4.283  -5.757  25.621  0.00  0.00    -0.339 N 
ATOM     32  H   UNL     1       3.287  -5.639  25.802  0.00  0.00    +0.146 HD
BRANCH  31  34
ATOM     33  C   UNL     1       3.109  -7.142  24.018  0.00  0.00    +0.027 C 
ATOM     34  C   UNL     1       4.489  -6.682  24.499  0.00  0.00    +0.064 C 
ATOM     35  C   UNL     1       5.228  -6.014  23.337  0.00  0.00    +0.027 C 
ENDBRANCH  31  34
ENDBRANCH  25  31
ENDBRANCH   1  30
TORSDOF 6
ENDMDL
MODEL 6
REMARK VINA RESULT:      -7.8      3.508      9.696
REMARK  Name = 
REMARK  9 active torsions:
REMARK  status: ('A' for Active; 'I' for Inactive)
REMARK    1  A    between atoms: C_1  and  C_2
REMARK    2  A    between atoms: C_2  and  C_3
REMARK    3  A    between atoms: C_2  and  N_4
REMARK    4  A    between atoms: N_4  and  C_5
REMARK    5  A    between atoms: C_6  and  N_11
REMARK    6  A    between atoms: C_17  and  C_19
REMARK    7  A    between atoms: C_26  and  N_28
REMARK    8  A    between atoms: N_28  and  S_29
REMARK    9  A    between atoms: S_29  and  C_32
REMARK                            x       y       z     vdW  Elec       q    Type
REMARK                         _______ _______ _______ _____ _____    ______ ____
ROOT
ATOM      1  N   UNL     1       5.421  -4.532  26.232  0.00  0.00    -0.311 N 
ATOM      2  C   UNL     1       5.718  -3.108  26.019  0.00  0.00    +0.125 C 
ATOM      3  C   UNL     1       6.618  -2.951  24.775  0.00  0.00    +0.127 C 
ATOM      4  N   UNL     1       7.828  -3.785  24.893  0.00  0.00    -0.293 N 
ATOM      5  C   UNL     1       9.146  -3.448  24.614  0.00  0.00    +0.263 C 
ATOM      6  O   UNL     1      10.022  -4.317  24.590  0.00  0.00    -0.268 OA
ATOM      7  C   UNL     1       7.504  -5.202  25.108  0.00  0.00    +0.127 C 
ATOM      8  C   UNL     1       6.591  -5.404  26.332  0.00  0.00    +0.125 C 
ENDROOT
BRANCH   5   9
ATOM      9  C   UNL     1       9.516  -2.087  24.275  0.00  0.00    +0.103 A 
ATOM     10  N   UNL     1       9.615  -1.717  22.946  0.00  0.00    -0.351 N 
ATOM     11  H   UNL     1       9.485  -2.368  22.183  0.00  0.00    +0.166 HD
ATOM     12  C   UNL     1       9.783  -0.360  22.820  0.00  0.00    +0.047 A 
ATOM     13  C   UNL     1       9.803   0.453  21.683  0.00  0.00    +0.028 A 
ATOM     14  C   UNL     1       9.931   1.831  21.884  0.00  0.00    +0.026 A 
ATOM     15  C   UNL     1      10.076   2.356  23.167  0.00  0.00    +0.048 A 
ATOM     16  C   UNL     1      10.129   1.521  24.285  0.00  0.00    +0.034 A 
ATOM     17  C   UNL     1       9.953   0.138  24.107  0.00  0.00    +0.002 A 
ATOM     18  C   UNL     1       9.891  -0.970  24.997  0.00  0.00    +0.041 A 
BRANCH  15  19
ATOM     19  N   UNL     1      10.187   3.761  23.350  0.00  0.00    -0.221 N 
ATOM     20  H   UNL     1      11.068   4.127  23.705  0.00  0.00    +0.173 HD
BRANCH  19  21
ATOM     21  S   UNL     1       8.832   4.628  23.847  0.00  0.00    +0.040 S 
ATOM     22  C   UNL     1       9.268   6.292  23.399  0.00  0.00    +0.218 C 
ATOM     23  O   UNL     1       8.698   4.546  25.282  0.00  0.00    -0.155 OA
ATOM     24  O   UNL     1       7.760   4.216  22.967  0.00  0.00    -0.155 OA
ENDBRANCH  19  21
ENDBRANCH  15  19
ENDBRANCH   5   9
BRANCH   1  30
ATOM     25  C   UNL     1       3.144  -5.538  26.295  0.00  0.00    +0.068 A 
ATOM     26  C   UNL     1       1.926  -5.539  26.994  0.00  0.00    +0.028 A 
ATOM     27  C   UNL     1       1.823  -4.949  28.247  0.00  0.00    +0.022 A 
ATOM     28  C   UNL     1       2.947  -4.352  28.770  0.00  0.00    +0.113 A 
ATOM     29  N   UNL     1       4.120  -4.266  28.113  0.00  0.00    -0.238 NA
ATOM     30  C   UNL     1       4.222  -4.805  26.868  0.00  0.00    +0.142 A 
BRANCH  25  31
ATOM     31  N   UNL     1       3.248  -6.152  25.025  0.00  0.00    -0.339 N 
ATOM     32  H   UNL     1       4.153  -6.619  24.993  0.00  0.00    +0.146 HD
BRANCH  31  34
ATOM     33  C   UNL     1       4.307  -5.481  22.953  0.00  0.00    +0.027 C 
ATOM     34  C   UNL     1       3.035  -5.370  23.799  0.00  0.00    +0.064 C 
ATOM     35  C   UNL     1       1.846  -5.891  22.989  0.00  0.00    +0.027 C 
ENDBRANCH  31  34
ENDBRANCH  25  31
ENDBRANCH   1  30
TORSDOF 6
ENDMDL
MODEL 7
REMARK VINA RESULT:      -7.7      3.633      9.704
REMARK  Name = 
REMARK  9 active torsions:
REMARK  status: ('A' for Active; 'I' for Inactive)
REMARK    1  A    between atoms: C_1  and  C_2
REMARK    2  A    between atoms: C_2  and  C_3
REMARK    3  A    between atoms: C_2  and  N_4
REMARK    4  A    between atoms: N_4  and  C_5
REMARK    5  A    between atoms: C_6  and  N_11
REMARK    6  A    between atoms: C_17  and  C_19
REMARK    7  A    between atoms: C_26  and  N_28
REMARK    8  A    between atoms: N_28  and  S_29
REMARK    9  A    between atoms: S_29  and  C_32
REMARK                            x       y       z     vdW  Elec       q    Type
REMARK                         _______ _______ _______ _____ _____    ______ ____
ROOT
ATOM      1  N   UNL     1       4.995  -4.700  24.126  0.00  0.00    -0.311 N 
ATOM      2  C   UNL     1       5.280  -3.263  24.000  0.00  0.00    +0.125 C 
ATOM      3  C   UNL     1       6.616  -3.068  23.253  0.00  0.00    +0.127 C 
ATOM      4  N   UNL     1       7.701  -3.819  23.910  0.00  0.00    -0.293 N 
ATOM      5  C   UNL     1       8.992  -3.402  24.205  0.00  0.00    +0.263 C 
ATOM      6  O   UNL     1       9.839  -4.211  24.595  0.00  0.00    -0.268 OA
ATOM      7  C   UNL     1       7.391  -5.250  24.027  0.00  0.00    +0.127 C 
ATOM      8  C   UNL     1       6.053  -5.491  24.753  0.00  0.00    +0.125 C 
ENDROOT
BRANCH   5   9
ATOM      9  C   UNL     1       9.400  -2.025  23.998  0.00  0.00    +0.103 A 
ATOM     10  N   UNL     1       9.593  -1.555  22.712  0.00  0.00    -0.351 N 
ATOM     11  H   UNL     1       9.506  -2.144  21.894  0.00  0.00    +0.166 HD
ATOM     12  C   UNL     1       9.785  -0.196  22.703  0.00  0.00    +0.047 A 
ATOM     13  C   UNL     1       9.890   0.701  21.636  0.00  0.00    +0.028 A 
ATOM     14  C   UNL     1      10.021   2.058  21.953  0.00  0.00    +0.026 A 
ATOM     15  C   UNL     1      10.086   2.480  23.279  0.00  0.00    +0.048 A 
ATOM     16  C   UNL     1      10.054   1.561  24.330  0.00  0.00    +0.034 A 
ATOM     17  C   UNL     1       9.874   0.199  24.033  0.00  0.00    +0.002 A 
ATOM     18  C   UNL     1       9.740  -0.973  24.829  0.00  0.00    +0.041 A 
BRANCH  15  19
ATOM     19  N   UNL     1      10.201   3.865  23.577  0.00  0.00    -0.221 N 
ATOM     20  H   UNL     1      11.049   4.183  24.041  0.00  0.00    +0.173 HD
BRANCH  19  21
ATOM     21  S   UNL     1       8.818   4.723  24.007  0.00  0.00    +0.040 S 
ATOM     22  C   UNL     1       9.229   6.375  23.493  0.00  0.00    +0.218 C 
ATOM     23  O   UNL     1       8.656   4.703  25.442  0.00  0.00    -0.155 OA
ATOM     24  O   UNL     1       7.774   4.249  23.126  0.00  0.00    -0.155 OA
ENDBRANCH  19  21
ENDBRANCH  15  19
ENDBRANCH   5   9
BRANCH   1  30
ATOM     25  C   UNL     1       2.910  -5.145  25.412  0.00  0.00    +0.068 A 
ATOM     26  C   UNL     1       1.626  -5.706  25.326  0.00  0.00    +0.028 A 
ATOM     27  C   UNL     1       1.070  -6.030  24.095  0.00  0.00    +0.022 A 
ATOM     28  C   UNL     1       1.825  -5.797  22.969  0.00  0.00    +0.113 A 
ATOM     29  N   UNL     1       3.086  -5.323  23.001  0.00  0.00    -0.238 NA
ATOM     30  C   UNL     1       3.656  -5.040  24.203  0.00  0.00    +0.142 A 
BRANCH  25  31
ATOM     31  N   UNL     1       3.467  -4.805  26.667  0.00  0.00    -0.339 N 
ATOM     32  H   UNL     1       4.458  -4.626  26.514  0.00  0.00    +0.146 HD
BRANCH  31  34
ATOM     33  C   UNL     1       4.498  -6.615  27.902  0.00  0.00    +0.027 C 
ATOM     34  C   UNL     1       3.283  -5.686  27.828  0.00  0.00    +0.064 C 
ATOM     35  C   UNL     1       3.176  -4.895  29.133  0.00  0.00    +0.027 C 
ENDBRANCH  31  34
ENDBRANCH  25  31
ENDBRANCH   1  30
TORSDOF 6
ENDMDL
MODEL 8
REMARK VINA RESULT:      -7.0      4.216     10.020
REMARK  Name = 
REMARK  9 active torsions:
REMARK  status: ('A' for Active; 'I' for Inactive)
REMARK    1  A    between atoms: C_1  and  C_2
REMARK    2  A    between atoms: C_2  and  C_3
REMARK    3  A    between atoms: C_2  and  N_4
REMARK    4  A    between atoms: N_4  and  C_5
REMARK    5  A    between atoms: C_6  and  N_11
REMARK    6  A    between atoms: C_17  and  C_19
REMARK    7  A    between atoms: C_26  and  N_28
REMARK    8  A    between atoms: N_28  and  S_29
REMARK    9  A    between atoms: S_29  and  C_32
REMARK                            x       y       z     vdW  Elec       q    Type
REMARK                         _______ _______ _______ _____ _____    ______ ____
ROOT
ATOM      1  N   UNL     1       5.376  -3.426  25.185  0.00  0.00    -0.311 N 
ATOM      2  C   UNL     1       5.545  -2.185  24.414  0.00  0.00    +0.125 C 
ATOM      3  C   UNL     1       7.040  -1.807  24.371  0.00  0.00    +0.127 C 
ATOM      4  N   UNL     1       7.602  -1.725  25.732  0.00  0.00    -0.293 N 
ATOM      5  C   UNL     1       8.431  -0.752  26.273  0.00  0.00    +0.263 C 
ATOM      6  O   UNL     1       8.962  -0.922  27.374  0.00  0.00    -0.268 OA
ATOM      7  C   UNL     1       7.417  -2.974  26.482  0.00  0.00    +0.127 C 
ATOM      8  C   UNL     1       5.937  -3.400  26.535  0.00  0.00    +0.125 C 
ENDROOT
BRANCH   5   9
ATOM      9  C   UNL     1       8.752   0.454  25.533  0.00  0.00    +0.103 A 
ATOM     10  N   UNL     1       8.017   1.606  25.752  0.00  0.00    -0.351 N 
ATOM     11  H   UNL     1       7.224   1.641  26.379  0.00  0.00    +0.166 HD
ATOM     12  C   UNL     1       8.581   2.683  25.114  0.00  0.00    +0.047 A 
ATOM     13  C   UNL     1       8.254   4.042  25.162  0.00  0.00    +0.028 A 
ATOM     14  C   UNL     1       9.068   4.921  24.439  0.00  0.00    +0.026 A 
ATOM     15  C   UNL     1      10.131   4.445  23.672  0.00  0.00    +0.048 A 
ATOM     16  C   UNL     1      10.396   3.077  23.579  0.00  0.00    +0.034 A 
ATOM     17  C   UNL     1       9.619   2.183  24.337  0.00  0.00    +0.002 A 
ATOM     18  C   UNL     1       9.643   0.773  24.526  0.00  0.00    +0.041 A 
BRANCH  15  19
ATOM     19  N   UNL     1      10.955   5.357  22.961  0.00  0.00    -0.221 N 
ATOM     20  H   UNL     1      10.795   5.462  21.961  0.00  0.00    +0.173 HD
BRANCH  19  21
ATOM     21  S   UNL     1      12.564   5.534  23.424  0.00  0.00    +0.040 S 
ATOM     22  C   UNL     1      13.323   6.111  21.923  0.00  0.00    +0.218 C 
ATOM     23  O   UNL     1      13.119   4.246  23.767  0.00  0.00    -0.155 OA
ATOM     24  O   UNL     1      12.582   6.635  24.362  0.00  0.00    -0.155 OA
ENDBRANCH  19  21
ENDBRANCH  15  19
ENDBRANCH   5   9
BRANCH   1  30
ATOM     25  C   UNL     1       4.078  -4.795  23.560  0.00  0.00    +0.068 A 
ATOM     26  C   UNL     1       2.820  -5.369  23.315  0.00  0.00    +0.028 A 
ATOM     27  C   UNL     1       1.866  -5.455  24.320  0.00  0.00    +0.022 A 
ATOM     28  C   UNL     1       2.191  -4.945  25.557  0.00  0.00    +0.113 A 
ATOM     29  N   UNL     1       3.357  -4.327  25.827  0.00  0.00    -0.238 NA
ATOM     30  C   UNL     1       4.283  -4.201  24.839  0.00  0.00    +0.142 A 
BRANCH  25  31
ATOM     31  N   UNL     1       5.051  -4.722  22.536  0.00  0.00    -0.339 N 
ATOM     32  H   UNL     1       4.549  -4.604  21.657  0.00  0.00    +0.146 HD
BRANCH  31  34
ATOM     33  C   UNL     1       6.246  -6.058  20.908  0.00  0.00    +0.027 C 
ATOM     34  C   UNL     1       6.072  -5.769  22.401  0.00  0.00    +0.064 C 
ATOM     35  C   UNL     1       7.417  -5.335  22.988  0.00  0.00    +0.027 C 
ENDBRANCH  31  34
ENDBRANCH  25  31
ENDBRANCH   1  30
TORSDOF 6
ENDMDL
MODEL 9
REMARK VINA RESULT:      -6.9      1.109      2.740
REMARK  Name = 
REMARK  9 active torsions:
REMARK  status: ('A' for Active; 'I' for Inactive)
REMARK    1  A    between atoms: C_1  and  C_2
REMARK    2  A    between atoms: C_2  and  C_3
REMARK    3  A    between atoms: C_2  and  N_4
REMARK    4  A    between atoms: N_4  and  C_5
REMARK    5  A    between atoms: C_6  and  N_11
REMARK    6  A    between atoms: C_17  and  C_19
REMARK    7  A    between atoms: C_26  and  N_28
REMARK    8  A    between atoms: N_28  and  S_29
REMARK    9  A    between atoms: S_29  and  C_32
REMARK                            x       y       z     vdW  Elec       q    Type
REMARK                         _______ _______ _______ _____ _____    ______ ____
ROOT
ATOM      1  N   UNL     1       8.878   2.647  23.447  0.00  0.00    -0.311 N 
ATOM      2  C   UNL     1       8.199   1.647  24.284  0.00  0.00    +0.125 C 
ATOM      3  C   UNL     1       9.055   0.365  24.351  0.00  0.00    +0.127 C 
ATOM      4  N   UNL     1       9.370  -0.128  22.998  0.00  0.00    -0.293 N 
ATOM      5  C   UNL     1       9.314  -1.428  22.512  0.00  0.00    +0.263 C 
ATOM      6  O   UNL     1       9.784  -1.703  21.404  0.00  0.00    -0.268 OA
ATOM      7  C   UNL     1      10.044   0.890  22.181  0.00  0.00    +0.127 C 
ATOM      8  C   UNL     1       9.231   2.196  22.102  0.00  0.00    +0.125 C 
ENDROOT
BRANCH   5   9
ATOM      9  C   UNL     1       8.769  -2.505  23.315  0.00  0.00    +0.103 A 
ATOM     10  N   UNL     1       9.529  -3.049  24.335  0.00  0.00    -0.351 N 
ATOM     11  H   UNL     1      10.479  -2.760  24.526  0.00  0.00    +0.166 HD
ATOM     12  C   UNL     1       8.786  -3.913  25.101  0.00  0.00    +0.047 A 
ATOM     13  C   UNL     1       9.104  -4.578  26.289  0.00  0.00    +0.028 A 
ATOM     14  C   UNL     1       8.098  -5.354  26.876  0.00  0.00    +0.026 A 
ATOM     15  C   UNL     1       6.850  -5.485  26.269  0.00  0.00    +0.048 A 
ATOM     16  C   UNL     1       6.576  -4.871  25.045  0.00  0.00    +0.034 A 
ATOM     17  C   UNL     1       7.558  -4.049  24.465  0.00  0.00    +0.002 A 
ATOM     18  C   UNL     1       7.603  -3.246  23.290  0.00  0.00    +0.041 A 
BRANCH  15  19
ATOM     19  N   UNL     1       5.837  -6.262  26.892  0.00  0.00    -0.221 N 
ATOM     20  H   UNL     1       5.561  -7.132  26.441  0.00  0.00    +0.173 HD
BRANCH  19  21
ATOM     21  S   UNL     1       4.586  -5.477  27.698  0.00  0.00    +0.040 S 
ATOM     22  C   UNL     1       4.071  -6.705  28.877  0.00  0.00    +0.218 C 
ATOM     23  O   UNL     1       3.499  -5.219  26.783  0.00  0.00    -0.155 OA
ATOM     24  O   UNL     1       5.212  -4.406  28.443  0.00  0.00    -0.155 OA
ENDBRANCH  19  21
ENDBRANCH  15  19
ENDBRANCH   5   9
BRANCH   1  30
ATOM     25  C   UNL     1       7.365   4.624  23.474  0.00  0.00    +0.068 A 
ATOM     26  C   UNL     1       7.325   6.017  23.649  0.00  0.00    +0.028 A 
ATOM     27  C   UNL     1       8.411   6.700  24.181  0.00  0.00    +0.022 A 
ATOM     28  C   UNL     1       9.528   5.968  24.515  0.00  0.00    +0.113 A 
ATOM     29  N   UNL     1       9.641   4.642  24.306  0.00  0.00    -0.238 NA
ATOM     30  C   UNL     1       8.600   3.969  23.749  0.00  0.00    +0.142 A 
BRANCH  25  31
ATOM     31  N   UNL     1       6.251   3.931  22.944  0.00  0.00    -0.339 N 
ATOM     32  H   UNL     1       6.163   4.210  21.968  0.00  0.00    +0.146 HD
BRANCH  31  34
ATOM     33  C   UNL     1       3.925   4.500  22.585  0.00  0.00    +0.027 C 
ATOM     34  C   UNL     1       4.945   3.998  23.612  0.00  0.00    +0.064 C 
ATOM     35  C   UNL     1       4.499   2.631  24.134  0.00  0.00    +0.027 C 
ENDBRANCH  31  34
ENDBRANCH  25  31
ENDBRANCH   1  30
TORSDOF 6
ENDMDL
