MODEL 1
REMARK VINA RESULT:      -6.2      0.000      0.000
REMARK  Name = 
REMARK  4 active torsions:
REMARK  status: ('A' for Active; 'I' for Inactive)
REMARK    1  A    between atoms: C3*_2  and  O3*_17
REMARK    2  A    between atoms: C4*_3  and  C5*_15
REMARK    3  A    between atoms: C1*_5  and  N_6
REMARK    4  A    between atoms: C5*_15  and  O5*_16
REMARK                            x       y       z     vdW  Elec       q    Type
REMARK                         _______ _______ _______ _____ _____    ______ ____
ROOT
ATOM      1  C2* UNL     1       9.581  -2.412  24.003  0.00  0.00    +0.088 C 
ATOM      2  C1* UNL     1       8.624  -3.534  23.604  0.00  0.00    +0.226 C 
ATOM      3  O4* UNL     1       7.604  -2.954  22.769  0.00  0.00    -0.348 OA
ATOM      4  C4* UNL     1       7.890  -1.550  22.576  0.00  0.00    +0.175 C 
ATOM      5  C3* UNL     1       9.365  -1.381  22.921  0.00  0.00    +0.150 C 
ENDROOT
BRANCH   2   6
ATOM      6  N   UNL     1       8.044  -4.213  24.760  0.00  0.00    -0.273 N 
ATOM      7  C   UNL     1       8.824  -5.178  25.382  0.00  0.00    +0.331 A 
ATOM      8  O   UNL     1       9.937  -5.518  24.984  0.00  0.00    -0.246 OA
ATOM      9  N   UNL     1       8.298  -5.723  26.520  0.00  0.00    -0.274 N 
ATOM     10  H   UNL     1       8.884  -6.378  27.012  0.00  0.00    +0.173 HD
ATOM     11  C   UNL     1       7.204  -5.258  27.198  0.00  0.00    +0.267 A 
ATOM     12  O   UNL     1       6.965  -5.635  28.340  0.00  0.00    -0.267 OA
ATOM     13  C   UNL     1       6.372  -4.262  26.473  0.00  0.00    +0.094 A 
ATOM     14  I   UNL     1       4.634  -3.577  27.298  0.00  0.00    -0.037 I 
ATOM     15  C   UNL     1       6.833  -3.808  25.301  0.00  0.00    +0.113 A 
ENDBRANCH   2   6
BRANCH   5  16
ATOM     16  O3* UNL     1      10.191  -1.684  21.798  0.00  0.00    -0.389 OA
ATOM     17  H3* UNL     1      10.293  -0.884  21.251  0.00  0.00    +0.210 HD
ENDBRANCH   5  16
BRANCH   4  18
ATOM     18  C5* UNL     1       6.983  -0.702  23.482  0.00  0.00    +0.190 C 
BRANCH  18  19
ATOM     19  O5* UNL     1       6.433   0.409  22.777  0.00  0.00    -0.392 OA
ATOM     20  H5* UNL     1       7.157   1.025  22.569  0.00  0.00    +0.210 HD
ENDBRANCH  18  19
ENDBRANCH   4  18
TORSDOF 4
ENDMDL
MODEL 2
REMARK VINA RESULT:      -5.9      2.618      5.220
REMARK  Name = 
REMARK  4 active torsions:
REMARK  status: ('A' for Active; 'I' for Inactive)
REMARK    1  A    between atoms: C3*_2  and  O3*_17
REMARK    2  A    between atoms: C4*_3  and  C5*_15
REMARK    3  A    between atoms: C1*_5  and  N_6
REMARK    4  A    between atoms: C5*_15  and  O5*_16
REMARK                            x       y       z     vdW  Elec       q    Type
REMARK                         _______ _______ _______ _____ _____    ______ ____
ROOT
ATOM      1  C2* UNL     1       7.212  -3.485  23.736  0.00  0.00    +0.088 C 
ATOM      2  C1* UNL     1       8.697  -3.171  23.556  0.00  0.00    +0.226 C 
ATOM      3  O4* UNL     1       9.438  -4.145  24.316  0.00  0.00    -0.348 OA
ATOM      4  C4* UNL     1       8.514  -5.080  24.918  0.00  0.00    +0.175 C 
ATOM      5  C3* UNL     1       7.218  -4.943  24.128  0.00  0.00    +0.150 C 
ENDROOT
BRANCH   2   6
ATOM      6  N   UNL     1       9.034  -1.810  23.963  0.00  0.00    -0.273 N 
ATOM      7  C   UNL     1      10.086  -1.195  23.297  0.00  0.00    +0.331 A 
ATOM      8  O   UNL     1      10.766  -1.748  22.434  0.00  0.00    -0.246 OA
ATOM      9  N   UNL     1      10.314   0.112  23.626  0.00  0.00    -0.274 N 
ATOM     10  H   UNL     1      11.034   0.584  23.103  0.00  0.00    +0.173 HD
ATOM     11  C   UNL     1       9.483   0.906  24.370  0.00  0.00    +0.267 A 
ATOM     12  O   UNL     1       9.629   2.123  24.390  0.00  0.00    -0.267 OA
ATOM     13  C   UNL     1       8.402   0.198  25.104  0.00  0.00    +0.094 A 
ATOM     14  I   UNL     1       7.167   1.228  26.362  0.00  0.00    -0.037 I 
ATOM     15  C   UNL     1       8.248  -1.111  24.865  0.00  0.00    +0.113 A 
ENDBRANCH   2   6
BRANCH   5  16
ATOM     16  O3* UNL     1       7.245  -5.755  22.954  0.00  0.00    -0.389 OA
ATOM     17  H3* UNL     1       7.463  -5.198  22.185  0.00  0.00    +0.210 HD
ENDBRANCH   5  16
BRANCH   4  18
ATOM     18  C5* UNL     1       8.324  -4.744  26.405  0.00  0.00    +0.190 C 
BRANCH  18  19
ATOM     19  O5* UNL     1       8.028  -5.910  27.170  0.00  0.00    -0.392 OA
ATOM     20  H5* UNL     1       8.851  -6.217  27.587  0.00  0.00    +0.210 HD
ENDBRANCH  18  19
ENDBRANCH   4  18
TORSDOF 4
ENDMDL
MODEL 3
REMARK VINA RESULT:      -5.9      2.537      2.894
REMARK  Name = 
REMARK  4 active torsions:
REMARK  status: ('A' for Active; 'I' for Inactive)
REMARK    1  A    between atoms: C3*_2  and  O3*_17
REMARK    2  A    between atoms: C4*_3  and  C5*_15
REMARK    3  A    between atoms: C1*_5  and  N_6
REMARK    4  A    between atoms: C5*_15  and  O5*_16
REMARK                            x       y       z     vdW  Elec       q    Type
REMARK                         _______ _______ _______ _____ _____    ______ ____
ROOT
ATOM      1  C2* UNL     1       8.676  -3.781  24.221  0.00  0.00    +0.088 C 
ATOM      2  C1* UNL     1       7.824  -4.234  23.037  0.00  0.00    +0.226 C 
ATOM      3  O4* UNL     1       7.442  -3.055  22.304  0.00  0.00    -0.348 OA
ATOM      4  C4* UNL     1       8.044  -1.895  22.923  0.00  0.00    +0.175 C 
ATOM      5  C3* UNL     1       9.189  -2.433  23.774  0.00  0.00    +0.150 C 
ENDROOT
BRANCH   2   6
ATOM      6  N   UNL     1       6.655  -5.005  23.452  0.00  0.00    -0.273 N 
ATOM      7  C   UNL     1       6.009  -5.749  22.473  0.00  0.00    +0.331 A 
ATOM      8  O   UNL     1       6.338  -5.750  21.288  0.00  0.00    -0.246 OA
ATOM      9  N   UNL     1       4.982  -6.539  22.909  0.00  0.00    -0.274 N 
ATOM     10  H   UNL     1       4.550  -7.129  22.216  0.00  0.00    +0.173 HD
ATOM     11  C   UNL     1       4.687  -6.818  24.215  0.00  0.00    +0.267 A 
ATOM     12  O   UNL     1       3.929  -7.738  24.506  0.00  0.00    -0.267 OA
ATOM     13  C   UNL     1       5.364  -5.964  25.226  0.00  0.00    +0.094 A 
ATOM     14  I   UNL     1       4.923  -6.169  27.209  0.00  0.00    -0.037 I 
ATOM     15  C   UNL     1       6.295  -5.108  24.787  0.00  0.00    +0.113 A 
ENDBRANCH   2   6
BRANCH   5  16
ATOM     16  O3* UNL     1      10.371  -2.605  22.992  0.00  0.00    -0.389 OA
ATOM     17  H3* UNL     1      10.840  -1.754  22.930  0.00  0.00    +0.210 HD
ENDBRANCH   5  16
BRANCH   4  18
ATOM     18  C5* UNL     1       6.998  -1.150  23.766  0.00  0.00    +0.190 C 
BRANCH  18  19
ATOM     19  O5* UNL     1       6.370  -0.111  23.019  0.00  0.00    -0.392 OA
ATOM     20  H5* UNL     1       5.536   0.121  23.463  0.00  0.00    +0.210 HD
ENDBRANCH  18  19
ENDBRANCH   4  18
TORSDOF 4
ENDMDL
MODEL 4
REMARK VINA RESULT:      -5.8      1.888      2.163
REMARK  Name = 
REMARK  4 active torsions:
REMARK  status: ('A' for Active; 'I' for Inactive)
REMARK    1  A    between atoms: C3*_2  and  O3*_17
REMARK    2  A    between atoms: C4*_3  and  C5*_15
REMARK    3  A    between atoms: C1*_5  and  N_6
REMARK    4  A    between atoms: C5*_15  and  O5*_16
REMARK                            x       y       z     vdW  Elec       q    Type
REMARK                         _______ _______ _______ _____ _____    ______ ____
ROOT
ATOM      1  C2* UNL     1       8.755  -1.264  25.053  0.00  0.00    +0.088 C 
ATOM      2  C1* UNL     1       9.419  -2.639  25.098  0.00  0.00    +0.226 C 
ATOM      3  O4* UNL     1      10.186  -2.787  23.887  0.00  0.00    -0.348 OA
ATOM      4  C4* UNL     1      10.086  -1.572  23.111  0.00  0.00    +0.175 C 
ATOM      5  C3* UNL     1       9.628  -0.497  24.089  0.00  0.00    +0.150 C 
ENDROOT
BRANCH   2   6
ATOM      6  N   UNL     1       8.452  -3.723  25.252  0.00  0.00    -0.273 N 
ATOM      7  C   UNL     1       8.843  -4.812  26.020  0.00  0.00    +0.331 A 
ATOM      8  O   UNL     1       9.958  -4.929  26.524  0.00  0.00    -0.246 OA
ATOM      9  N   UNL     1       7.884  -5.763  26.231  0.00  0.00    -0.274 N 
ATOM     10  H   UNL     1       8.139  -6.526  26.839  0.00  0.00    +0.173 HD
ATOM     11  C   UNL     1       6.552  -5.633  25.946  0.00  0.00    +0.267 A 
ATOM     12  O   UNL     1       5.730  -6.417  26.409  0.00  0.00    -0.267 OA
ATOM     13  C   UNL     1       6.188  -4.480  25.080  0.00  0.00    +0.094 A 
ATOM     14  I   UNL     1       4.260  -4.231  24.455  0.00  0.00    -0.037 I 
ATOM     15  C   UNL     1       7.154  -3.605  24.780  0.00  0.00    +0.113 A 
ENDBRANCH   2   6
BRANCH   5  16
ATOM     16  O3* UNL     1      10.737   0.065  24.790  0.00  0.00    -0.389 OA
ATOM     17  H3* UNL     1      10.593   1.022  24.902  0.00  0.00    +0.210 HD
ENDBRANCH   5  16
BRANCH   4  18
ATOM     18  C5* UNL     1       9.090  -1.768  21.958  0.00  0.00    +0.190 C 
BRANCH  18  19
ATOM     19  O5* UNL     1       9.380  -0.901  20.864  0.00  0.00    -0.392 OA
ATOM     20  H5* UNL     1      10.245  -1.153  20.497  0.00  0.00    +0.210 HD
ENDBRANCH  18  19
ENDBRANCH   4  18
TORSDOF 4
ENDMDL
MODEL 5
REMARK VINA RESULT:      -5.6      1.872      1.987
REMARK  Name = 
REMARK  4 active torsions:
REMARK  status: ('A' for Active; 'I' for Inactive)
REMARK    1  A    between atoms: C3*_2  and  O3*_17
REMARK    2  A    between atoms: C4*_3  and  C5*_15
REMARK    3  A    between atoms: C1*_5  and  N_6
REMARK    4  A    between atoms: C5*_15  and  O5*_16
REMARK                            x       y       z     vdW  Elec       q    Type
REMARK                         _______ _______ _______ _____ _____    ______ ____
ROOT
ATOM      1  C2* UNL     1       8.553  -1.096  26.680  0.00  0.00    +0.088 C 
ATOM      2  C1* UNL     1       8.833  -2.371  25.886  0.00  0.00    +0.226 C 
ATOM      3  O4* UNL     1       8.562  -2.084  24.500  0.00  0.00    -0.348 OA
ATOM      4  C4* UNL     1       8.179  -0.696  24.369  0.00  0.00    +0.175 C 
ATOM      5  C3* UNL     1       8.678  -0.012  25.636  0.00  0.00    +0.150 C 
ENDROOT
BRANCH   2   6
ATOM      6  N   UNL     1       8.048  -3.509  26.358  0.00  0.00    -0.273 N 
ATOM      7  C   UNL     1       8.691  -4.738  26.416  0.00  0.00    +0.331 A 
ATOM      8  O   UNL     1       9.850  -4.922  26.049  0.00  0.00    -0.246 OA
ATOM      9  N   UNL     1       7.965  -5.762  26.956  0.00  0.00    -0.274 N 
ATOM     10  H   UNL     1       8.445  -6.642  27.060  0.00  0.00    +0.173 HD
ATOM     11  C   UNL     1       6.777  -5.635  27.625  0.00  0.00    +0.267 A 
ATOM     12  O   UNL     1       6.335  -6.557  28.303  0.00  0.00    -0.267 OA
ATOM     13  C   UNL     1       6.102  -4.317  27.493  0.00  0.00    +0.094 A 
ATOM     14  I   UNL     1       4.258  -4.018  28.319  0.00  0.00    -0.037 I 
ATOM     15  C   UNL     1       6.769  -3.342  26.864  0.00  0.00    +0.113 A 
ENDBRANCH   2   6
BRANCH   5  16
ATOM     16  O3* UNL     1      10.046   0.373  25.507  0.00  0.00    -0.389 OA
ATOM     17  H3* UNL     1      10.460   0.382  26.388  0.00  0.00    +0.210 HD
ENDBRANCH   5  16
BRANCH   4  18
ATOM     18  C5* UNL     1       6.655  -0.586  24.213  0.00  0.00    +0.190 C 
BRANCH  18  19
ATOM     19  O5* UNL     1       6.290  -0.222  22.884  0.00  0.00    -0.392 OA
ATOM     20  H5* UNL     1       6.109   0.733  22.869  0.00  0.00    +0.210 HD
ENDBRANCH  18  19
ENDBRANCH   4  18
TORSDOF 4
ENDMDL
MODEL 6
REMARK VINA RESULT:      -5.6      5.749      7.942
REMARK  Name = 
REMARK  4 active torsions:
REMARK  status: ('A' for Active; 'I' for Inactive)
REMARK    1  A    between atoms: C3*_2  and  O3*_17
REMARK    2  A    between atoms: C4*_3  and  C5*_15
REMARK    3  A    between atoms: C1*_5  and  N_6
REMARK    4  A    between atoms: C5*_15  and  O5*_16
REMARK                            x       y       z     vdW  Elec       q    Type
REMARK                         _______ _______ _______ _____ _____    ______ ____
ROOT
ATOM      1  C2* UNL     1      10.474   0.608  24.489  0.00  0.00    +0.088 C 
ATOM      2  C1* UNL     1       9.181   1.422  24.509  0.00  0.00    +0.226 C 
ATOM      3  O4* UNL     1       8.319   0.886  23.486  0.00  0.00    -0.348 OA
ATOM      4  C4* UNL     1       8.969  -0.245  22.863  0.00  0.00    +0.175 C 
ATOM      5  C3* UNL     1      10.050  -0.688  23.842  0.00  0.00    +0.150 C 
ENDROOT
BRANCH   2   6
ATOM      6  N   UNL     1       9.415   2.850  24.313  0.00  0.00    -0.273 N 
ATOM      7  C   UNL     1       8.492   3.723  24.874  0.00  0.00    +0.331 A 
ATOM      8  O   UNL     1       7.482   3.359  25.472  0.00  0.00    -0.246 OA
ATOM      9  N   UNL     1       8.790   5.053  24.762  0.00  0.00    -0.274 N 
ATOM     10  H   UNL     1       8.159   5.691  25.221  0.00  0.00    +0.173 HD
ATOM     11  C   UNL     1       9.989   5.572  24.353  0.00  0.00    +0.267 A 
ATOM     12  O   UNL     1      10.257   6.755  24.538  0.00  0.00    -0.267 OA
ATOM     13  C   UNL     1      10.924   4.609  23.714  0.00  0.00    +0.094 A 
ATOM     14  I   UNL     1      12.694   5.260  22.929  0.00  0.00    -0.037 I 
ATOM     15  C   UNL     1      10.580   3.316  23.724  0.00  0.00    +0.113 A 
ENDBRANCH   2   6
BRANCH   5  16
ATOM     16  O3* UNL     1       9.515  -1.566  24.832  0.00  0.00    -0.389 OA
ATOM     17  H3* UNL     1      10.093  -2.346  24.912  0.00  0.00    +0.210 HD
ENDBRANCH   5  16
BRANCH   4  18
ATOM     18  C5* UNL     1       9.555   0.172  21.505  0.00  0.00    +0.190 C 
BRANCH  18  19
ATOM     19  O5* UNL     1       8.989   1.398  21.046  0.00  0.00    -0.392 OA
ATOM     20  H5* UNL     1       8.811   1.959  21.821  0.00  0.00    +0.210 HD
ENDBRANCH  18  19
ENDBRANCH   4  18
TORSDOF 4
ENDMDL
MODEL 7
REMARK VINA RESULT:      -5.6      2.476      3.276
REMARK  Name = 
REMARK  4 active torsions:
REMARK  status: ('A' for Active; 'I' for Inactive)
REMARK    1  A    between atoms: C3*_2  and  O3*_17
REMARK    2  A    between atoms: C4*_3  and  C5*_15
REMARK    3  A    between atoms: C1*_5  and  N_6
REMARK    4  A    between atoms: C5*_15  and  O5*_16
REMARK                            x       y       z     vdW  Elec       q    Type
REMARK                         _______ _______ _______ _____ _____    ______ ____
ROOT
ATOM      1  C2* UNL     1       6.679  -3.345  23.999  0.00  0.00    +0.088 C 
ATOM      2  C1* UNL     1       7.503  -4.534  24.493  0.00  0.00    +0.226 C 
ATOM      3  O4* UNL     1       7.848  -5.327  23.342  0.00  0.00    -0.348 OA
ATOM      4  C4* UNL     1       7.338  -4.684  22.152  0.00  0.00    +0.175 C 
ATOM      5  C3* UNL     1       7.080  -3.235  22.548  0.00  0.00    +0.150 C 
ENDROOT
BRANCH   2   6
ATOM      6  N   UNL     1       6.795  -5.328  25.494  0.00  0.00    -0.273 N 
ATOM      7  C   UNL     1       7.360  -5.395  26.761  0.00  0.00    +0.331 A 
ATOM      8  O   UNL     1       8.431  -4.871  27.061  0.00  0.00    -0.246 OA
ATOM      9  N   UNL     1       6.626  -6.060  27.703  0.00  0.00    -0.274 N 
ATOM     10  H   UNL     1       6.998  -6.059  28.640  0.00  0.00    +0.173 HD
ATOM     11  C   UNL     1       5.325  -6.461  27.567  0.00  0.00    +0.267 A 
ATOM     12  O   UNL     1       4.666  -6.803  28.543  0.00  0.00    -0.267 OA
ATOM     13  C   UNL     1       4.779  -6.418  26.184  0.00  0.00    +0.094 A 
ATOM     14  I   UNL     1       2.898  -7.113  25.799  0.00  0.00    -0.037 I 
ATOM     15  C   UNL     1       5.544  -5.866  25.235  0.00  0.00    +0.113 A 
ENDBRANCH   2   6
BRANCH   5  16
ATOM     16  O3* UNL     1       8.269  -2.454  22.437  0.00  0.00    -0.389 OA
ATOM     17  H3* UNL     1       8.404  -1.958  23.265  0.00  0.00    +0.210 HD
ENDBRANCH   5  16
BRANCH   4  18
ATOM     18  C5* UNL     1       6.058  -5.392  21.682  0.00  0.00    +0.190 C 
BRANCH  18  19
ATOM     19  O5* UNL     1       6.112  -6.793  21.941  0.00  0.00    -0.392 OA
ATOM     20  H5* UNL     1       6.743  -6.944  22.666  0.00  0.00    +0.210 HD
ENDBRANCH  18  19
ENDBRANCH   4  18
TORSDOF 4
ENDMDL
MODEL 8
REMARK VINA RESULT:      -5.6      2.937      3.947
REMARK  Name = 
REMARK  4 active torsions:
REMARK  status: ('A' for Active; 'I' for Inactive)
REMARK    1  A    between atoms: C3*_2  and  O3*_17
REMARK    2  A    between atoms: C4*_3  and  C5*_15
REMARK    3  A    between atoms: C1*_5  and  N_6
REMARK    4  A    between atoms: C5*_15  and  O5*_16
REMARK                            x       y       z     vdW  Elec       q    Type
REMARK                         _______ _______ _______ _____ _____    ______ ____
ROOT
ATOM      1  C2* UNL     1       8.159  -5.276  25.423  0.00  0.00    +0.088 C 
ATOM      2  C1* UNL     1       7.868  -5.208  23.925  0.00  0.00    +0.226 C 
ATOM      3  O4* UNL     1       8.542  -4.044  23.407  0.00  0.00    -0.348 OA
ATOM      4  C4* UNL     1       9.279  -3.408  24.476  0.00  0.00    +0.175 C 
ATOM      5  C3* UNL     1       9.429  -4.470  25.559  0.00  0.00    +0.150 C 
ENDROOT
BRANCH   2   6
ATOM      6  N   UNL     1       6.437  -5.168  23.634  0.00  0.00    -0.273 N 
ATOM      7  C   UNL     1       5.984  -5.963  22.590  0.00  0.00    +0.331 A 
ATOM      8  O   UNL     1       6.720  -6.646  21.880  0.00  0.00    -0.246 OA
ATOM      9  N   UNL     1       4.629  -5.984  22.406  0.00  0.00    -0.274 N 
ATOM     10  H   UNL     1       4.287  -6.607  21.691  0.00  0.00    +0.173 HD
ATOM     11  C   UNL     1       3.697  -5.480  23.271  0.00  0.00    +0.267 A 
ATOM     12  O   UNL     1       2.512  -5.778  23.162  0.00  0.00    -0.267 OA
ATOM     13  C   UNL     1       4.224  -4.595  24.343  0.00  0.00    +0.094 A 
ATOM     14  I   UNL     1       2.942  -3.659  25.628  0.00  0.00    -0.037 I 
ATOM     15  C   UNL     1       5.553  -4.485  24.455  0.00  0.00    +0.113 A 
ENDBRANCH   2   6
BRANCH   5  16
ATOM     16  O3* UNL     1      10.557  -5.306  25.304  0.00  0.00    -0.389 OA
ATOM     17  H3* UNL     1      11.198  -4.820  24.755  0.00  0.00    +0.210 HD
ENDBRANCH   5  16
BRANCH   4  18
ATOM     18  C5* UNL     1       8.514  -2.174  24.977  0.00  0.00    +0.190 C 
BRANCH  18  19
ATOM     19  O5* UNL     1       8.738  -1.949  26.367  0.00  0.00    -0.392 OA
ATOM     20  H5* UNL     1       8.139  -1.241  26.661  0.00  0.00    +0.210 HD
ENDBRANCH  18  19
ENDBRANCH   4  18
TORSDOF 4
ENDMDL
MODEL 9
REMARK VINA RESULT:      -5.5      2.796      3.795
REMARK  Name = 
REMARK  4 active torsions:
REMARK  status: ('A' for Active; 'I' for Inactive)
REMARK    1  A    between atoms: C3*_2  and  O3*_17
REMARK    2  A    between atoms: C4*_3  and  C5*_15
REMARK    3  A    between atoms: C1*_5  and  N_6
REMARK    4  A    between atoms: C5*_15  and  O5*_16
REMARK                            x       y       z     vdW  Elec       q    Type
REMARK                         _______ _______ _______ _____ _____    ______ ____
ROOT
ATOM      1  C2* UNL     1       9.852   1.622  24.106  0.00  0.00    +0.088 C 
ATOM      2  C1* UNL     1       9.723   0.532  23.042  0.00  0.00    +0.226 C 
ATOM      3  O4* UNL     1       8.902   1.060  21.983  0.00  0.00    -0.348 OA
ATOM      4  C4* UNL     1       8.550   2.428  22.291  0.00  0.00    +0.175 C 
ATOM      5  C3* UNL     1       9.563   2.886  23.334  0.00  0.00    +0.150 C 
ENDROOT
BRANCH   2   6
ATOM      6  N   UNL     1       9.171  -0.710  23.577  0.00  0.00    -0.273 N 
ATOM      7  C   UNL     1       9.827  -1.887  23.241  0.00  0.00    +0.331 A 
ATOM      8  O   UNL     1      10.800  -1.938  22.491  0.00  0.00    -0.246 OA
ATOM      9  N   UNL     1       9.350  -3.021  23.837  0.00  0.00    -0.274 N 
ATOM     10  H   UNL     1       9.859  -3.870  23.648  0.00  0.00    +0.173 HD
ATOM     11  C   UNL     1       8.453  -3.066  24.870  0.00  0.00    +0.267 A 
ATOM     12  O   UNL     1       8.288  -4.096  25.514  0.00  0.00    -0.267 OA
ATOM     13  C   UNL     1       7.740  -1.794  25.160  0.00  0.00    +0.094 A 
ATOM     14  I   UNL     1       6.275  -1.737  26.581  0.00  0.00    -0.037 I 
ATOM     15  C   UNL     1       8.132  -0.701  24.494  0.00  0.00    +0.113 A 
ENDBRANCH   2   6
BRANCH   5  16
ATOM     16  O3* UNL     1      10.760   3.354  22.714  0.00  0.00    -0.389 OA
ATOM     17  H3* UNL     1      11.454   2.677  22.808  0.00  0.00    +0.210 HD
ENDBRANCH   5  16
BRANCH   4  18
ATOM     18  C5* UNL     1       7.108   2.492  22.818  0.00  0.00    +0.190 C 
BRANCH  18  19
ATOM     19  O5* UNL     1       6.329   1.398  22.339  0.00  0.00    -0.392 OA
ATOM     20  H5* UNL     1       5.746   1.727  21.633  0.00  0.00    +0.210 HD
ENDBRANCH  18  19
ENDBRANCH   4  18
TORSDOF 4
ENDMDL
