MODEL 1
REMARK VINA RESULT:      -6.5      0.000      0.000
REMARK  Name = 
REMARK  13 active torsions:
REMARK  status: ('A' for Active; 'I' for Inactive)
REMARK    1  A    between atoms: C_1  and  C_2
REMARK    2  A    between atoms: C_2  and  C_3
REMARK    3  A    between atoms: C_2  and  C_4
REMARK    4  A    between atoms: C_4  and  C_5
REMARK    5  A    between atoms: C_4  and  N_26
REMARK    6  A    between atoms: C_5  and  O_7
REMARK    7  A    between atoms: O_7  and  C_8
REMARK    8  A    between atoms: C_8  and  C_9
REMARK    9  A    between atoms: C_9  and  C_11
REMARK   10  A    between atoms: C_9  and  O_13
REMARK   11  A    between atoms: C_11  and  O_12
REMARK   12  A    between atoms: O_13  and  C_14
REMARK   13  A    between atoms: C_14  and  N_15
REMARK                            x       y       z     vdW  Elec       q    Type
REMARK                         _______ _______ _______ _____ _____    ______ ____
ROOT
ATOM      1  O   UNL     1       8.118  -4.910  27.264  0.00  0.00    -0.350 OA
ENDROOT
BRANCH   1   2
ATOM      2  C   UNL     1       9.099  -4.455  26.317  0.00  0.00    +0.183 C 
BRANCH   2   3
ATOM      3  C   UNL     1       8.525  -3.217  25.607  0.00  0.00    +0.266 C 
BRANCH   3   4
ATOM      4  O   UNL     1       9.519  -2.564  24.794  0.00  0.00    -0.461 OA
BRANCH   4   5
ATOM      5  C   UNL     1       9.076  -2.106  23.588  0.00  0.00    +0.324 C 
ATOM      6  O   UNL     1       8.000  -2.396  23.085  0.00  0.00    -0.249 OA
BRANCH   5   7
ATOM      7  C   UNL     1      10.122  -1.190  22.933  0.00  0.00    +0.163 C 
BRANCH   7   9
ATOM      8  C   UNL     1      10.784   0.950  24.159  0.00  0.00    +0.009 C 
ATOM      9  C   UNL     1       9.784   0.299  23.195  0.00  0.00    +0.010 C 
ATOM     10  C   UNL     1       9.751   1.110  21.893  0.00  0.00    +0.009 C 
ENDBRANCH   7   9
BRANCH   7  11
ATOM     11  N   UNL     1      10.145  -1.474  21.481  0.00  0.00    -0.318 NA
ATOM     12  H   UNL     1      11.040  -1.897  21.234  0.00  0.00    +0.119 HD
ATOM     13  H   UNL     1       9.441  -2.191  21.283  0.00  0.00    +0.119 HD
ENDBRANCH   7  11
ENDBRANCH   5   7
ENDBRANCH   4   5
ENDBRANCH   3   4
ENDBRANCH   2   3
BRANCH   2  14
ATOM     14  C   UNL     1       9.432  -5.537  25.273  0.00  0.00    +0.190 C 
BRANCH  14  15
ATOM     15  O   UNL     1       8.741  -5.308  24.045  0.00  0.00    -0.392 OA
ATOM     16  H   UNL     1       8.488  -4.370  24.014  0.00  0.00    +0.210 HD
ENDBRANCH  14  15
ENDBRANCH   2  14
ENDBRANCH   1   2
BRANCH   1  17
ATOM     17  C   UNL     1       6.817  -4.364  27.031  0.00  0.00    +0.288 C 
BRANCH  17  18
ATOM     18  N   UNL     1       5.889  -5.439  26.738  0.00  0.00    -0.291 N 
ATOM     19  C   UNL     1       5.457  -5.820  25.500  0.00  0.00    +0.171 A 
ATOM     20  N   UNL     1       5.878  -5.337  24.303  0.00  0.00    -0.196 NA
ATOM     21  C   UNL     1       5.295  -5.908  23.282  0.00  0.00    +0.195 A 
ATOM     22  N   UNL     1       5.627  -5.550  22.016  0.00  0.00    -0.329 N 
ATOM     23  H   UNL     1       4.925  -5.642  21.295  0.00  0.00    +0.145 HD
ATOM     24  H   UNL     1       6.151  -4.683  21.969  0.00  0.00    +0.145 HD
ATOM     25  N   UNL     1       4.326  -6.885  23.399  0.00  0.00    -0.293 N 
ATOM     26  H   UNL     1       3.931  -7.310  22.578  0.00  0.00    +0.172 HD
ATOM     27  C   UNL     1       3.861  -7.397  24.601  0.00  0.00    +0.280 A 
ATOM     28  O   UNL     1       2.999  -8.270  24.642  0.00  0.00    -0.265 OA
ATOM     29  C   UNL     1       4.510  -6.789  25.742  0.00  0.00    +0.172 A 
ATOM     30  N   UNL     1       4.341  -7.010  27.084  0.00  0.00    -0.229 NA
ATOM     31  C   UNL     1       5.187  -6.177  27.658  0.00  0.00    +0.203 A 
ENDBRANCH  17  18
ENDBRANCH   1  17
TORSDOF 11
ENDMDL
MODEL 2
REMARK VINA RESULT:      -6.4      2.718      4.403
REMARK  Name = 
REMARK  13 active torsions:
REMARK  status: ('A' for Active; 'I' for Inactive)
REMARK    1  A    between atoms: C_1  and  C_2
REMARK    2  A    between atoms: C_2  and  C_3
REMARK    3  A    between atoms: C_2  and  C_4
REMARK    4  A    between atoms: C_4  and  C_5
REMARK    5  A    between atoms: C_4  and  N_26
REMARK    6  A    between atoms: C_5  and  O_7
REMARK    7  A    between atoms: O_7  and  C_8
REMARK    8  A    between atoms: C_8  and  C_9
REMARK    9  A    between atoms: C_9  and  C_11
REMARK   10  A    between atoms: C_9  and  O_13
REMARK   11  A    between atoms: C_11  and  O_12
REMARK   12  A    between atoms: O_13  and  C_14
REMARK   13  A    between atoms: C_14  and  N_15
REMARK                            x       y       z     vdW  Elec       q    Type
REMARK                         _______ _______ _______ _____ _____    ______ ____
ROOT
ATOM      1  O   UNL     1       7.152  -1.776  22.429  0.00  0.00    -0.350 OA
ENDROOT
BRANCH   1   2
ATOM      2  C   UNL     1       8.310  -1.295  23.134  0.00  0.00    +0.183 C 
BRANCH   2   3
ATOM      3  C   UNL     1       8.076   0.188  23.464  0.00  0.00    +0.266 C 
BRANCH   3   4
ATOM      4  O   UNL     1       7.487   0.892  22.353  0.00  0.00    -0.461 OA
BRANCH   4   5
ATOM      5  C   UNL     1       7.816   2.212  22.257  0.00  0.00    +0.324 C 
ATOM      6  O   UNL     1       7.095   3.077  21.782  0.00  0.00    -0.249 OA
BRANCH   5   7
ATOM      7  C   UNL     1       9.227   2.465  22.811  0.00  0.00    +0.163 C 
BRANCH   7   9
ATOM      8  C   UNL     1       8.644   3.866  24.864  0.00  0.00    +0.009 C 
ATOM      9  C   UNL     1       9.308   3.859  23.481  0.00  0.00    +0.010 C 
ATOM     10  C   UNL     1      10.760   4.334  23.627  0.00  0.00    +0.009 C 
ENDBRANCH   7   9
BRANCH   7  11
ATOM     11  N   UNL     1      10.190   2.365  21.692  0.00  0.00    -0.318 NA
ATOM     12  H   UNL     1      10.680   1.472  21.748  0.00  0.00    +0.119 HD
ATOM     13  H   UNL     1       9.662   2.332  20.815  0.00  0.00    +0.119 HD
ENDBRANCH   7  11
ENDBRANCH   5   7
ENDBRANCH   4   5
ENDBRANCH   3   4
ENDBRANCH   2   3
BRANCH   2  14
ATOM     14  C   UNL     1       9.592  -1.440  22.294  0.00  0.00    +0.190 C 
BRANCH  14  15
ATOM     15  O   UNL     1       9.519  -0.668  21.095  0.00  0.00    -0.392 OA
ATOM     16  H   UNL     1      10.269  -0.921  20.529  0.00  0.00    +0.210 HD
ENDBRANCH  14  15
ENDBRANCH   2  14
ENDBRANCH   1   2
BRANCH   1  17
ATOM     17  C   UNL     1       7.129  -3.200  22.294  0.00  0.00    +0.288 C 
BRANCH  17  18
ATOM     18  N   UNL     1       6.621  -3.791  23.517  0.00  0.00    -0.291 N 
ATOM     19  C   UNL     1       7.350  -4.469  24.452  0.00  0.00    +0.171 A 
ATOM     20  N   UNL     1       8.697  -4.641  24.470  0.00  0.00    -0.196 NA
ATOM     21  C   UNL     1       9.115  -5.323  25.504  0.00  0.00    +0.195 A 
ATOM     22  N   UNL     1      10.441  -5.558  25.677  0.00  0.00    -0.329 N 
ATOM     23  H   UNL     1      10.715  -6.395  26.173  0.00  0.00    +0.145 HD
ATOM     24  H   UNL     1      10.992  -5.376  24.845  0.00  0.00    +0.145 HD
ATOM     25  N   UNL     1       8.279  -5.845  26.470  0.00  0.00    -0.293 N 
ATOM     26  H   UNL     1       8.658  -6.337  27.259  0.00  0.00    +0.172 HD
ATOM     27  C   UNL     1       6.899  -5.701  26.482  0.00  0.00    +0.280 A 
ATOM     28  O   UNL     1       6.206  -6.184  27.372  0.00  0.00    -0.265 OA
ATOM     29  C   UNL     1       6.420  -4.932  25.355  0.00  0.00    +0.172 A 
ATOM     30  N   UNL     1       5.146  -4.568  25.002  0.00  0.00    -0.229 NA
ATOM     31  C   UNL     1       5.302  -3.881  23.887  0.00  0.00    +0.203 A 
ENDBRANCH  17  18
ENDBRANCH   1  17
TORSDOF 11
ENDMDL
MODEL 3
REMARK VINA RESULT:      -6.3      2.076      3.075
REMARK  Name = 
REMARK  13 active torsions:
REMARK  status: ('A' for Active; 'I' for Inactive)
REMARK    1  A    between atoms: C_1  and  C_2
REMARK    2  A    between atoms: C_2  and  C_3
REMARK    3  A    between atoms: C_2  and  C_4
REMARK    4  A    between atoms: C_4  and  C_5
REMARK    5  A    between atoms: C_4  and  N_26
REMARK    6  A    between atoms: C_5  and  O_7
REMARK    7  A    between atoms: O_7  and  C_8
REMARK    8  A    between atoms: C_8  and  C_9
REMARK    9  A    between atoms: C_9  and  C_11
REMARK   10  A    between atoms: C_9  and  O_13
REMARK   11  A    between atoms: C_11  and  O_12
REMARK   12  A    between atoms: O_13  and  C_14
REMARK   13  A    between atoms: C_14  and  N_15
REMARK                            x       y       z     vdW  Elec       q    Type
REMARK                         _______ _______ _______ _____ _____    ______ ____
ROOT
ATOM      1  O   UNL     1       9.129  -3.329  24.112  0.00  0.00    -0.350 OA
ENDROOT
BRANCH   1   2
ATOM      2  C   UNL     1       9.751  -2.230  23.425  0.00  0.00    +0.183 C 
BRANCH   2   3
ATOM      3  C   UNL     1       9.777  -1.030  24.386  0.00  0.00    +0.266 C 
BRANCH   3   4
ATOM      4  O   UNL     1       9.461   0.200  23.708  0.00  0.00    -0.461 OA
BRANCH   4   5
ATOM      5  C   UNL     1      10.407   1.178  23.801  0.00  0.00    +0.324 C 
ATOM      6  O   UNL     1      11.421   1.103  24.480  0.00  0.00    -0.249 OA
BRANCH   5   7
ATOM      7  C   UNL     1      10.018   2.399  22.953  0.00  0.00    +0.163 C 
BRANCH   7   9
ATOM      8  C   UNL     1       9.045   4.336  24.303  0.00  0.00    +0.009 C 
ATOM      9  C   UNL     1       8.733   3.062  23.507  0.00  0.00    +0.010 C 
ATOM     10  C   UNL     1       7.745   3.409  22.384  0.00  0.00    +0.009 C 
ENDBRANCH   7   9
BRANCH   7  11
ATOM     11  N   UNL     1       9.817   1.950  21.558  0.00  0.00    -0.318 NA
ATOM     12  H   UNL     1      10.449   2.464  20.943  0.00  0.00    +0.119 HD
ATOM     13  H   UNL     1      10.109   0.970  21.490  0.00  0.00    +0.119 HD
ENDBRANCH   7  11
ENDBRANCH   5   7
ENDBRANCH   4   5
ENDBRANCH   3   4
ENDBRANCH   2   3
BRANCH   2  14
ATOM     14  C   UNL     1       8.983  -1.848  22.146  0.00  0.00    +0.190 C 
BRANCH  14  15
ATOM     15  O   UNL     1       9.825  -1.165  21.216  0.00  0.00    -0.392 OA
ATOM     16  H   UNL     1      10.729  -1.165  21.575  0.00  0.00    +0.210 HD
ENDBRANCH  14  15
ENDBRANCH   2  14
ENDBRANCH   1   2
BRANCH   1  17
ATOM     17  C   UNL     1       7.998  -2.933  24.896  0.00  0.00    +0.288 C 
BRANCH  17  18
ATOM     18  N   UNL     1       7.132  -4.078  25.102  0.00  0.00    -0.291 N 
ATOM     19  C   UNL     1       6.553  -4.840  24.128  0.00  0.00    +0.171 A 
ATOM     20  N   UNL     1       6.747  -4.739  22.788  0.00  0.00    -0.196 NA
ATOM     21  C   UNL     1       6.068  -5.620  22.101  0.00  0.00    +0.195 A 
ATOM     22  N   UNL     1       6.175  -5.663  20.749  0.00  0.00    -0.329 N 
ATOM     23  H   UNL     1       5.383  -5.999  20.219  0.00  0.00    +0.145 HD
ATOM     24  H   UNL     1       6.610  -4.836  20.355  0.00  0.00    +0.145 HD
ATOM     25  N   UNL     1       5.214  -6.544  22.668  0.00  0.00    -0.293 N 
ATOM     26  H   UNL     1       4.738  -7.217  22.093  0.00  0.00    +0.172 HD
ATOM     27  C   UNL     1       4.980  -6.673  24.030  0.00  0.00    +0.280 A 
ATOM     28  O   UNL     1       4.211  -7.518  24.477  0.00  0.00    -0.265 OA
ATOM     29  C   UNL     1       5.739  -5.718  24.807  0.00  0.00    +0.172 A 
ATOM     30  N   UNL     1       5.793  -5.515  26.162  0.00  0.00    -0.229 NA
ATOM     31  C   UNL     1       6.641  -4.516  26.307  0.00  0.00    +0.203 A 
ENDBRANCH  17  18
ENDBRANCH   1  17
TORSDOF 11
ENDMDL
MODEL 4
REMARK VINA RESULT:      -6.2      2.187      3.711
REMARK  Name = 
REMARK  13 active torsions:
REMARK  status: ('A' for Active; 'I' for Inactive)
REMARK    1  A    between atoms: C_1  and  C_2
REMARK    2  A    between atoms: C_2  and  C_3
REMARK    3  A    between atoms: C_2  and  C_4
REMARK    4  A    between atoms: C_4  and  C_5
REMARK    5  A    between atoms: C_4  and  N_26
REMARK    6  A    between atoms: C_5  and  O_7
REMARK    7  A    between atoms: O_7  and  C_8
REMARK    8  A    between atoms: C_8  and  C_9
REMARK    9  A    between atoms: C_9  and  C_11
REMARK   10  A    between atoms: C_9  and  O_13
REMARK   11  A    between atoms: C_11  and  O_12
REMARK   12  A    between atoms: O_13  and  C_14
REMARK   13  A    between atoms: C_14  and  N_15
REMARK                            x       y       z     vdW  Elec       q    Type
REMARK                         _______ _______ _______ _____ _____    ______ ____
ROOT
ATOM      1  O   UNL     1       6.084  -3.590  23.432  0.00  0.00    -0.350 OA
ENDROOT
BRANCH   1   2
ATOM      2  C   UNL     1       6.493  -2.319  22.900  0.00  0.00    +0.183 C 
BRANCH   2   3
ATOM      3  C   UNL     1       7.954  -2.452  22.439  0.00  0.00    +0.266 C 
BRANCH   3   4
ATOM      4  O   UNL     1       8.468  -1.204  21.936  0.00  0.00    -0.461 OA
BRANCH   4   5
ATOM      5  C   UNL     1       9.790  -0.976  22.180  0.00  0.00    +0.324 C 
ATOM      6  O   UNL     1      10.649  -1.845  22.234  0.00  0.00    -0.249 OA
BRANCH   5   7
ATOM      7  C   UNL     1      10.056   0.521  22.399  0.00  0.00    +0.163 C 
BRANCH   7   9
ATOM      8  C   UNL     1      10.584   0.383  24.894  0.00  0.00    +0.009 C 
ATOM      9  C   UNL     1       9.636   0.947  23.828  0.00  0.00    +0.010 C 
ATOM     10  C   UNL     1       9.582   2.474  23.971  0.00  0.00    +0.009 C 
ENDBRANCH   7   9
BRANCH   7  11
ATOM     11  N   UNL     1       9.298   1.282  21.381  0.00  0.00    -0.318 NA
ATOM     12  H   UNL     1       8.315   1.012  21.422  0.00  0.00    +0.119 HD
ATOM     13  H   UNL     1       9.320   2.273  21.638  0.00  0.00    +0.119 HD
ENDBRANCH   7  11
ENDBRANCH   5   7
ENDBRANCH   4   5
ENDBRANCH   3   4
ENDBRANCH   2   3
BRANCH   2  14
ATOM     14  C   UNL     1       6.386  -1.198  23.951  0.00  0.00    +0.190 C 
BRANCH  14  15
ATOM     15  O   UNL     1       6.251   0.083  23.335  0.00  0.00    -0.392 OA
ATOM     16  H   UNL     1       5.618   0.603  23.860  0.00  0.00    +0.210 HD
ENDBRANCH  14  15
ENDBRANCH   2  14
ENDBRANCH   1   2
BRANCH   1  17
ATOM     17  C   UNL     1       7.174  -4.500  23.613  0.00  0.00    +0.288 C 
BRANCH  17  18
ATOM     18  N   UNL     1       7.334  -4.783  25.026  0.00  0.00    -0.291 N 
ATOM     19  C   UNL     1       6.481  -5.510  25.806  0.00  0.00    +0.171 A 
ATOM     20  N   UNL     1       5.375  -6.185  25.399  0.00  0.00    -0.196 NA
ATOM     21  C   UNL     1       4.763  -6.807  26.373  0.00  0.00    +0.195 A 
ATOM     22  N   UNL     1       3.654  -7.547  26.120  0.00  0.00    -0.329 N 
ATOM     23  H   UNL     1       2.970  -7.647  26.858  0.00  0.00    +0.145 HD
ATOM     24  H   UNL     1       3.249  -7.365  25.209  0.00  0.00    +0.145 HD
ATOM     25  N   UNL     1       5.174  -6.765  27.690  0.00  0.00    -0.293 N 
ATOM     26  H   UNL     1       4.681  -7.287  28.393  0.00  0.00    +0.172 HD
ATOM     27  C   UNL     1       6.290  -6.080  28.148  0.00  0.00    +0.280 A 
ATOM     28  O   UNL     1       6.609  -6.082  29.333  0.00  0.00    -0.265 OA
ATOM     29  C   UNL     1       6.990  -5.401  27.080  0.00  0.00    +0.172 A 
ATOM     30  N   UNL     1       8.121  -4.626  27.109  0.00  0.00    -0.229 NA
ATOM     31  C   UNL     1       8.300  -4.267  25.853  0.00  0.00    +0.203 A 
ENDBRANCH  17  18
ENDBRANCH   1  17
TORSDOF 11
ENDMDL
MODEL 5
REMARK VINA RESULT:      -6.1      2.435      5.175
REMARK  Name = 
REMARK  13 active torsions:
REMARK  status: ('A' for Active; 'I' for Inactive)
REMARK    1  A    between atoms: C_1  and  C_2
REMARK    2  A    between atoms: C_2  and  C_3
REMARK    3  A    between atoms: C_2  and  C_4
REMARK    4  A    between atoms: C_4  and  C_5
REMARK    5  A    between atoms: C_4  and  N_26
REMARK    6  A    between atoms: C_5  and  O_7
REMARK    7  A    between atoms: O_7  and  C_8
REMARK    8  A    between atoms: C_8  and  C_9
REMARK    9  A    between atoms: C_9  and  C_11
REMARK   10  A    between atoms: C_9  and  O_13
REMARK   11  A    between atoms: C_11  and  O_12
REMARK   12  A    between atoms: O_13  and  C_14
REMARK   13  A    between atoms: C_14  and  N_15
REMARK                            x       y       z     vdW  Elec       q    Type
REMARK                         _______ _______ _______ _____ _____    ______ ____
ROOT
ATOM      1  O   UNL     1       7.700  -0.447  24.397  0.00  0.00    -0.350 OA
ENDROOT
BRANCH   1   2
ATOM      2  C   UNL     1       8.523  -0.806  23.274  0.00  0.00    +0.183 C 
BRANCH   2   3
ATOM      3  C   UNL     1       7.867  -2.011  22.579  0.00  0.00    +0.266 C 
BRANCH   3   4
ATOM      4  O   UNL     1       6.470  -2.119  22.913  0.00  0.00    -0.461 OA
BRANCH   4   5
ATOM      5  C   UNL     1       5.832  -3.214  22.407  0.00  0.00    +0.324 C 
ATOM      6  O   UNL     1       5.521  -3.359  21.234  0.00  0.00    -0.249 OA
BRANCH   5   7
ATOM      7  C   UNL     1       5.539  -4.237  23.516  0.00  0.00    +0.163 C 
BRANCH   7   9
ATOM      8  C   UNL     1       6.494  -6.233  22.241  0.00  0.00    +0.009 C 
ATOM      9  C   UNL     1       5.250  -5.632  22.909  0.00  0.00    +0.010 C 
ATOM     10  C   UNL     1       4.733  -6.615  23.968  0.00  0.00    +0.009 C 
ENDBRANCH   7   9
BRANCH   7  11
ATOM     11  N   UNL     1       4.379  -3.755  24.298  0.00  0.00    -0.318 NA
ATOM     12  H   UNL     1       4.687  -3.029  24.945  0.00  0.00    +0.119 HD
ATOM     13  H   UNL     1       3.730  -3.291  23.656  0.00  0.00    +0.119 HD
ENDBRANCH   7  11
ENDBRANCH   5   7
ENDBRANCH   4   5
ENDBRANCH   3   4
ENDBRANCH   2   3
BRANCH   2  14
ATOM     14  C   UNL     1       9.953  -1.178  23.708  0.00  0.00    +0.190 C 
BRANCH  14  15
ATOM     15  O   UNL     1      10.238  -2.552  23.441  0.00  0.00    -0.392 OA
ATOM     16  H   UNL     1      10.102  -2.707  22.490  0.00  0.00    +0.210 HD
ENDBRANCH  14  15
ENDBRANCH   2  14
ENDBRANCH   1   2
BRANCH   1  17
ATOM     17  C   UNL     1       8.291  -0.787  25.656  0.00  0.00    +0.288 C 
BRANCH  17  18
ATOM     18  N   UNL     1       7.554  -1.885  26.252  0.00  0.00    -0.291 N 
ATOM     19  C   UNL     1       7.934  -3.196  26.271  0.00  0.00    +0.171 A 
ATOM     20  N   UNL     1       9.107  -3.715  25.825  0.00  0.00    -0.196 NA
ATOM     21  C   UNL     1       9.195  -5.008  25.991  0.00  0.00    +0.195 A 
ATOM     22  N   UNL     1      10.320  -5.671  25.618  0.00  0.00    -0.329 N 
ATOM     23  H   UNL     1      10.232  -6.638  25.340  0.00  0.00    +0.145 HD
ATOM     24  H   UNL     1      10.925  -5.125  25.015  0.00  0.00    +0.145 HD
ATOM     25  N   UNL     1       8.191  -5.783  26.536  0.00  0.00    -0.293 N 
ATOM     26  H   UNL     1       8.325  -6.771  26.666  0.00  0.00    +0.172 HD
ATOM     27  C   UNL     1       6.975  -5.295  26.993  0.00  0.00    +0.280 A 
ATOM     28  O   UNL     1       6.121  -6.034  27.472  0.00  0.00    -0.265 OA
ATOM     29  C   UNL     1       6.868  -3.862  26.834  0.00  0.00    +0.172 A 
ATOM     30  N   UNL     1       5.847  -3.005  27.154  0.00  0.00    -0.229 NA
ATOM     31  C   UNL     1       6.292  -1.819  26.787  0.00  0.00    +0.203 A 
ENDBRANCH  17  18
ENDBRANCH   1  17
TORSDOF 11
ENDMDL
MODEL 6
REMARK VINA RESULT:      -6.1      2.447      3.995
REMARK  Name = 
REMARK  13 active torsions:
REMARK  status: ('A' for Active; 'I' for Inactive)
REMARK    1  A    between atoms: C_1  and  C_2
REMARK    2  A    between atoms: C_2  and  C_3
REMARK    3  A    between atoms: C_2  and  C_4
REMARK    4  A    between atoms: C_4  and  C_5
REMARK    5  A    between atoms: C_4  and  N_26
REMARK    6  A    between atoms: C_5  and  O_7
REMARK    7  A    between atoms: O_7  and  C_8
REMARK    8  A    between atoms: C_8  and  C_9
REMARK    9  A    between atoms: C_9  and  C_11
REMARK   10  A    between atoms: C_9  and  O_13
REMARK   11  A    between atoms: C_11  and  O_12
REMARK   12  A    between atoms: O_13  and  C_14
REMARK   13  A    between atoms: C_14  and  N_15
REMARK                            x       y       z     vdW  Elec       q    Type
REMARK                         _______ _______ _______ _____ _____    ______ ____
ROOT
ATOM      1  O   UNL     1       6.164  -2.402  22.592  0.00  0.00    -0.350 OA
ENDROOT
BRANCH   1   2
ATOM      2  C   UNL     1       7.342  -1.788  23.142  0.00  0.00    +0.183 C 
BRANCH   2   3
ATOM      3  C   UNL     1       7.195  -0.266  22.984  0.00  0.00    +0.266 C 
BRANCH   3   4
ATOM      4  O   UNL     1       8.435   0.347  22.582  0.00  0.00    -0.461 OA
BRANCH   4   5
ATOM      5  C   UNL     1       9.117   0.987  23.575  0.00  0.00    +0.324 C 
ATOM      6  O   UNL     1       9.312   0.531  24.693  0.00  0.00    -0.249 OA
BRANCH   5   7
ATOM      7  C   UNL     1       9.595   2.371  23.107  0.00  0.00    +0.163 C 
BRANCH   7   9
ATOM      8  C   UNL     1       9.264   4.764  23.933  0.00  0.00    +0.009 C 
ATOM      9  C   UNL     1       8.572   3.464  23.503  0.00  0.00    +0.010 C 
ATOM     10  C   UNL     1       7.602   3.775  22.356  0.00  0.00    +0.009 C 
ENDBRANCH   7   9
BRANCH   7  11
ATOM     11  N   UNL     1       9.775   2.328  21.639  0.00  0.00    -0.318 NA
ATOM     12  H   UNL     1       9.750   1.358  21.324  0.00  0.00    +0.119 HD
ATOM     13  H   UNL     1       8.965   2.778  21.203  0.00  0.00    +0.119 HD
ENDBRANCH   7  11
ENDBRANCH   5   7
ENDBRANCH   4   5
ENDBRANCH   3   4
ENDBRANCH   2   3
BRANCH   2  14
ATOM     14  C   UNL     1       8.620  -2.260  22.424  0.00  0.00    +0.190 C 
BRANCH  14  15
ATOM     15  O   UNL     1       9.715  -2.376  23.333  0.00  0.00    -0.392 OA
ATOM     16  H   UNL     1       9.352  -2.464  24.231  0.00  0.00    +0.210 HD
ENDBRANCH  14  15
ENDBRANCH   2  14
ENDBRANCH   1   2
BRANCH   1  17
ATOM     17  C   UNL     1       6.194  -3.831  22.655  0.00  0.00    +0.288 C 
BRANCH  17  18
ATOM     18  N   UNL     1       5.992  -4.257  24.026  0.00  0.00    -0.291 N 
ATOM     19  C   UNL     1       6.946  -4.751  24.869  0.00  0.00    +0.171 A 
ATOM     20  N   UNL     1       8.279  -4.852  24.626  0.00  0.00    -0.196 NA
ATOM     21  C   UNL     1       8.949  -5.350  25.631  0.00  0.00    +0.195 A 
ATOM     22  N   UNL     1      10.297  -5.490  25.551  0.00  0.00    -0.329 N 
ATOM     23  H   UNL     1      10.731  -6.229  26.087  0.00  0.00    +0.145 HD
ATOM     24  H   UNL     1      10.653  -5.407  24.606  0.00  0.00    +0.145 HD
ATOM     25  N   UNL     1       8.368  -5.762  26.814  0.00  0.00    -0.293 N 
ATOM     26  H   UNL     1       8.938  -6.112  27.565  0.00  0.00    +0.172 HD
ATOM     27  C   UNL     1       7.013  -5.687  27.097  0.00  0.00    +0.280 A 
ATOM     28  O   UNL     1       6.554  -6.066  28.170  0.00  0.00    -0.265 OA
ATOM     29  C   UNL     1       6.257  -5.120  26.002  0.00  0.00    +0.172 A 
ATOM     30  N   UNL     1       4.913  -4.876  25.880  0.00  0.00    -0.229 NA
ATOM     31  C   UNL     1       4.786  -4.357  24.674  0.00  0.00    +0.203 A 
ENDBRANCH  17  18
ENDBRANCH   1  17
TORSDOF 11
ENDMDL
MODEL 7
REMARK VINA RESULT:      -6.1      2.106      3.610
REMARK  Name = 
REMARK  13 active torsions:
REMARK  status: ('A' for Active; 'I' for Inactive)
REMARK    1  A    between atoms: C_1  and  C_2
REMARK    2  A    between atoms: C_2  and  C_3
REMARK    3  A    between atoms: C_2  and  C_4
REMARK    4  A    between atoms: C_4  and  C_5
REMARK    5  A    between atoms: C_4  and  N_26
REMARK    6  A    between atoms: C_5  and  O_7
REMARK    7  A    between atoms: O_7  and  C_8
REMARK    8  A    between atoms: C_8  and  C_9
REMARK    9  A    between atoms: C_9  and  C_11
REMARK   10  A    between atoms: C_9  and  O_13
REMARK   11  A    between atoms: C_11  and  O_12
REMARK   12  A    between atoms: O_13  and  C_14
REMARK   13  A    between atoms: C_14  and  N_15
REMARK                            x       y       z     vdW  Elec       q    Type
REMARK                         _______ _______ _______ _____ _____    ______ ____
ROOT
ATOM      1  O   UNL     1       8.351  -3.035  24.313  0.00  0.00    -0.350 OA
ENDROOT
BRANCH   1   2
ATOM      2  C   UNL     1       9.388  -2.282  23.662  0.00  0.00    +0.183 C 
BRANCH   2   3
ATOM      3  C   UNL     1       9.664  -1.031  24.513  0.00  0.00    +0.266 C 
BRANCH   3   4
ATOM      4  O   UNL     1       9.445   0.179  23.764  0.00  0.00    -0.461 OA
BRANCH   4   5
ATOM      5  C   UNL     1      10.463   1.086  23.809  0.00  0.00    +0.324 C 
ATOM      6  O   UNL     1      11.475   0.964  24.483  0.00  0.00    -0.249 OA
BRANCH   5   7
ATOM      7  C   UNL     1      10.158   2.296  22.912  0.00  0.00    +0.163 C 
BRANCH   7   9
ATOM      8  C   UNL     1       9.398   4.506  23.941  0.00  0.00    +0.009 C 
ATOM      9  C   UNL     1       8.967   3.109  23.477  0.00  0.00    +0.010 C 
ATOM     10  C   UNL     1       7.841   3.256  22.445  0.00  0.00    +0.009 C 
ENDBRANCH   7   9
BRANCH   7  11
ATOM     11  N   UNL     1       9.857   1.801  21.551  0.00  0.00    -0.318 NA
ATOM     12  H   UNL     1       9.595   2.588  20.956  0.00  0.00    +0.119 HD
ATOM     13  H   UNL     1      10.720   1.429  21.146  0.00  0.00    +0.119 HD
ENDBRANCH   7  11
ENDBRANCH   5   7
ENDBRANCH   4   5
ENDBRANCH   3   4
ENDBRANCH   2   3
BRANCH   2  14
ATOM     14  C   UNL     1       8.980  -1.856  22.239  0.00  0.00    +0.190 C 
BRANCH  14  15
ATOM     15  O   UNL     1      10.117  -1.487  21.459  0.00  0.00    -0.392 OA
ATOM     16  H   UNL     1      10.130  -0.517  21.388  0.00  0.00    +0.210 HD
ENDBRANCH  14  15
ENDBRANCH   2  14
ENDBRANCH   1   2
BRANCH   1  17
ATOM     17  C   UNL     1       8.256  -4.383  23.841  0.00  0.00    +0.288 C 
BRANCH  17  18
ATOM     18  N   UNL     1       6.894  -4.652  23.423  0.00  0.00    -0.291 N 
ATOM     19  C   UNL     1       5.963  -5.372  24.116  0.00  0.00    +0.171 A 
ATOM     20  N   UNL     1       6.095  -5.894  25.363  0.00  0.00    -0.196 NA
ATOM     21  C   UNL     1       5.025  -6.521  25.775  0.00  0.00    +0.195 A 
ATOM     22  N   UNL     1       4.992  -7.077  27.013  0.00  0.00    -0.329 N 
ATOM     23  H   UNL     1       4.402  -7.885  27.157  0.00  0.00    +0.145 HD
ATOM     24  H   UNL     1       5.909  -7.158  27.440  0.00  0.00    +0.145 HD
ATOM     25  N   UNL     1       3.882  -6.671  25.016  0.00  0.00    -0.293 N 
ATOM     26  H   UNL     1       3.077  -7.140  25.395  0.00  0.00    +0.172 HD
ATOM     27  C   UNL     1       3.711  -6.164  23.736  0.00  0.00    +0.280 A 
ATOM     28  O   UNL     1       2.668  -6.325  23.110  0.00  0.00    -0.265 OA
ATOM     29  C   UNL     1       4.879  -5.449  23.271  0.00  0.00    +0.172 A 
ATOM     30  N   UNL     1       5.115  -4.807  22.083  0.00  0.00    -0.229 NA
ATOM     31  C   UNL     1       6.342  -4.339  22.206  0.00  0.00    +0.203 A 
ENDBRANCH  17  18
ENDBRANCH   1  17
TORSDOF 11
ENDMDL
MODEL 8
REMARK VINA RESULT:      -6.0      1.589      2.846
REMARK  Name = 
REMARK  13 active torsions:
REMARK  status: ('A' for Active; 'I' for Inactive)
REMARK    1  A    between atoms: C_1  and  C_2
REMARK    2  A    between atoms: C_2  and  C_3
REMARK    3  A    between atoms: C_2  and  C_4
REMARK    4  A    between atoms: C_4  and  C_5
REMARK    5  A    between atoms: C_4  and  N_26
REMARK    6  A    between atoms: C_5  and  O_7
REMARK    7  A    between atoms: O_7  and  C_8
REMARK    8  A    between atoms: C_8  and  C_9
REMARK    9  A    between atoms: C_9  and  C_11
REMARK   10  A    between atoms: C_9  and  O_13
REMARK   11  A    between atoms: C_11  and  O_12
REMARK   12  A    between atoms: O_13  and  C_14
REMARK   13  A    between atoms: C_14  and  N_15
REMARK                            x       y       z     vdW  Elec       q    Type
REMARK                         _______ _______ _______ _____ _____    ______ ____
ROOT
ATOM      1  O   UNL     1       7.449  -3.618  23.875  0.00  0.00    -0.350 OA
ENDROOT
BRANCH   1   2
ATOM      2  C   UNL     1       8.503  -3.856  24.823  0.00  0.00    +0.183 C 
BRANCH   2   3
ATOM      3  C   UNL     1       9.759  -3.124  24.323  0.00  0.00    +0.266 C 
BRANCH   3   4
ATOM      4  O   UNL     1       9.681  -1.707  24.573  0.00  0.00    -0.461 OA
BRANCH   4   5
ATOM      5  C   UNL     1       9.870  -0.911  23.482  0.00  0.00    +0.324 C 
ATOM      6  O   UNL     1      10.268  -1.302  22.394  0.00  0.00    -0.249 OA
BRANCH   5   7
ATOM      7  C   UNL     1       9.533   0.553  23.807  0.00  0.00    +0.163 C 
BRANCH   7   9
ATOM      8  C   UNL     1       8.919   1.792  21.660  0.00  0.00    +0.009 C 
ATOM      9  C   UNL     1      10.027   1.491  22.678  0.00  0.00    +0.010 C 
ATOM     10  C   UNL     1      10.561   2.817  23.236  0.00  0.00    +0.009 C 
ENDBRANCH   7   9
BRANCH   7  11
ATOM     11  N   UNL     1      10.171   0.901  25.095  0.00  0.00    -0.318 NA
ATOM     12  H   UNL     1       9.473   1.309  25.718  0.00  0.00    +0.119 HD
ATOM     13  H   UNL     1      10.470   0.034  25.551  0.00  0.00    +0.119 HD
ENDBRANCH   7  11
ENDBRANCH   5   7
ENDBRANCH   4   5
ENDBRANCH   3   4
ENDBRANCH   2   3
BRANCH   2  14
ATOM     14  C   UNL     1       8.809  -5.359  24.973  0.00  0.00    +0.190 C 
BRANCH  14  15
ATOM     15  O   UNL     1       8.505  -5.824  26.288  0.00  0.00    -0.392 OA
ATOM     16  H   UNL     1       8.738  -5.120  26.917  0.00  0.00    +0.210 HD
ENDBRANCH  14  15
ENDBRANCH   2  14
ENDBRANCH   1   2
BRANCH   1  17
ATOM     17  C   UNL     1       6.201  -3.290  24.494  0.00  0.00    +0.288 C 
BRANCH  17  18
ATOM     18  N   UNL     1       5.220  -4.306  24.165  0.00  0.00    -0.291 N 
ATOM     19  C   UNL     1       4.903  -5.399  24.920  0.00  0.00    +0.171 A 
ATOM     20  N   UNL     1       5.369  -5.699  26.160  0.00  0.00    -0.196 NA
ATOM     21  C   UNL     1       4.872  -6.807  26.643  0.00  0.00    +0.195 A 
ATOM     22  N   UNL     1       5.223  -7.229  27.884  0.00  0.00    -0.329 N 
ATOM     23  H   UNL     1       5.209  -8.223  28.071  0.00  0.00    +0.145 HD
ATOM     24  H   UNL     1       6.040  -6.755  28.253  0.00  0.00    +0.145 HD
ATOM     25  N   UNL     1       3.986  -7.614  25.959  0.00  0.00    -0.293 N 
ATOM     26  H   UNL     1       3.614  -8.442  26.391  0.00  0.00    +0.172 HD
ATOM     27  C   UNL     1       3.494  -7.350  24.689  0.00  0.00    +0.280 A 
ATOM     28  O   UNL     1       2.703  -8.104  24.132  0.00  0.00    -0.265 OA
ATOM     29  C   UNL     1       4.019  -6.116  24.146  0.00  0.00    +0.172 A 
ATOM     30  N   UNL     1       3.789  -5.505  22.940  0.00  0.00    -0.229 NA
ATOM     31  C   UNL     1       4.531  -4.416  22.982  0.00  0.00    +0.203 A 
ENDBRANCH  17  18
ENDBRANCH   1  17
TORSDOF 11
ENDMDL
MODEL 9
REMARK VINA RESULT:      -6.0      4.053      9.150
REMARK  Name = 
REMARK  13 active torsions:
REMARK  status: ('A' for Active; 'I' for Inactive)
REMARK    1  A    between atoms: C_1  and  C_2
REMARK    2  A    between atoms: C_2  and  C_3
REMARK    3  A    between atoms: C_2  and  C_4
REMARK    4  A    between atoms: C_4  and  C_5
REMARK    5  A    between atoms: C_4  and  N_26
REMARK    6  A    between atoms: C_5  and  O_7
REMARK    7  A    between atoms: O_7  and  C_8
REMARK    8  A    between atoms: C_8  and  C_9
REMARK    9  A    between atoms: C_9  and  C_11
REMARK   10  A    between atoms: C_9  and  O_13
REMARK   11  A    between atoms: C_11  and  O_12
REMARK   12  A    between atoms: O_13  and  C_14
REMARK   13  A    between atoms: C_14  and  N_15
REMARK                            x       y       z     vdW  Elec       q    Type
REMARK                         _______ _______ _______ _____ _____    ______ ____
ROOT
ATOM      1  O   UNL     1       9.676  -0.002  24.642  0.00  0.00    -0.350 OA
ENDROOT
BRANCH   1   2
ATOM      2  C   UNL     1       9.371  -1.105  23.771  0.00  0.00    +0.183 C 
BRANCH   2   3
ATOM      3  C   UNL     1       9.340  -2.382  24.627  0.00  0.00    +0.266 C 
BRANCH   3   4
ATOM      4  O   UNL     1       9.203  -3.562  23.813  0.00  0.00    -0.461 OA
BRANCH   4   5
ATOM      5  C   UNL     1       8.628  -4.634  24.431  0.00  0.00    +0.324 C 
ATOM      6  O   UNL     1       9.147  -5.281  25.329  0.00  0.00    -0.249 OA
BRANCH   5   7
ATOM      7  C   UNL     1       7.245  -4.933  23.833  0.00  0.00    +0.163 C 
BRANCH   7   9
ATOM      8  C   UNL     1       6.937  -5.730  21.426  0.00  0.00    +0.009 C 
ATOM      9  C   UNL     1       7.196  -4.525  22.339  0.00  0.00    +0.010 C 
ATOM     10  C   UNL     1       6.118  -3.464  22.077  0.00  0.00    +0.009 C 
ENDBRANCH   7   9
BRANCH   7  11
ATOM     11  N   UNL     1       6.231  -4.190  24.613  0.00  0.00    -0.318 NA
ATOM     12  H   UNL     1       5.647  -3.646  23.976  0.00  0.00    +0.119 HD
ATOM     13  H   UNL     1       5.600  -4.869  25.048  0.00  0.00    +0.119 HD
ENDBRANCH   7  11
ENDBRANCH   5   7
ENDBRANCH   4   5
ENDBRANCH   3   4
ENDBRANCH   2   3
BRANCH   2  14
ATOM     14  C   UNL     1      10.420  -1.259  22.655  0.00  0.00    +0.190 C 
BRANCH  14  15
ATOM     15  O   UNL     1       9.822  -1.697  21.435  0.00  0.00    -0.392 OA
ATOM     16  H   UNL     1       8.875  -1.476  21.468  0.00  0.00    +0.210 HD
ENDBRANCH  14  15
ENDBRANCH   2  14
ENDBRANCH   1   2
BRANCH   1  17
ATOM     17  C   UNL     1      10.573   0.946  24.053  0.00  0.00    +0.288 C 
BRANCH  17  18
ATOM     18  N   UNL     1       9.906   2.228  23.932  0.00  0.00    -0.291 N 
ATOM     19  C   UNL     1      10.506   3.433  23.704  0.00  0.00    +0.171 A 
ATOM     20  N   UNL     1      11.822   3.657  23.452  0.00  0.00    -0.196 NA
ATOM     21  C   UNL     1      12.102   4.918  23.255  0.00  0.00    +0.195 A 
ATOM     22  N   UNL     1      13.373   5.299  22.967  0.00  0.00    -0.329 N 
ATOM     23  H   UNL     1      13.665   6.227  23.241  0.00  0.00    +0.145 HD
ATOM     24  H   UNL     1      14.061   4.580  23.159  0.00  0.00    +0.145 HD
ATOM     25  N   UNL     1      11.168   5.932  23.322  0.00  0.00    -0.293 N 
ATOM     26  H   UNL     1      11.435   6.883  23.133  0.00  0.00    +0.172 HD
ATOM     27  C   UNL     1       9.819   5.748  23.587  0.00  0.00    +0.280 A 
ATOM     28  O   UNL     1       9.034   6.690  23.630  0.00  0.00    -0.265 OA
ATOM     29  C   UNL     1       9.487   4.355  23.789  0.00  0.00    +0.172 A 
ATOM     30  N   UNL     1       8.285   3.758  24.069  0.00  0.00    -0.229 NA
ATOM     31  C   UNL     1       8.573   2.473  24.151  0.00  0.00    +0.203 A 
ENDBRANCH  17  18
ENDBRANCH   1  17
TORSDOF 11
ENDMDL
