MODEL 1
REMARK VINA RESULT:      -7.0      0.000      0.000
REMARK  Name = 
REMARK  17 active torsions:
REMARK  status: ('A' for Active; 'I' for Inactive)
REMARK    1  A    between atoms: C_1  and  C_2
REMARK    2  A    between atoms: C_2  and  C_3
REMARK    3  A    between atoms: C_2  and  C_4
REMARK    4  A    between atoms: C_2  and  N_5
REMARK    5  A    between atoms: C_6  and  C_8
REMARK    6  A    between atoms: N_20  and  C_21
REMARK    7  A    between atoms: C_21  and  C_22
REMARK    8  A    between atoms: C_22  and  C_24
REMARK    9  A    between atoms: C_22  and  O_55
REMARK   10  A    between atoms: C_24  and  C_26
REMARK   11  A    between atoms: C_24  and  N_33
REMARK   12  A    between atoms: C_26  and  C_27
REMARK   13  A    between atoms: C_34  and  C_36
REMARK   14  A    between atoms: C_36  and  C_38
REMARK   15  A    between atoms: C_36  and  N_42
REMARK   16  A    between atoms: C_38  and  C_39
REMARK   17  A    between atoms: C_43  and  C_45
REMARK                            x       y       z     vdW  Elec       q    Type
REMARK                         _______ _______ _______ _____ _____    ______ ____
ROOT
ATOM      1  C   UNL     1       8.367   1.764  25.065  0.00  0.00    +0.107 C 
ENDROOT
BRANCH   1   2
ATOM      2  N   UNL     1       8.702   0.414  24.615  0.00  0.00    -0.308 N 
ATOM      3  H   UNL     1       7.963  -0.270  24.543  0.00  0.00    +0.149 HD
ATOM      4  C   UNL     1       9.984  -0.113  24.648  0.00  0.00    +0.234 C 
ATOM      5  O   UNL     1      10.942   0.470  25.155  0.00  0.00    -0.274 OA
BRANCH   4   6
ATOM      6  C   UNL     1      10.136  -1.562  24.084  0.00  0.00    +0.168 C 
BRANCH   6   7
ATOM      7  N   UNL     1       8.925  -2.367  24.279  0.00  0.00    -0.298 N 
ATOM      8  H   UNL     1       8.005  -1.935  24.319  0.00  0.00    +0.150 HD
ATOM      9  C   UNL     1       9.004  -3.730  24.457  0.00  0.00    +0.263 C 
ATOM     10  O   UNL     1      10.093  -4.303  24.536  0.00  0.00    -0.269 OA
BRANCH   9  11
ATOM     11  C   UNL     1       7.743  -4.468  24.699  0.00  0.00    +0.126 A 
ATOM     12  C   UNL     1       7.676  -5.217  25.858  0.00  0.00    +0.033 A 
ATOM     13  C   UNL     1       6.495  -5.860  26.180  0.00  0.00    +0.012 A 
ATOM     14  C   UNL     1       5.395  -5.695  25.347  0.00  0.00    +0.000 A 
ATOM     15  C   UNL     1       5.538  -4.920  24.170  0.00  0.00    +0.072 A 
ATOM     16  C   UNL     1       4.423  -4.802  23.357  0.00  0.00    +0.028 A 
ATOM     17  C   UNL     1       3.195  -5.376  23.696  0.00  0.00    +0.002 A 
ATOM     18  C   UNL     1       3.058  -6.105  24.874  0.00  0.00    +0.001 A 
ATOM     19  C   UNL     1       4.162  -6.272  25.698  0.00  0.00    +0.010 A 
ATOM     20  N   UNL     1       6.701  -4.315  23.844  0.00  0.00    -0.242 NA
ENDBRANCH   9  11
ENDBRANCH   6   7
BRANCH   6  21
ATOM     21  C   UNL     1      10.566  -1.499  22.628  0.00  0.00    +0.127 C 
BRANCH  21  22
ATOM     22  C   UNL     1       9.400  -1.148  21.744  0.00  0.00    +0.213 C 
ATOM     23  N   UNL     1       9.443   0.058  21.119  0.00  0.00    -0.329 N 
ATOM     24  H   UNL     1       8.648   0.314  20.553  0.00  0.00    +0.145 HD
ATOM     25  H   UNL     1      10.090   0.790  21.392  0.00  0.00    +0.145 HD
ATOM     26  O   UNL     1       8.450  -1.924  21.556  0.00  0.00    -0.276 OA
ENDBRANCH  21  22
ENDBRANCH   6  21
ENDBRANCH   4   6
ENDBRANCH   1   2
BRANCH   1  27
ATOM     27  C   UNL     1       7.043   1.866  26.004  0.00  0.00    +0.149 C 
BRANCH  27  28
ATOM     28  O   UNL     1       7.377   1.265  27.276  0.00  0.00    -0.389 OA
ATOM     29  H   UNL     1       8.307   1.465  27.490  0.00  0.00    +0.210 HD
ENDBRANCH  27  28
BRANCH  27  30
ATOM     30  C   UNL     1       5.689   1.166  25.432  0.00  0.00    +0.118 C 
BRANCH  30  32
ATOM     31  C   UNL     1       3.645   0.341  26.740  0.00  0.00    +0.143 C 
ATOM     32  N   UNL     1       4.920   0.007  26.044  0.00  0.00    -0.289 NA
ATOM     33  C   UNL     1       4.955  -1.309  25.418  0.00  0.00    +0.089 C 
ATOM     34  C   UNL     1       4.432  -2.479  26.328  0.00  0.00    +0.006 C 
ATOM     35  C   UNL     1       2.971  -2.254  26.726  0.00  0.00    -0.005 C 
ATOM     36  C   UNL     1       2.470  -3.298  27.760  0.00  0.00    +0.004 C 
ATOM     37  C   UNL     1       3.350  -3.368  29.003  0.00  0.00    +0.000 C 
ATOM     38  C   UNL     1       4.769  -3.729  28.601  0.00  0.00    +0.000 C 
ATOM     39  C   UNL     1       5.344  -2.789  27.533  0.00  0.00    +0.005 C 
ATOM     40  C   UNL     1       2.692  -0.818  27.191  0.00  0.00    +0.032 C 
BRANCH  31  43
ATOM     41  N   UNL     1       3.416   2.450  28.076  0.00  0.00    -0.309 N 
ATOM     42  H   UNL     1       2.709   2.651  27.380  0.00  0.00    +0.149 HD
ATOM     43  C   UNL     1       3.902   1.152  28.053  0.00  0.00    +0.231 C 
ATOM     44  O   UNL     1       4.630   0.697  28.936  0.00  0.00    -0.274 OA
BRANCH  41  46
ATOM     45  C   UNL     1       5.304   3.694  29.106  0.00  0.00    +0.031 C 
ATOM     46  C   UNL     1       3.780   3.480  29.076  0.00  0.00    +0.026 C 
ATOM     47  C   UNL     1       3.143   4.828  28.704  0.00  0.00    +0.031 C 
ATOM     48  C   UNL     1       3.282   3.113  30.484  0.00  0.00    +0.031 C 
ENDBRANCH  41  46
ENDBRANCH  31  43
ENDBRANCH  30  32
ENDBRANCH  27  30
ENDBRANCH   1  27
BRANCH   1  49
ATOM     49  C   UNL     1       8.417   2.755  23.823  0.00  0.00    +0.060 C 
BRANCH  49  50
ATOM     50  C   UNL     1       9.547   3.750  23.634  0.00  0.00    -0.046 A 
ATOM     51  C   UNL     1      10.863   3.349  23.317  0.00  0.00    +0.004 A 
ATOM     52  C   UNL     1      11.926   4.263  23.362  0.00  0.00    +0.000 A 
ATOM     53  C   UNL     1      11.699   5.590  23.733  0.00  0.00    +0.000 A 
ATOM     54  C   UNL     1      10.407   6.004  24.031  0.00  0.00    +0.000 A 
ATOM     55  C   UNL     1       9.340   5.093  23.975  0.00  0.00    +0.004 A 
ENDBRANCH  49  50
ENDBRANCH   1  49
TORSDOF 14
ENDMDL
MODEL 2
REMARK VINA RESULT:      -6.8      2.331      7.582
REMARK  Name = 
REMARK  17 active torsions:
REMARK  status: ('A' for Active; 'I' for Inactive)
REMARK    1  A    between atoms: C_1  and  C_2
REMARK    2  A    between atoms: C_2  and  C_3
REMARK    3  A    between atoms: C_2  and  C_4
REMARK    4  A    between atoms: C_2  and  N_5
REMARK    5  A    between atoms: C_6  and  C_8
REMARK    6  A    between atoms: N_20  and  C_21
REMARK    7  A    between atoms: C_21  and  C_22
REMARK    8  A    between atoms: C_22  and  C_24
REMARK    9  A    between atoms: C_22  and  O_55
REMARK   10  A    between atoms: C_24  and  C_26
REMARK   11  A    between atoms: C_24  and  N_33
REMARK   12  A    between atoms: C_26  and  C_27
REMARK   13  A    between atoms: C_34  and  C_36
REMARK   14  A    between atoms: C_36  and  C_38
REMARK   15  A    between atoms: C_36  and  N_42
REMARK   16  A    between atoms: C_38  and  C_39
REMARK   17  A    between atoms: C_43  and  C_45
REMARK                            x       y       z     vdW  Elec       q    Type
REMARK                         _______ _______ _______ _____ _____    ______ ____
ROOT
ATOM      1  C   UNL     1       8.250  -3.542  25.359  0.00  0.00    +0.107 C 
ENDROOT
BRANCH   1   2
ATOM      2  N   UNL     1       7.387  -2.402  25.667  0.00  0.00    -0.308 N 
ATOM      3  H   UNL     1       6.671  -2.143  25.005  0.00  0.00    +0.149 HD
ATOM      4  C   UNL     1       7.709  -1.420  26.592  0.00  0.00    +0.234 C 
ATOM      5  O   UNL     1       8.797  -1.362  27.164  0.00  0.00    -0.274 OA
BRANCH   4   6
ATOM      6  C   UNL     1       6.633  -0.308  26.802  0.00  0.00    +0.168 C 
BRANCH   6   7
ATOM      7  N   UNL     1       6.924   0.904  26.027  0.00  0.00    -0.298 N 
ATOM      8  H   UNL     1       7.163   1.779  26.486  0.00  0.00    +0.150 HD
ATOM      9  C   UNL     1       6.837   0.900  24.653  0.00  0.00    +0.263 C 
ATOM     10  O   UNL     1       6.441  -0.094  24.038  0.00  0.00    -0.269 OA
BRANCH   9  11
ATOM     11  C   UNL     1       7.096   2.174  23.942  0.00  0.00    +0.126 A 
ATOM     12  C   UNL     1       6.528   2.310  22.690  0.00  0.00    +0.033 A 
ATOM     13  C   UNL     1       6.663   3.509  22.013  0.00  0.00    +0.012 A 
ATOM     14  C   UNL     1       7.330   4.557  22.637  0.00  0.00    +0.000 A 
ATOM     15  C   UNL     1       7.894   4.343  23.919  0.00  0.00    +0.072 A 
ATOM     16  C   UNL     1       8.569   5.408  24.492  0.00  0.00    +0.028 A 
ATOM     17  C   UNL     1       8.655   6.654  23.866  0.00  0.00    +0.002 A 
ATOM     18  C   UNL     1       8.065   6.862  22.622  0.00  0.00    +0.001 A 
ATOM     19  C   UNL     1       7.407   5.809  22.003  0.00  0.00    +0.010 A 
ATOM     20  N   UNL     1       7.783   3.162  24.566  0.00  0.00    -0.242 NA
ENDBRANCH   9  11
ENDBRANCH   6   7
BRANCH   6  21
ATOM     21  C   UNL     1       5.253  -0.873  26.507  0.00  0.00    +0.127 C 
BRANCH  21  22
ATOM     22  C   UNL     1       4.182   0.022  27.069  0.00  0.00    +0.213 C 
ATOM     23  N   UNL     1       4.178   0.205  28.416  0.00  0.00    -0.329 N 
ATOM     24  H   UNL     1       3.441   0.776  28.802  0.00  0.00    +0.145 HD
ATOM     25  H   UNL     1       4.702  -0.391  29.047  0.00  0.00    +0.145 HD
ATOM     26  O   UNL     1       3.353   0.602  26.350  0.00  0.00    -0.276 OA
ENDBRANCH  21  22
ENDBRANCH   6  21
ENDBRANCH   4   6
ENDBRANCH   1   2
BRANCH   1  27
ATOM     27  C   UNL     1       8.567  -4.523  26.616  0.00  0.00    +0.149 C 
BRANCH  27  28
ATOM     28  O   UNL     1       9.885  -5.078  26.401  0.00  0.00    -0.389 OA
ATOM     29  H   UNL     1      10.129  -4.969  25.464  0.00  0.00    +0.210 HD
ENDBRANCH  27  28
BRANCH  27  30
ATOM     30  C   UNL     1       7.519  -5.743  26.871  0.00  0.00    +0.118 C 
BRANCH  30  32
ATOM     31  C   UNL     1       5.136  -6.688  26.859  0.00  0.00    +0.143 C 
ATOM     32  N   UNL     1       6.078  -5.638  27.342  0.00  0.00    -0.289 NA
ATOM     33  C   UNL     1       5.775  -5.096  28.661  0.00  0.00    +0.089 C 
ATOM     34  C   UNL     1       4.267  -4.709  28.877  0.00  0.00    +0.006 C 
ATOM     35  C   UNL     1       3.358  -5.931  28.718  0.00  0.00    -0.005 C 
ATOM     36  C   UNL     1       1.851  -5.559  28.757  0.00  0.00    +0.004 C 
ATOM     37  C   UNL     1       1.481  -4.489  27.736  0.00  0.00    +0.000 C 
ATOM     38  C   UNL     1       2.295  -3.234  27.996  0.00  0.00    +0.000 C 
ATOM     39  C   UNL     1       3.805  -3.501  28.037  0.00  0.00    +0.005 C 
ATOM     40  C   UNL     1       3.701  -6.774  27.483  0.00  0.00    +0.032 C 
BRANCH  31  43
ATOM     41  N   UNL     1       5.097  -5.312  24.764  0.00  0.00    -0.309 N 
ATOM     42  H   UNL     1       5.668  -4.693  25.324  0.00  0.00    +0.149 HD
ATOM     43  C   UNL     1       4.874  -6.561  25.322  0.00  0.00    +0.231 C 
ATOM     44  O   UNL     1       4.353  -7.487  24.699  0.00  0.00    -0.274 OA
BRANCH  41  46
ATOM     45  C   UNL     1       5.077  -3.437  23.134  0.00  0.00    +0.031 C 
ATOM     46  C   UNL     1       4.653  -4.889  23.416  0.00  0.00    +0.026 C 
ATOM     47  C   UNL     1       5.313  -5.768  22.341  0.00  0.00    +0.031 C 
ATOM     48  C   UNL     1       3.130  -5.025  23.245  0.00  0.00    +0.031 C 
ENDBRANCH  41  46
ENDBRANCH  31  43
ENDBRANCH  30  32
ENDBRANCH  27  30
ENDBRANCH   1  27
BRANCH   1  49
ATOM     49  C   UNL     1       9.513  -3.033  24.538  0.00  0.00    +0.060 C 
BRANCH  49  50
ATOM     50  C   UNL     1       9.447  -1.813  23.638  0.00  0.00    -0.046 A 
ATOM     51  C   UNL     1       8.908  -1.863  22.335  0.00  0.00    +0.004 A 
ATOM     52  C   UNL     1       9.056  -0.784  21.451  0.00  0.00    +0.000 A 
ATOM     53  C   UNL     1       9.753   0.360  21.846  0.00  0.00    +0.000 A 
ATOM     54  C   UNL     1      10.274   0.431  23.131  0.00  0.00    +0.000 A 
ATOM     55  C   UNL     1      10.117  -0.643  24.021  0.00  0.00    +0.004 A 
ENDBRANCH  49  50
ENDBRANCH   1  49
TORSDOF 14
ENDMDL
MODEL 3
REMARK VINA RESULT:      -6.7      1.939      3.892
REMARK  Name = 
REMARK  17 active torsions:
REMARK  status: ('A' for Active; 'I' for Inactive)
REMARK    1  A    between atoms: C_1  and  C_2
REMARK    2  A    between atoms: C_2  and  C_3
REMARK    3  A    between atoms: C_2  and  C_4
REMARK    4  A    between atoms: C_2  and  N_5
REMARK    5  A    between atoms: C_6  and  C_8
REMARK    6  A    between atoms: N_20  and  C_21
REMARK    7  A    between atoms: C_21  and  C_22
REMARK    8  A    between atoms: C_22  and  C_24
REMARK    9  A    between atoms: C_22  and  O_55
REMARK   10  A    between atoms: C_24  and  C_26
REMARK   11  A    between atoms: C_24  and  N_33
REMARK   12  A    between atoms: C_26  and  C_27
REMARK   13  A    between atoms: C_34  and  C_36
REMARK   14  A    between atoms: C_36  and  C_38
REMARK   15  A    between atoms: C_36  and  N_42
REMARK   16  A    between atoms: C_38  and  C_39
REMARK   17  A    between atoms: C_43  and  C_45
REMARK                            x       y       z     vdW  Elec       q    Type
REMARK                         _______ _______ _______ _____ _____    ______ ____
ROOT
ATOM      1  C   UNL     1       7.733   1.424  25.638  0.00  0.00    +0.107 C 
ENDROOT
BRANCH   1   2
ATOM      2  N   UNL     1       8.123   0.432  24.636  0.00  0.00    -0.308 N 
ATOM      3  H   UNL     1       7.456  -0.279  24.374  0.00  0.00    +0.149 HD
ATOM      4  C   UNL     1       9.438   0.150  24.302  0.00  0.00    +0.234 C 
ATOM      5  O   UNL     1      10.404   0.635  24.892  0.00  0.00    -0.274 OA
BRANCH   4   6
ATOM      6  C   UNL     1       9.639  -0.916  23.179  0.00  0.00    +0.168 C 
BRANCH   6   7
ATOM      7  N   UNL     1       8.447  -1.747  22.978  0.00  0.00    -0.298 N 
ATOM      8  H   UNL     1       7.595  -1.361  22.578  0.00  0.00    +0.150 HD
ATOM      9  C   UNL     1       8.434  -3.068  23.366  0.00  0.00    +0.263 C 
ATOM     10  O   UNL     1       9.391  -3.571  23.961  0.00  0.00    -0.269 OA
BRANCH   9  11
ATOM     11  C   UNL     1       7.177  -3.830  23.177  0.00  0.00    +0.126 A 
ATOM     12  C   UNL     1       7.272  -5.016  22.476  0.00  0.00    +0.033 A 
ATOM     13  C   UNL     1       6.150  -5.813  22.339  0.00  0.00    +0.012 A 
ATOM     14  C   UNL     1       4.969  -5.415  22.953  0.00  0.00    +0.000 A 
ATOM     15  C   UNL     1       4.942  -4.181  23.650  0.00  0.00    +0.072 A 
ATOM     16  C   UNL     1       3.738  -3.813  24.226  0.00  0.00    +0.028 A 
ATOM     17  C   UNL     1       2.608  -4.633  24.172  0.00  0.00    +0.002 A 
ATOM     18  C   UNL     1       2.658  -5.860  23.515  0.00  0.00    +0.001 A 
ATOM     19  C   UNL     1       3.839  -6.248  22.898  0.00  0.00    +0.010 A 
ATOM     20  N   UNL     1       6.034  -3.392  23.759  0.00  0.00    -0.242 NA
ENDBRANCH   9  11
ENDBRANCH   6   7
BRANCH   6  21
ATOM     21  C   UNL     1      10.093  -0.229  21.901  0.00  0.00    +0.127 C 
BRANCH  21  22
ATOM     22  C   UNL     1       9.312   1.037  21.673  0.00  0.00    +0.213 C 
ATOM     23  N   UNL     1      10.029   2.180  21.506  0.00  0.00    -0.329 N 
ATOM     24  H   UNL     1       9.511   3.037  21.387  0.00  0.00    +0.145 HD
ATOM     25  H   UNL     1      11.013   2.245  21.746  0.00  0.00    +0.145 HD
ATOM     26  O   UNL     1       8.073   1.053  21.603  0.00  0.00    -0.276 OA
ENDBRANCH  21  22
ENDBRANCH   6  21
ENDBRANCH   4   6
ENDBRANCH   1   2
BRANCH   1  27
ATOM     27  C   UNL     1       6.604   0.923  26.696  0.00  0.00    +0.149 C 
BRANCH  27  28
ATOM     28  O   UNL     1       7.302   0.425  27.859  0.00  0.00    -0.389 OA
ATOM     29  H   UNL     1       7.796  -0.380  27.616  0.00  0.00    +0.210 HD
ENDBRANCH  27  28
BRANCH  27  30
ATOM     30  C   UNL     1       5.571  -0.221  26.172  0.00  0.00    +0.118 C 
BRANCH  30  32
ATOM     31  C   UNL     1       4.928  -1.842  28.051  0.00  0.00    +0.143 C 
ATOM     32  N   UNL     1       4.481  -0.916  26.972  0.00  0.00    -0.289 NA
ATOM     33  C   UNL     1       3.213  -0.241  27.222  0.00  0.00    +0.089 C 
ATOM     34  C   UNL     1       2.063  -1.184  27.733  0.00  0.00    +0.006 C 
ATOM     35  C   UNL     1       2.443  -1.846  29.059  0.00  0.00    -0.005 C 
ATOM     36  C   UNL     1       1.407  -2.910  29.509  0.00  0.00    +0.004 C 
ATOM     37  C   UNL     1       1.150  -3.971  28.445  0.00  0.00    +0.000 C 
ATOM     38  C   UNL     1       0.640  -3.307  27.178  0.00  0.00    +0.000 C 
ATOM     39  C   UNL     1       1.566  -2.191  26.676  0.00  0.00    +0.005 C 
ATOM     40  C   UNL     1       3.870  -2.410  29.058  0.00  0.00    +0.032 C 
BRANCH  31  43
ATOM     41  N   UNL     1       4.910  -4.305  27.588  0.00  0.00    -0.309 N 
ATOM     42  H   UNL     1       3.922  -4.194  27.777  0.00  0.00    +0.149 HD
ATOM     43  C   UNL     1       5.616  -3.119  27.464  0.00  0.00    +0.231 C 
ATOM     44  O   UNL     1       6.779  -3.073  27.064  0.00  0.00    -0.274 OA
BRANCH  41  46
ATOM     45  C   UNL     1       5.956  -6.267  28.697  0.00  0.00    +0.031 C 
ATOM     46  C   UNL     1       5.472  -5.658  27.369  0.00  0.00    +0.026 C 
ATOM     47  C   UNL     1       4.390  -6.596  26.810  0.00  0.00    +0.031 C 
ATOM     48  C   UNL     1       6.629  -5.641  26.356  0.00  0.00    +0.031 C 
ENDBRANCH  41  46
ENDBRANCH  31  43
ENDBRANCH  30  32
ENDBRANCH  27  30
ENDBRANCH   1  27
BRANCH   1  49
ATOM     49  C   UNL     1       7.444   2.809  24.915  0.00  0.00    +0.060 C 
BRANCH  49  50
ATOM     50  C   UNL     1       8.375   3.999  25.056  0.00  0.00    -0.046 A 
ATOM     51  C   UNL     1       8.137   5.039  25.981  0.00  0.00    +0.004 A 
ATOM     52  C   UNL     1       8.886   6.224  25.942  0.00  0.00    +0.000 A 
ATOM     53  C   UNL     1       9.878   6.398  24.975  0.00  0.00    +0.000 A 
ATOM     54  C   UNL     1      10.136   5.378  24.069  0.00  0.00    +0.000 A 
ATOM     55  C   UNL     1       9.395   4.186  24.114  0.00  0.00    +0.004 A 
ENDBRANCH  49  50
ENDBRANCH   1  49
TORSDOF 14
ENDMDL
MODEL 4
REMARK VINA RESULT:      -6.7      2.309      7.515
REMARK  Name = 
REMARK  17 active torsions:
REMARK  status: ('A' for Active; 'I' for Inactive)
REMARK    1  A    between atoms: C_1  and  C_2
REMARK    2  A    between atoms: C_2  and  C_3
REMARK    3  A    between atoms: C_2  and  C_4
REMARK    4  A    between atoms: C_2  and  N_5
REMARK    5  A    between atoms: C_6  and  C_8
REMARK    6  A    between atoms: N_20  and  C_21
REMARK    7  A    between atoms: C_21  and  C_22
REMARK    8  A    between atoms: C_22  and  C_24
REMARK    9  A    between atoms: C_22  and  O_55
REMARK   10  A    between atoms: C_24  and  C_26
REMARK   11  A    between atoms: C_24  and  N_33
REMARK   12  A    between atoms: C_26  and  C_27
REMARK   13  A    between atoms: C_34  and  C_36
REMARK   14  A    between atoms: C_36  and  C_38
REMARK   15  A    between atoms: C_36  and  N_42
REMARK   16  A    between atoms: C_38  and  C_39
REMARK   17  A    between atoms: C_43  and  C_45
REMARK                            x       y       z     vdW  Elec       q    Type
REMARK                         _______ _______ _______ _____ _____    ______ ____
ROOT
ATOM      1  C   UNL     1       8.693  -3.278  24.569  0.00  0.00    +0.107 C 
ENDROOT
BRANCH   1   2
ATOM      2  N   UNL     1       8.002  -2.212  25.294  0.00  0.00    -0.308 N 
ATOM      3  H   UNL     1       8.134  -2.142  26.292  0.00  0.00    +0.149 HD
ATOM      4  C   UNL     1       6.897  -1.537  24.801  0.00  0.00    +0.234 C 
ATOM      5  O   UNL     1       6.330  -1.842  23.752  0.00  0.00    -0.274 OA
BRANCH   4   6
ATOM      6  C   UNL     1       6.331  -0.404  25.716  0.00  0.00    +0.168 C 
BRANCH   6   7
ATOM      7  N   UNL     1       6.411   0.918  25.083  0.00  0.00    -0.298 N 
ATOM      8  H   UNL     1       5.745   1.202  24.370  0.00  0.00    +0.150 HD
ATOM      9  C   UNL     1       7.421   1.796  25.409  0.00  0.00    +0.263 C 
ATOM     10  O   UNL     1       8.327   1.472  26.180  0.00  0.00    -0.269 OA
BRANCH   9  11
ATOM     11  C   UNL     1       7.465   3.091  24.692  0.00  0.00    +0.126 A 
ATOM     12  C   UNL     1       8.718   3.594  24.401  0.00  0.00    +0.033 A 
ATOM     13  C   UNL     1       8.825   4.757  23.659  0.00  0.00    +0.012 A 
ATOM     14  C   UNL     1       7.664   5.359  23.190  0.00  0.00    +0.000 A 
ATOM     15  C   UNL     1       6.412   4.793  23.535  0.00  0.00    +0.072 A 
ATOM     16  C   UNL     1       5.280   5.439  23.066  0.00  0.00    +0.028 A 
ATOM     17  C   UNL     1       5.358   6.571  22.250  0.00  0.00    +0.002 A 
ATOM     18  C   UNL     1       6.596   7.097  21.889  0.00  0.00    +0.001 A 
ATOM     19  C   UNL     1       7.751   6.494  22.366  0.00  0.00    +0.010 A 
ATOM     20  N   UNL     1       6.311   3.671  24.282  0.00  0.00    -0.242 NA
ENDBRANCH   9  11
ENDBRANCH   6   7
BRANCH   6  21
ATOM     21  C   UNL     1       4.917  -0.758  26.149  0.00  0.00    +0.127 C 
BRANCH  21  22
ATOM     22  C   UNL     1       4.229   0.439  26.748  0.00  0.00    +0.213 C 
ATOM     23  N   UNL     1       4.275   0.560  28.101  0.00  0.00    -0.329 N 
ATOM     24  H   UNL     1       3.786   1.341  28.511  0.00  0.00    +0.145 HD
ATOM     25  H   UNL     1       4.544  -0.207  28.708  0.00  0.00    +0.145 HD
ATOM     26  O   UNL     1       3.671   1.303  26.054  0.00  0.00    -0.276 OA
ENDBRANCH  21  22
ENDBRANCH   6  21
ENDBRANCH   4   6
ENDBRANCH   1   2
BRANCH   1  27
ATOM     27  C   UNL     1       8.840  -4.678  25.383  0.00  0.00    +0.149 C 
BRANCH  27  28
ATOM     28  O   UNL     1       9.403  -5.645  24.468  0.00  0.00    -0.389 OA
ATOM     29  H   UNL     1       8.725  -5.900  23.815  0.00  0.00    +0.210 HD
ENDBRANCH  27  28
BRANCH  27  30
ATOM     30  C   UNL     1       7.478  -5.294  26.027  0.00  0.00    +0.118 C 
BRANCH  30  32
ATOM     31  C   UNL     1       5.093  -4.353  26.024  0.00  0.00    +0.143 C 
ATOM     32  N   UNL     1       6.085  -5.287  25.418  0.00  0.00    -0.289 NA
ATOM     33  C   UNL     1       5.906  -5.540  23.994  0.00  0.00    +0.089 C 
ATOM     34  C   UNL     1       4.427  -5.861  23.569  0.00  0.00    +0.006 C 
ATOM     35  C   UNL     1       3.495  -4.692  23.898  0.00  0.00    -0.005 C 
ATOM     36  C   UNL     1       2.002  -5.036  23.649  0.00  0.00    +0.004 C 
ATOM     37  C   UNL     1       1.553  -6.292  24.388  0.00  0.00    +0.000 C 
ATOM     38  C   UNL     1       2.401  -7.472  23.945  0.00  0.00    +0.000 C 
ATOM     39  C   UNL     1       3.906  -7.214  24.096  0.00  0.00    +0.005 C 
ATOM     40  C   UNL     1       3.718  -4.127  25.307  0.00  0.00    +0.032 C 
BRANCH  31  43
ATOM     41  N   UNL     1       3.723  -5.775  27.567  0.00  0.00    -0.309 N 
ATOM     42  H   UNL     1       3.569  -6.306  26.719  0.00  0.00    +0.149 HD
ATOM     43  C   UNL     1       4.697  -4.794  27.472  0.00  0.00    +0.231 C 
ATOM     44  O   UNL     1       5.127  -4.183  28.450  0.00  0.00    -0.274 OA
BRANCH  41  46
ATOM     45  C   UNL     1       1.956  -7.237  28.526  0.00  0.00    +0.031 C 
ATOM     46  C   UNL     1       2.998  -6.139  28.807  0.00  0.00    +0.026 C 
ATOM     47  C   UNL     1       3.980  -6.705  29.846  0.00  0.00    +0.031 C 
ATOM     48  C   UNL     1       2.308  -4.923  29.446  0.00  0.00    +0.031 C 
ENDBRANCH  41  46
ENDBRANCH  31  43
ENDBRANCH  30  32
ENDBRANCH  27  30
ENDBRANCH   1  27
BRANCH   1  49
ATOM     49  C   UNL     1      10.030  -2.697  23.936  0.00  0.00    +0.060 C 
BRANCH  49  50
ATOM     50  C   UNL     1      10.050  -1.396  23.155  0.00  0.00    -0.046 A 
ATOM     51  C   UNL     1      10.499  -0.182  23.720  0.00  0.00    +0.004 A 
ATOM     52  C   UNL     1      10.306   1.037  23.055  0.00  0.00    +0.000 A 
ATOM     53  C   UNL     1       9.652   1.071  21.821  0.00  0.00    +0.000 A 
ATOM     54  C   UNL     1       9.221  -0.116  21.244  0.00  0.00    +0.000 A 
ATOM     55  C   UNL     1       9.424  -1.339  21.903  0.00  0.00    +0.004 A 
ENDBRANCH  49  50
ENDBRANCH   1  49
TORSDOF 14
ENDMDL
MODEL 5
REMARK VINA RESULT:      -6.7      2.484      8.051
REMARK  Name = 
REMARK  17 active torsions:
REMARK  status: ('A' for Active; 'I' for Inactive)
REMARK    1  A    between atoms: C_1  and  C_2
REMARK    2  A    between atoms: C_2  and  C_3
REMARK    3  A    between atoms: C_2  and  C_4
REMARK    4  A    between atoms: C_2  and  N_5
REMARK    5  A    between atoms: C_6  and  C_8
REMARK    6  A    between atoms: N_20  and  C_21
REMARK    7  A    between atoms: C_21  and  C_22
REMARK    8  A    between atoms: C_22  and  C_24
REMARK    9  A    between atoms: C_22  and  O_55
REMARK   10  A    between atoms: C_24  and  C_26
REMARK   11  A    between atoms: C_24  and  N_33
REMARK   12  A    between atoms: C_26  and  C_27
REMARK   13  A    between atoms: C_34  and  C_36
REMARK   14  A    between atoms: C_36  and  C_38
REMARK   15  A    between atoms: C_36  and  N_42
REMARK   16  A    between atoms: C_38  and  C_39
REMARK   17  A    between atoms: C_43  and  C_45
REMARK                            x       y       z     vdW  Elec       q    Type
REMARK                         _______ _______ _______ _____ _____    ______ ____
ROOT
ATOM      1  C   UNL     1       5.735   0.044  25.281  0.00  0.00    +0.107 C 
ENDROOT
BRANCH   1   2
ATOM      2  N   UNL     1       5.595   1.496  25.170  0.00  0.00    -0.308 N 
ATOM      3  H   UNL     1       6.425   2.068  25.225  0.00  0.00    +0.149 HD
ATOM      4  C   UNL     1       4.405   2.174  25.380  0.00  0.00    +0.234 C 
ATOM      5  O   UNL     1       3.377   1.627  25.781  0.00  0.00    -0.274 OA
BRANCH   4   6
ATOM      6  C   UNL     1       4.459   3.721  25.175  0.00  0.00    +0.168 C 
BRANCH   6   7
ATOM      7  N   UNL     1       5.793   4.184  24.775  0.00  0.00    -0.298 N 
ATOM      8  H   UNL     1       6.207   3.901  23.890  0.00  0.00    +0.150 HD
ATOM      9  C   UNL     1       6.542   4.984  25.608  0.00  0.00    +0.263 C 
ATOM     10  O   UNL     1       6.151   5.272  26.742  0.00  0.00    -0.269 OA
BRANCH   9  11
ATOM     11  C   UNL     1       7.899   5.370  25.157  0.00  0.00    +0.126 A 
ATOM     12  C   UNL     1       8.345   6.621  25.537  0.00  0.00    +0.033 A 
ATOM     13  C   UNL     1       9.635   7.005  25.219  0.00  0.00    +0.012 A 
ATOM     14  C   UNL     1      10.459   6.099  24.563  0.00  0.00    +0.000 A 
ATOM     15  C   UNL     1       9.932   4.836  24.196  0.00  0.00    +0.072 A 
ATOM     16  C   UNL     1      10.782   3.974  23.523  0.00  0.00    +0.028 A 
ATOM     17  C   UNL     1      12.113   4.303  23.256  0.00  0.00    +0.002 A 
ATOM     18  C   UNL     1      12.629   5.534  23.654  0.00  0.00    +0.001 A 
ATOM     19  C   UNL     1      11.798   6.437  24.302  0.00  0.00    +0.010 A 
ATOM     20  N   UNL     1       8.663   4.474  24.485  0.00  0.00    -0.242 NA
ENDBRANCH   9  11
ENDBRANCH   6   7
BRANCH   6  21
ATOM     21  C   UNL     1       3.377   4.142  24.194  0.00  0.00    +0.127 C 
BRANCH  21  22
ATOM     22  C   UNL     1       3.646   3.569  22.828  0.00  0.00    +0.213 C 
ATOM     23  N   UNL     1       2.626   2.895  22.233  0.00  0.00    -0.329 N 
ATOM     24  H   UNL     1       2.811   2.478  21.334  0.00  0.00    +0.145 HD
ATOM     25  H   UNL     1       1.808   2.583  22.746  0.00  0.00    +0.145 HD
ATOM     26  O   UNL     1       4.729   3.722  22.242  0.00  0.00    -0.276 OA
ENDBRANCH  21  22
ENDBRANCH   6  21
ENDBRANCH   4   6
ENDBRANCH   1   2
BRANCH   1  27
ATOM     27  C   UNL     1       6.328  -0.482  26.700  0.00  0.00    +0.149 C 
BRANCH  27  28
ATOM     28  O   UNL     1       7.655  -0.995  26.443  0.00  0.00    -0.389 OA
ATOM     29  H   UNL     1       7.618  -1.967  26.389  0.00  0.00    +0.210 HD
ENDBRANCH  27  28
BRANCH  27  30
ATOM     30  C   UNL     1       5.464  -1.626  27.472  0.00  0.00    +0.118 C 
BRANCH  30  32
ATOM     31  C   UNL     1       5.738  -4.163  27.229  0.00  0.00    +0.143 C 
ATOM     32  N   UNL     1       4.953  -2.938  26.901  0.00  0.00    -0.289 NA
ATOM     33  C   UNL     1       3.523  -3.152  26.720  0.00  0.00    +0.089 C 
ATOM     34  C   UNL     1       3.157  -4.375  25.802  0.00  0.00    +0.006 C 
ATOM     35  C   UNL     1       3.695  -5.683  26.390  0.00  0.00    -0.005 C 
ATOM     36  C   UNL     1       3.501  -6.888  25.431  0.00  0.00    +0.004 C 
ATOM     37  C   UNL     1       4.098  -6.646  24.050  0.00  0.00    +0.000 C 
ATOM     38  C   UNL     1       3.452  -5.422  23.424  0.00  0.00    +0.000 C 
ATOM     39  C   UNL     1       3.536  -4.180  24.320  0.00  0.00    +0.005 C 
ATOM     40  C   UNL     1       5.148  -5.569  26.870  0.00  0.00    +0.032 C 
BRANCH  31  43
ATOM     41  N   UNL     1       7.143  -3.891  25.172  0.00  0.00    -0.309 N 
ATOM     42  H   UNL     1       6.298  -3.459  24.819  0.00  0.00    +0.149 HD
ATOM     43  C   UNL     1       7.139  -4.151  26.533  0.00  0.00    +0.231 C 
ATOM     44  O   UNL     1       8.145  -4.508  27.147  0.00  0.00    -0.274 OA
BRANCH  41  46
ATOM     45  C   UNL     1       8.733  -5.582  24.283  0.00  0.00    +0.031 C 
ATOM     46  C   UNL     1       8.295  -4.106  24.266  0.00  0.00    +0.026 C 
ATOM     47  C   UNL     1       7.900  -3.770  22.819  0.00  0.00    +0.031 C 
ATOM     48  C   UNL     1       9.489  -3.209  24.634  0.00  0.00    +0.031 C 
ENDBRANCH  41  46
ENDBRANCH  31  43
ENDBRANCH  30  32
ENDBRANCH  27  30
ENDBRANCH   1  27
BRANCH   1  49
ATOM     49  C   UNL     1       6.455  -0.511  23.977  0.00  0.00    +0.060 C 
BRANCH  49  50
ATOM     50  C   UNL     1       7.503   0.296  23.233  0.00  0.00    -0.046 A 
ATOM     51  C   UNL     1       7.164   1.338  22.343  0.00  0.00    +0.004 A 
ATOM     52  C   UNL     1       8.132   1.918  21.510  0.00  0.00    +0.000 A 
ATOM     53  C   UNL     1       9.452   1.464  21.541  0.00  0.00    +0.000 A 
ATOM     54  C   UNL     1       9.805   0.452  22.424  0.00  0.00    +0.000 A 
ATOM     55  C   UNL     1       8.840  -0.122  23.267  0.00  0.00    +0.004 A 
ENDBRANCH  49  50
ENDBRANCH   1  49
TORSDOF 14
ENDMDL
MODEL 6
REMARK VINA RESULT:      -6.5      2.203      7.637
REMARK  Name = 
REMARK  17 active torsions:
REMARK  status: ('A' for Active; 'I' for Inactive)
REMARK    1  A    between atoms: C_1  and  C_2
REMARK    2  A    between atoms: C_2  and  C_3
REMARK    3  A    between atoms: C_2  and  C_4
REMARK    4  A    between atoms: C_2  and  N_5
REMARK    5  A    between atoms: C_6  and  C_8
REMARK    6  A    between atoms: N_20  and  C_21
REMARK    7  A    between atoms: C_21  and  C_22
REMARK    8  A    between atoms: C_22  and  C_24
REMARK    9  A    between atoms: C_22  and  O_55
REMARK   10  A    between atoms: C_24  and  C_26
REMARK   11  A    between atoms: C_24  and  N_33
REMARK   12  A    between atoms: C_26  and  C_27
REMARK   13  A    between atoms: C_34  and  C_36
REMARK   14  A    between atoms: C_36  and  C_38
REMARK   15  A    between atoms: C_36  and  N_42
REMARK   16  A    between atoms: C_38  and  C_39
REMARK   17  A    between atoms: C_43  and  C_45
REMARK                            x       y       z     vdW  Elec       q    Type
REMARK                         _______ _______ _______ _____ _____    ______ ____
ROOT
ATOM      1  C   UNL     1       7.484  -3.241  24.120  0.00  0.00    +0.107 C 
ENDROOT
BRANCH   1   2
ATOM      2  N   UNL     1       6.991  -2.119  24.919  0.00  0.00    -0.308 N 
ATOM      3  H   UNL     1       7.658  -1.554  25.424  0.00  0.00    +0.149 HD
ATOM      4  C   UNL     1       5.679  -1.997  25.347  0.00  0.00    +0.234 C 
ATOM      5  O   UNL     1       4.830  -2.873  25.184  0.00  0.00    -0.274 OA
BRANCH   4   6
ATOM      6  C   UNL     1       5.348  -0.703  26.156  0.00  0.00    +0.168 C 
BRANCH   6   7
ATOM      7  N   UNL     1       5.672   0.520  25.412  0.00  0.00    -0.298 N 
ATOM      8  H   UNL     1       5.003   0.941  24.773  0.00  0.00    +0.150 HD
ATOM      9  C   UNL     1       6.911   1.108  25.527  0.00  0.00    +0.263 C 
ATOM     10  O   UNL     1       7.808   0.588  26.195  0.00  0.00    -0.269 OA
BRANCH   9  11
ATOM     11  C   UNL     1       7.182   2.312  24.706  0.00  0.00    +0.126 A 
ATOM     12  C   UNL     1       6.353   2.519  23.621  0.00  0.00    +0.033 A 
ATOM     13  C   UNL     1       6.502   3.669  22.867  0.00  0.00    +0.012 A 
ATOM     14  C   UNL     1       7.455   4.603  23.253  0.00  0.00    +0.000 A 
ATOM     15  C   UNL     1       8.277   4.320  24.372  0.00  0.00    +0.072 A 
ATOM     16  C   UNL     1       9.229   5.268  24.707  0.00  0.00    +0.028 A 
ATOM     17  C   UNL     1       9.351   6.473  24.011  0.00  0.00    +0.002 A 
ATOM     18  C   UNL     1       8.513   6.755  22.935  0.00  0.00    +0.001 A 
ATOM     19  C   UNL     1       7.568   5.815  22.551  0.00  0.00    +0.010 A 
ATOM     20  N   UNL     1       8.146   3.183  25.091  0.00  0.00    -0.242 NA
ENDBRANCH   9  11
ENDBRANCH   6   7
BRANCH   6  21
ATOM     21  C   UNL     1       3.896  -0.743  26.608  0.00  0.00    +0.127 C 
BRANCH  21  22
ATOM     22  C   UNL     1       3.435   0.625  27.035  0.00  0.00    +0.213 C 
ATOM     23  N   UNL     1       3.583   0.941  28.348  0.00  0.00    -0.329 N 
ATOM     24  H   UNL     1       3.244   1.843  28.647  0.00  0.00    +0.145 HD
ATOM     25  H   UNL     1       3.771   0.241  29.059  0.00  0.00    +0.145 HD
ATOM     26  O   UNL     1       2.971   1.451  26.234  0.00  0.00    -0.276 OA
ENDBRANCH  21  22
ENDBRANCH   6  21
ENDBRANCH   4   6
ENDBRANCH   1   2
BRANCH   1  27
ATOM     27  C   UNL     1       8.033  -4.507  24.981  0.00  0.00    +0.149 C 
BRANCH  27  28
ATOM     28  O   UNL     1       9.090  -5.121  24.208  0.00  0.00    -0.389 OA
ATOM     29  H   UNL     1       9.334  -4.529  23.473  0.00  0.00    +0.210 HD
ENDBRANCH  27  28
BRANCH  27  30
ATOM     30  C   UNL     1       6.941  -5.647  25.376  0.00  0.00    +0.118 C 
BRANCH  30  32
ATOM     31  C   UNL     1       5.022  -6.770  26.654  0.00  0.00    +0.143 C 
ATOM     32  N   UNL     1       6.017  -5.661  26.583  0.00  0.00    -0.289 NA
ATOM     33  C   UNL     1       6.487  -5.170  27.872  0.00  0.00    +0.089 C 
ATOM     34  C   UNL     1       5.349  -4.903  28.923  0.00  0.00    +0.006 C 
ATOM     35  C   UNL     1       4.574  -6.186  29.232  0.00  0.00    -0.005 C 
ATOM     36  C   UNL     1       3.338  -5.930  30.135  0.00  0.00    +0.004 C 
ATOM     37  C   UNL     1       2.400  -4.872  29.566  0.00  0.00    +0.000 C 
ATOM     38  C   UNL     1       3.152  -3.564  29.396  0.00  0.00    +0.000 C 
ATOM     39  C   UNL     1       4.432  -3.717  28.562  0.00  0.00    +0.005 C 
ATOM     40  C   UNL     1       4.200  -6.977  27.971  0.00  0.00    +0.032 C 
BRANCH  31  43
ATOM     41  N   UNL     1       3.193  -5.460  25.551  0.00  0.00    -0.309 N 
ATOM     42  H   UNL     1       3.609  -4.700  26.073  0.00  0.00    +0.149 HD
ATOM     43  C   UNL     1       3.930  -6.633  25.542  0.00  0.00    +0.231 C 
ATOM     44  O   UNL     1       3.656  -7.589  24.815  0.00  0.00    -0.274 OA
BRANCH  41  46
ATOM     45  C   UNL     1       2.187  -5.387  23.279  0.00  0.00    +0.031 C 
ATOM     46  C   UNL     1       1.941  -5.234  24.791  0.00  0.00    +0.026 C 
ATOM     47  C   UNL     1       0.887  -6.281  25.185  0.00  0.00    +0.031 C 
ATOM     48  C   UNL     1       1.338  -3.849  25.078  0.00  0.00    +0.031 C 
ENDBRANCH  41  46
ENDBRANCH  31  43
ENDBRANCH  30  32
ENDBRANCH  27  30
ENDBRANCH   1  27
BRANCH   1  49
ATOM     49  C   UNL     1       8.461  -2.689  22.994  0.00  0.00    +0.060 C 
BRANCH  49  50
ATOM     50  C   UNL     1       8.948  -1.252  22.985  0.00  0.00    -0.046 A 
ATOM     51  C   UNL     1       8.569  -0.331  21.985  0.00  0.00    +0.004 A 
ATOM     52  C   UNL     1       9.198   0.917  21.878  0.00  0.00    +0.000 A 
ATOM     53  C   UNL     1      10.223   1.267  22.760  0.00  0.00    +0.000 A 
ATOM     54  C   UNL     1      10.595   0.379  23.760  0.00  0.00    +0.000 A 
ATOM     55  C   UNL     1       9.958  -0.866  23.876  0.00  0.00    +0.004 A 
ENDBRANCH  49  50
ENDBRANCH   1  49
TORSDOF 14
ENDMDL
MODEL 7
REMARK VINA RESULT:      -6.5      2.188      9.432
REMARK  Name = 
REMARK  17 active torsions:
REMARK  status: ('A' for Active; 'I' for Inactive)
REMARK    1  A    between atoms: C_1  and  C_2
REMARK    2  A    between atoms: C_2  and  C_3
REMARK    3  A    between atoms: C_2  and  C_4
REMARK    4  A    between atoms: C_2  and  N_5
REMARK    5  A    between atoms: C_6  and  C_8
REMARK    6  A    between atoms: N_20  and  C_21
REMARK    7  A    between atoms: C_21  and  C_22
REMARK    8  A    between atoms: C_22  and  C_24
REMARK    9  A    between atoms: C_22  and  O_55
REMARK   10  A    between atoms: C_24  and  C_26
REMARK   11  A    between atoms: C_24  and  N_33
REMARK   12  A    between atoms: C_26  and  C_27
REMARK   13  A    between atoms: C_34  and  C_36
REMARK   14  A    between atoms: C_36  and  C_38
REMARK   15  A    between atoms: C_36  and  N_42
REMARK   16  A    between atoms: C_38  and  C_39
REMARK   17  A    between atoms: C_43  and  C_45
REMARK                            x       y       z     vdW  Elec       q    Type
REMARK                         _______ _______ _______ _____ _____    ______ ____
ROOT
ATOM      1  C   UNL     1       5.429  -2.629  27.050  0.00  0.00    +0.107 C 
ENDROOT
BRANCH   1   2
ATOM      2  N   UNL     1       5.659  -1.272  27.544  0.00  0.00    -0.308 N 
ATOM      3  H   UNL     1       6.544  -0.829  27.345  0.00  0.00    +0.149 HD
ATOM      4  C   UNL     1       4.934  -0.694  28.573  0.00  0.00    +0.234 C 
ATOM      5  O   UNL     1       4.096  -1.305  29.237  0.00  0.00    -0.274 OA
BRANCH   4   6
ATOM      6  C   UNL     1       5.311   0.781  28.924  0.00  0.00    +0.168 C 
BRANCH   6   7
ATOM      7  N   UNL     1       5.533   1.601  27.727  0.00  0.00    -0.298 N 
ATOM      8  H   UNL     1       4.991   1.452  26.879  0.00  0.00    +0.150 HD
ATOM      9  C   UNL     1       6.512   2.568  27.705  0.00  0.00    +0.263 C 
ATOM     10  O   UNL     1       7.280   2.724  28.657  0.00  0.00    -0.269 OA
BRANCH   9  11
ATOM     11  C   UNL     1       6.709   3.321  26.444  0.00  0.00    +0.126 A 
ATOM     12  C   UNL     1       5.586   3.533  25.668  0.00  0.00    +0.033 A 
ATOM     13  C   UNL     1       5.691   4.301  24.523  0.00  0.00    +0.012 A 
ATOM     14  C   UNL     1       6.919   4.874  24.212  0.00  0.00    +0.000 A 
ATOM     15  C   UNL     1       8.030   4.606  25.049  0.00  0.00    +0.072 A 
ATOM     16  C   UNL     1       9.239   5.178  24.689  0.00  0.00    +0.028 A 
ATOM     17  C   UNL     1       9.358   6.021  23.581  0.00  0.00    +0.002 A 
ATOM     18  C   UNL     1       8.250   6.305  22.787  0.00  0.00    +0.001 A 
ATOM     19  C   UNL     1       7.029   5.724  23.099  0.00  0.00    +0.010 A 
ATOM     20  N   UNL     1       7.930   3.834  26.153  0.00  0.00    -0.242 NA
ENDBRANCH   9  11
ENDBRANCH   6   7
BRANCH   6  21
ATOM     21  C   UNL     1       4.257   1.370  29.848  0.00  0.00    +0.127 C 
BRANCH  21  22
ATOM     22  C   UNL     1       3.100   1.913  29.054  0.00  0.00    +0.213 C 
ATOM     23  N   UNL     1       1.995   1.127  28.961  0.00  0.00    -0.329 N 
ATOM     24  H   UNL     1       1.229   1.470  28.402  0.00  0.00    +0.145 HD
ATOM     25  H   UNL     1       2.007   0.141  29.202  0.00  0.00    +0.145 HD
ATOM     26  O   UNL     1       3.121   3.038  28.530  0.00  0.00    -0.276 OA
ENDBRANCH  21  22
ENDBRANCH   6  21
ENDBRANCH   4   6
ENDBRANCH   1   2
BRANCH   1  27
ATOM     27  C   UNL     1       6.750  -3.386  26.480  0.00  0.00    +0.149 C 
BRANCH  27  28
ATOM     28  O   UNL     1       7.191  -4.303  27.508  0.00  0.00    -0.389 OA
ATOM     29  H   UNL     1       8.048  -4.687  27.248  0.00  0.00    +0.210 HD
ENDBRANCH  27  28
BRANCH  27  30
ATOM     30  C   UNL     1       8.003  -2.440  26.049  0.00  0.00    +0.118 C 
BRANCH  30  32
ATOM     31  C   UNL     1       6.898  -1.302  24.035  0.00  0.00    +0.143 C 
ATOM     32  N   UNL     1       7.994  -1.298  25.046  0.00  0.00    -0.289 NA
ATOM     33  C   UNL     1       8.470   0.023  25.435  0.00  0.00    +0.089 C 
ATOM     34  C   UNL     1       8.746   0.998  24.233  0.00  0.00    +0.006 C 
ATOM     35  C   UNL     1       7.471   1.245  23.422  0.00  0.00    -0.005 C 
ATOM     36  C   UNL     1       7.738   2.065  22.132  0.00  0.00    +0.004 C 
ATOM     37  C   UNL     1       8.812   1.443  21.248  0.00  0.00    +0.000 C 
ATOM     38  C   UNL     1      10.111   1.333  22.027  0.00  0.00    +0.000 C 
ATOM     39  C   UNL     1       9.946   0.585  23.357  0.00  0.00    +0.005 C 
ATOM     40  C   UNL     1       6.694  -0.044  23.124  0.00  0.00    +0.032 C 
BRANCH  31  43
ATOM     41  N   UNL     1       6.100  -3.484  23.094  0.00  0.00    -0.309 N 
ATOM     42  H   UNL     1       5.251  -3.226  23.581  0.00  0.00    +0.149 HD
ATOM     43  C   UNL     1       7.057  -2.483  23.021  0.00  0.00    +0.231 C 
ATOM     44  O   UNL     1       8.064  -2.572  22.319  0.00  0.00    -0.274 OA
BRANCH  41  46
ATOM     45  C   UNL     1       7.500  -5.525  22.870  0.00  0.00    +0.031 C 
ATOM     46  C   UNL     1       6.204  -4.811  22.445  0.00  0.00    +0.026 C 
ATOM     47  C   UNL     1       5.032  -5.706  22.880  0.00  0.00    +0.031 C 
ATOM     48  C   UNL     1       6.153  -4.705  20.911  0.00  0.00    +0.031 C 
ENDBRANCH  41  46
ENDBRANCH  31  43
ENDBRANCH  30  32
ENDBRANCH  27  30
ENDBRANCH   1  27
BRANCH   1  49
ATOM     49  C   UNL     1       4.161  -2.626  26.090  0.00  0.00    +0.060 C 
BRANCH  49  50
ATOM     50  C   UNL     1       3.300  -3.860  25.892  0.00  0.00    -0.046 A 
ATOM     51  C   UNL     1       3.551  -5.073  26.568  0.00  0.00    +0.004 A 
ATOM     52  C   UNL     1       2.881  -6.251  26.208  0.00  0.00    +0.000 A 
ATOM     53  C   UNL     1       1.957  -6.244  25.161  0.00  0.00    +0.000 A 
ATOM     54  C   UNL     1       1.686  -5.054  24.498  0.00  0.00    +0.000 A 
ATOM     55  C   UNL     1       2.347  -3.872  24.865  0.00  0.00    +0.004 A 
ENDBRANCH  49  50
ENDBRANCH   1  49
TORSDOF 14
ENDMDL
MODEL 8
REMARK VINA RESULT:      -6.4      3.039      7.237
REMARK  Name = 
REMARK  17 active torsions:
REMARK  status: ('A' for Active; 'I' for Inactive)
REMARK    1  A    between atoms: C_1  and  C_2
REMARK    2  A    between atoms: C_2  and  C_3
REMARK    3  A    between atoms: C_2  and  C_4
REMARK    4  A    between atoms: C_2  and  N_5
REMARK    5  A    between atoms: C_6  and  C_8
REMARK    6  A    between atoms: N_20  and  C_21
REMARK    7  A    between atoms: C_21  and  C_22
REMARK    8  A    between atoms: C_22  and  C_24
REMARK    9  A    between atoms: C_22  and  O_55
REMARK   10  A    between atoms: C_24  and  C_26
REMARK   11  A    between atoms: C_24  and  N_33
REMARK   12  A    between atoms: C_26  and  C_27
REMARK   13  A    between atoms: C_34  and  C_36
REMARK   14  A    between atoms: C_36  and  C_38
REMARK   15  A    between atoms: C_36  and  N_42
REMARK   16  A    between atoms: C_38  and  C_39
REMARK   17  A    between atoms: C_43  and  C_45
REMARK                            x       y       z     vdW  Elec       q    Type
REMARK                         _______ _______ _______ _____ _____    ______ ____
ROOT
ATOM      1  C   UNL     1       8.749  -2.570  24.054  0.00  0.00    +0.107 C 
ENDROOT
BRANCH   1   2
ATOM      2  N   UNL     1       8.117  -1.536  24.873  0.00  0.00    -0.308 N 
ATOM      3  H   UNL     1       8.268  -1.549  25.871  0.00  0.00    +0.149 HD
ATOM      4  C   UNL     1       7.034  -0.778  24.456  0.00  0.00    +0.234 C 
ATOM      5  O   UNL     1       6.437  -0.977  23.398  0.00  0.00    -0.274 OA
BRANCH   4   6
ATOM      6  C   UNL     1       6.533   0.302  25.466  0.00  0.00    +0.168 C 
BRANCH   6   7
ATOM      7  N   UNL     1       5.651   1.290  24.835  0.00  0.00    -0.298 N 
ATOM      8  H   UNL     1       4.696   1.055  24.575  0.00  0.00    +0.150 HD
ATOM      9  C   UNL     1       6.106   2.555  24.537  0.00  0.00    +0.263 C 
ATOM     10  O   UNL     1       7.284   2.871  24.720  0.00  0.00    -0.269 OA
BRANCH   9  11
ATOM     11  C   UNL     1       5.172   3.481  23.854  0.00  0.00    +0.126 A 
ATOM     12  C   UNL     1       5.343   4.828  24.106  0.00  0.00    +0.033 A 
ATOM     13  C   UNL     1       4.558   5.747  23.433  0.00  0.00    +0.012 A 
ATOM     14  C   UNL     1       3.649   5.285  22.489  0.00  0.00    +0.000 A 
ATOM     15  C   UNL     1       3.521   3.888  22.289  0.00  0.00    +0.072 A 
ATOM     16  C   UNL     1       2.587   3.471  21.355  0.00  0.00    +0.028 A 
ATOM     17  C   UNL     1       1.834   4.378  20.605  0.00  0.00    +0.002 A 
ATOM     18  C   UNL     1       1.995   5.749  20.786  0.00  0.00    +0.001 A 
ATOM     19  C   UNL     1       2.899   6.203  21.735  0.00  0.00    +0.010 A 
ATOM     20  N   UNL     1       4.272   2.992  22.967  0.00  0.00    -0.242 NA
ENDBRANCH   9  11
ENDBRANCH   6   7
BRANCH   6  21
ATOM     21  C   UNL     1       5.885  -0.380  26.660  0.00  0.00    +0.127 C 
BRANCH  21  22
ATOM     22  C   UNL     1       6.250   0.327  27.938  0.00  0.00    +0.213 C 
ATOM     23  N   UNL     1       7.513   0.820  28.029  0.00  0.00    -0.329 N 
ATOM     24  H   UNL     1       7.774   1.264  28.896  0.00  0.00    +0.145 HD
ATOM     25  H   UNL     1       8.252   0.542  27.392  0.00  0.00    +0.145 HD
ATOM     26  O   UNL     1       5.438   0.492  28.863  0.00  0.00    -0.276 OA
ENDBRANCH  21  22
ENDBRANCH   6  21
ENDBRANCH   4   6
ENDBRANCH   1   2
BRANCH   1  27
ATOM     27  C   UNL     1       8.861  -4.031  24.760  0.00  0.00    +0.149 C 
BRANCH  27  28
ATOM     28  O   UNL     1      10.221  -4.487  24.579  0.00  0.00    -0.389 OA
ATOM     29  H   UNL     1      10.719  -4.346  25.405  0.00  0.00    +0.210 HD
ENDBRANCH  27  28
BRANCH  27  30
ATOM     30  C   UNL     1       7.844  -5.182  24.220  0.00  0.00    +0.118 C 
BRANCH  30  32
ATOM     31  C   UNL     1       5.683  -4.155  25.139  0.00  0.00    +0.143 C 
ATOM     32  N   UNL     1       6.325  -5.151  24.234  0.00  0.00    -0.289 NA
ATOM     33  C   UNL     1       5.574  -5.460  23.024  0.00  0.00    +0.089 C 
ATOM     34  C   UNL     1       4.046  -5.746  23.259  0.00  0.00    +0.006 C 
ATOM     35  C   UNL     1       3.348  -4.529  23.874  0.00  0.00    -0.005 C 
ATOM     36  C   UNL     1       1.879  -4.828  24.276  0.00  0.00    +0.004 C 
ATOM     37  C   UNL     1       1.754  -6.032  25.203  0.00  0.00    +0.000 C 
ATOM     38  C   UNL     1       2.327  -7.262  24.520  0.00  0.00    +0.000 C 
ATOM     39  C   UNL     1       3.766  -7.053  24.027  0.00  0.00    +0.005 C 
ATOM     40  C   UNL     1       4.138  -3.910  25.034  0.00  0.00    +0.032 C 
BRANCH  31  43
ATOM     41  N   UNL     1       5.082  -5.497  27.168  0.00  0.00    -0.309 N 
ATOM     42  H   UNL     1       4.621  -6.077  26.479  0.00  0.00    +0.149 HD
ATOM     43  C   UNL     1       5.909  -4.515  26.644  0.00  0.00    +0.231 C 
ATOM     44  O   UNL     1       6.673  -3.845  27.339  0.00  0.00    -0.274 OA
BRANCH  41  46
ATOM     45  C   UNL     1       4.535  -4.525  29.389  0.00  0.00    +0.031 C 
ATOM     46  C   UNL     1       4.922  -5.795  28.610  0.00  0.00    +0.026 C 
ATOM     47  C   UNL     1       3.788  -6.814  28.817  0.00  0.00    +0.031 C 
ATOM     48  C   UNL     1       6.198  -6.404  29.215  0.00  0.00    +0.031 C 
ENDBRANCH  41  46
ENDBRANCH  31  43
ENDBRANCH  30  32
ENDBRANCH  27  30
ENDBRANCH   1  27
BRANCH   1  49
ATOM     49  C   UNL     1      10.093  -1.994  23.431  0.00  0.00    +0.060 C 
BRANCH  49  50
ATOM     50  C   UNL     1      10.277  -0.514  23.148  0.00  0.00    -0.046 A 
ATOM     51  C   UNL     1      10.780   0.383  24.115  0.00  0.00    +0.004 A 
ATOM     52  C   UNL     1      10.737   1.768  23.903  0.00  0.00    +0.000 A 
ATOM     53  C   UNL     1      10.183   2.285  22.730  0.00  0.00    +0.000 A 
ATOM     54  C   UNL     1       9.701   1.415  21.762  0.00  0.00    +0.000 A 
ATOM     55  C   UNL     1       9.754   0.027  21.967  0.00  0.00    +0.004 A 
ENDBRANCH  49  50
ENDBRANCH   1  49
TORSDOF 14
ENDMDL
MODEL 9
REMARK VINA RESULT:      -6.4      2.472      3.903
REMARK  Name = 
REMARK  17 active torsions:
REMARK  status: ('A' for Active; 'I' for Inactive)
REMARK    1  A    between atoms: C_1  and  C_2
REMARK    2  A    between atoms: C_2  and  C_3
REMARK    3  A    between atoms: C_2  and  C_4
REMARK    4  A    between atoms: C_2  and  N_5
REMARK    5  A    between atoms: C_6  and  C_8
REMARK    6  A    between atoms: N_20  and  C_21
REMARK    7  A    between atoms: C_21  and  C_22
REMARK    8  A    between atoms: C_22  and  C_24
REMARK    9  A    between atoms: C_22  and  O_55
REMARK   10  A    between atoms: C_24  and  C_26
REMARK   11  A    between atoms: C_24  and  N_33
REMARK   12  A    between atoms: C_26  and  C_27
REMARK   13  A    between atoms: C_34  and  C_36
REMARK   14  A    between atoms: C_36  and  C_38
REMARK   15  A    between atoms: C_36  and  N_42
REMARK   16  A    between atoms: C_38  and  C_39
REMARK   17  A    between atoms: C_43  and  C_45
REMARK                            x       y       z     vdW  Elec       q    Type
REMARK                         _______ _______ _______ _____ _____    ______ ____
ROOT
ATOM      1  C   UNL     1       8.360   1.603  24.863  0.00  0.00    +0.107 C 
ENDROOT
BRANCH   1   2
ATOM      2  N   UNL     1       8.681   0.212  24.544  0.00  0.00    -0.308 N 
ATOM      3  H   UNL     1       7.941  -0.474  24.570  0.00  0.00    +0.149 HD
ATOM      4  C   UNL     1       9.964  -0.311  24.587  0.00  0.00    +0.234 C 
ATOM      5  O   UNL     1      10.938   0.321  24.997  0.00  0.00    -0.274 OA
BRANCH   4   6
ATOM      6  C   UNL     1      10.099  -1.810  24.172  0.00  0.00    +0.168 C 
BRANCH   6   7
ATOM      7  N   UNL     1       8.960  -2.619  24.623  0.00  0.00    -0.298 N 
ATOM      8  H   UNL     1       8.056  -2.195  24.815  0.00  0.00    +0.150 HD
ATOM      9  C   UNL     1       9.097  -3.972  24.841  0.00  0.00    +0.263 C 
ATOM     10  O   UNL     1      10.193  -4.529  24.739  0.00  0.00    -0.269 OA
BRANCH   9  11
ATOM     11  C   UNL     1       7.917  -4.712  25.344  0.00  0.00    +0.126 A 
ATOM     12  C   UNL     1       7.761  -4.769  26.715  0.00  0.00    +0.033 A 
ATOM     13  C   UNL     1       6.634  -5.373  27.243  0.00  0.00    +0.012 A 
ATOM     14  C   UNL     1       5.670  -5.866  26.372  0.00  0.00    +0.000 A 
ATOM     15  C   UNL     1       5.900  -5.780  24.977  0.00  0.00    +0.072 A 
ATOM     16  C   UNL     1       4.924  -6.305  24.147  0.00  0.00    +0.028 A 
ATOM     17  C   UNL     1       3.740  -6.851  24.648  0.00  0.00    +0.002 A 
ATOM     18  C   UNL     1       3.509  -6.896  26.021  0.00  0.00    +0.001 A 
ATOM     19  C   UNL     1       4.480  -6.409  26.885  0.00  0.00    +0.010 A 
ATOM     20  N   UNL     1       7.015  -5.213  24.465  0.00  0.00    -0.242 NA
ENDBRANCH   9  11
ENDBRANCH   6   7
BRANCH   6  21
ATOM     21  C   UNL     1      10.323  -1.905  22.672  0.00  0.00    +0.127 C 
BRANCH  21  22
ATOM     22  C   UNL     1       9.147  -1.340  21.922  0.00  0.00    +0.213 C 
ATOM     23  N   UNL     1       9.399  -0.314  21.066  0.00  0.00    -0.329 N 
ATOM     24  H   UNL     1       8.610   0.092  20.587  0.00  0.00    +0.145 HD
ATOM     25  H   UNL     1      10.268   0.209  21.085  0.00  0.00    +0.145 HD
ATOM     26  O   UNL     1       8.000  -1.797  22.040  0.00  0.00    -0.276 OA
ENDBRANCH  21  22
ENDBRANCH   6  21
ENDBRANCH   4   6
ENDBRANCH   1   2
BRANCH   1  27
ATOM     27  C   UNL     1       6.860   1.845  25.444  0.00  0.00    +0.149 C 
BRANCH  27  28
ATOM     28  O   UNL     1       6.685   0.941  26.559  0.00  0.00    -0.389 OA
ATOM     29  H   UNL     1       6.492   0.048  26.220  0.00  0.00    +0.210 HD
ENDBRANCH  27  28
BRANCH  27  30
ATOM     30  C   UNL     1       5.630   1.633  24.398  0.00  0.00    +0.118 C 
BRANCH  30  32
ATOM     31  C   UNL     1       3.999   3.482  25.097  0.00  0.00    +0.143 C 
ATOM     32  N   UNL     1       4.571   2.648  24.002  0.00  0.00    -0.289 NA
ATOM     33  C   UNL     1       4.627   3.295  22.697  0.00  0.00    +0.089 C 
ATOM     34  C   UNL     1       3.303   4.030  22.276  0.00  0.00    +0.006 C 
ATOM     35  C   UNL     1       2.952   5.141  23.269  0.00  0.00    -0.005 C 
ATOM     36  C   UNL     1       1.565   5.777  22.981  0.00  0.00    +0.004 C 
ATOM     37  C   UNL     1       0.443   4.747  22.924  0.00  0.00    +0.000 C 
ATOM     38  C   UNL     1       0.742   3.730  21.837  0.00  0.00    +0.000 C 
ATOM     39  C   UNL     1       2.123   3.078  21.994  0.00  0.00    +0.005 C 
ATOM     40  C   UNL     1       3.079   4.697  24.732  0.00  0.00    +0.032 C 
BRANCH  31  43
ATOM     41  N   UNL     1       3.694   2.345  27.309  0.00  0.00    -0.309 N 
ATOM     42  H   UNL     1       4.470   2.941  27.567  0.00  0.00    +0.149 HD
ATOM     43  C   UNL     1       3.128   2.627  26.076  0.00  0.00    +0.231 C 
ATOM     44  O   UNL     1       2.075   2.118  25.692  0.00  0.00    -0.274 OA
BRANCH  41  46
ATOM     45  C   UNL     1       2.963  -0.016  27.567  0.00  0.00    +0.031 C 
ATOM     46  C   UNL     1       3.188   1.336  28.268  0.00  0.00    +0.026 C 
ATOM     47  C   UNL     1       4.221   1.100  29.382  0.00  0.00    +0.031 C 
ATOM     48  C   UNL     1       1.883   1.790  28.944  0.00  0.00    +0.031 C 
ENDBRANCH  41  46
ENDBRANCH  31  43
ENDBRANCH  30  32
ENDBRANCH  27  30
ENDBRANCH   1  27
BRANCH   1  49
ATOM     49  C   UNL     1       8.793   2.530  23.647  0.00  0.00    +0.060 C 
BRANCH  49  50
ATOM     50  C   UNL     1       9.814   3.641  23.807  0.00  0.00    -0.046 A 
ATOM     51  C   UNL     1       9.448   4.961  24.147  0.00  0.00    +0.004 A 
ATOM     52  C   UNL     1      10.378   6.008  24.077  0.00  0.00    +0.000 A 
ATOM     53  C   UNL     1      11.687   5.761  23.656  0.00  0.00    +0.000 A 
ATOM     54  C   UNL     1      12.067   4.465  23.335  0.00  0.00    +0.000 A 
ATOM     55  C   UNL     1      11.140   3.413  23.416  0.00  0.00    +0.004 A 
ENDBRANCH  49  50
ENDBRANCH   1  49
TORSDOF 14
ENDMDL
