MODEL 1
REMARK VINA RESULT:      -5.9      0.000      0.000
REMARK  Name = 
REMARK  5 active torsions:
REMARK  status: ('A' for Active; 'I' for Inactive)
REMARK    1  A    between atoms: C_1  and  C_2
REMARK    2  A    between atoms: N_4  and  C_10
REMARK    3  A    between atoms: C_14  and  O_21
REMARK    4  A    between atoms: C_16  and  C_19
REMARK    5  A    between atoms: C_19  and  O_20
REMARK                            x       y       z     vdW  Elec       q    Type
REMARK                         _______ _______ _______ _____ _____    ______ ____
ROOT
ATOM      1  C   UNL     1       9.307  -2.338  23.622  0.00  0.00    +0.260 C 
ATOM      2  O   UNL     1       8.825  -1.937  22.318  0.00  0.00    -0.345 OA
ATOM      3  C   UNL     1       8.508  -0.526  22.358  0.00  0.00    +0.178 C 
ATOM      4  C   UNL     1       8.558  -0.102  23.828  0.00  0.00    +0.184 C 
ATOM      5  C   UNL     1       9.578  -1.056  24.414  0.00  0.00    +0.246 C 
ATOM      6  F   UNL     1       9.384  -1.199  25.745  0.00  0.00    -0.238 F 
ENDROOT
BRANCH   1  15
ATOM      7  C   UNL     1       4.614  -3.687  24.653  0.00  0.00    +0.051 C 
ATOM      8  C   UNL     1       6.091  -3.895  24.697  0.00  0.00    +0.030 A 
ATOM      9  C   UNL     1       6.597  -5.160  25.279  0.00  0.00    +0.257 A 
ATOM     10  O   UNL     1       5.840  -6.055  25.636  0.00  0.00    -0.267 OA
ATOM     11  N   UNL     1       7.954  -5.266  25.374  0.00  0.00    -0.275 N 
ATOM     12  H   UNL     1       8.315  -6.127  25.756  0.00  0.00    +0.173 HD
ATOM     13  C   UNL     1       8.873  -4.407  24.832  0.00  0.00    +0.331 A 
ATOM     14  O   UNL     1      10.071  -4.678  24.861  0.00  0.00    -0.246 OA
ATOM     15  N   UNL     1       8.351  -3.264  24.235  0.00  0.00    -0.271 N 
ATOM     16  C   UNL     1       6.988  -3.024  24.221  0.00  0.00    +0.102 A 
ENDBRANCH   1  15
BRANCH   4  17
ATOM     17  O   UNL     1       8.821   1.281  24.014  0.00  0.00    -0.386 OA
ATOM     18  H   UNL     1       8.771   1.488  24.964  0.00  0.00    +0.210 HD
ENDBRANCH   4  17
BRANCH   3  19
ATOM     19  C   UNL     1       9.466   0.218  21.424  0.00  0.00    +0.190 C 
BRANCH  19  20
ATOM     20  O   UNL     1       8.925   1.480  21.038  0.00  0.00    -0.392 OA
ATOM     21  H   UNL     1       9.675   2.010  20.710  0.00  0.00    +0.210 HD
ENDBRANCH  19  20
ENDBRANCH   3  19
TORSDOF 4
ENDMDL
MODEL 2
REMARK VINA RESULT:      -5.8      1.869      2.344
REMARK  Name = 
REMARK  5 active torsions:
REMARK  status: ('A' for Active; 'I' for Inactive)
REMARK    1  A    between atoms: C_1  and  C_2
REMARK    2  A    between atoms: N_4  and  C_10
REMARK    3  A    between atoms: C_14  and  O_21
REMARK    4  A    between atoms: C_16  and  C_19
REMARK    5  A    between atoms: C_19  and  O_20
REMARK                            x       y       z     vdW  Elec       q    Type
REMARK                         _______ _______ _______ _____ _____    ______ ____
ROOT
ATOM      1  C   UNL     1       8.544  -3.848  25.137  0.00  0.00    +0.260 C 
ATOM      2  O   UNL     1       8.973  -3.807  23.756  0.00  0.00    -0.345 OA
ATOM      3  C   UNL     1       8.809  -2.457  23.263  0.00  0.00    +0.178 C 
ATOM      4  C   UNL     1       8.003  -1.694  24.318  0.00  0.00    +0.184 C 
ATOM      5  C   UNL     1       8.388  -2.398  25.603  0.00  0.00    +0.246 C 
ATOM      6  F   UNL     1       7.426  -2.238  26.539  0.00  0.00    -0.238 F 
ENDROOT
BRANCH   1  15
ATOM      7  C   UNL     1       4.389  -5.776  23.156  0.00  0.00    +0.051 C 
ATOM      8  C   UNL     1       5.367  -5.601  24.270  0.00  0.00    +0.030 A 
ATOM      9  C   UNL     1       5.169  -6.404  25.500  0.00  0.00    +0.257 A 
ATOM     10  O   UNL     1       4.289  -7.253  25.582  0.00  0.00    -0.267 OA
ATOM     11  N   UNL     1       6.038  -6.147  26.520  0.00  0.00    -0.275 N 
ATOM     12  H   UNL     1       5.925  -6.694  27.360  0.00  0.00    +0.173 HD
ATOM     13  C   UNL     1       7.157  -5.361  26.451  0.00  0.00    +0.331 A 
ATOM     14  O   UNL     1       7.944  -5.312  27.393  0.00  0.00    -0.246 OA
ATOM     15  N   UNL     1       7.341  -4.677  25.253  0.00  0.00    -0.271 N 
ATOM     16  C   UNL     1       6.426  -4.785  24.221  0.00  0.00    +0.102 A 
ENDBRANCH   1  15
BRANCH   4  17
ATOM     17  O   UNL     1       8.212  -0.290  24.291  0.00  0.00    -0.386 OA
ATOM     18  H   UNL     1       8.902  -0.060  24.938  0.00  0.00    +0.210 HD
ENDBRANCH   4  17
BRANCH   3  19
ATOM     19  C   UNL     1      10.192  -1.880  22.947  0.00  0.00    +0.190 C 
BRANCH  19  20
ATOM     20  O   UNL     1      10.301  -1.546  21.564  0.00  0.00    -0.392 OA
ATOM     21  H   UNL     1      10.612  -2.352  21.112  0.00  0.00    +0.210 HD
ENDBRANCH  19  20
ENDBRANCH   3  19
TORSDOF 4
ENDMDL
MODEL 3
REMARK VINA RESULT:      -5.8      2.439      5.409
REMARK  Name = 
REMARK  5 active torsions:
REMARK  status: ('A' for Active; 'I' for Inactive)
REMARK    1  A    between atoms: C_1  and  C_2
REMARK    2  A    between atoms: N_4  and  C_10
REMARK    3  A    between atoms: C_14  and  O_21
REMARK    4  A    between atoms: C_16  and  C_19
REMARK    5  A    between atoms: C_19  and  O_20
REMARK                            x       y       z     vdW  Elec       q    Type
REMARK                         _______ _______ _______ _____ _____    ______ ____
ROOT
ATOM      1  C   UNL     1       7.533  -2.009  24.811  0.00  0.00    +0.260 C 
ATOM      2  O   UNL     1       6.334  -1.780  24.036  0.00  0.00    -0.345 OA
ATOM      3  C   UNL     1       6.214  -2.831  23.049  0.00  0.00    +0.178 C 
ATOM      4  C   UNL     1       7.540  -3.597  23.055  0.00  0.00    +0.184 C 
ATOM      5  C   UNL     1       8.017  -3.424  24.482  0.00  0.00    +0.246 C 
ATOM      6  F   UNL     1       9.360  -3.561  24.553  0.00  0.00    -0.238 F 
ENDROOT
BRANCH   1  15
ATOM      7  C   UNL     1       9.684   1.228  21.679  0.00  0.00    +0.051 C 
ATOM      8  C   UNL     1       9.498   0.614  23.026  0.00  0.00    +0.030 A 
ATOM      9  C   UNL     1      10.237   1.205  24.167  0.00  0.00    +0.257 A 
ATOM     10  O   UNL     1      10.915   2.218  24.041  0.00  0.00    -0.267 OA
ATOM     11  N   UNL     1      10.100   0.557  25.360  0.00  0.00    -0.275 N 
ATOM     12  H   UNL     1      10.587   0.954  26.149  0.00  0.00    +0.173 HD
ATOM     13  C   UNL     1       9.224  -0.460  25.632  0.00  0.00    +0.331 A 
ATOM     14  O   UNL     1       9.089  -0.874  26.781  0.00  0.00    -0.246 OA
ATOM     15  N   UNL     1       8.500  -0.939  24.546  0.00  0.00    -0.271 N 
ATOM     16  C   UNL     1       8.686  -0.419  23.277  0.00  0.00    +0.102 A 
ENDBRANCH   1  15
BRANCH   4  17
ATOM     17  O   UNL     1       7.427  -4.935  22.593  0.00  0.00    -0.386 OA
ATOM     18  H   UNL     1       8.267  -5.198  22.175  0.00  0.00    +0.210 HD
ENDBRANCH   4  17
BRANCH   3  19
ATOM     19  C   UNL     1       4.970  -3.664  23.369  0.00  0.00    +0.190 C 
BRANCH  19  20
ATOM     20  O   UNL     1       4.636  -4.522  22.280  0.00  0.00    -0.392 OA
ATOM     21  H   UNL     1       3.980  -4.039  21.743  0.00  0.00    +0.210 HD
ENDBRANCH  19  20
ENDBRANCH   3  19
TORSDOF 4
ENDMDL
MODEL 4
REMARK VINA RESULT:      -5.6      2.170      5.455
REMARK  Name = 
REMARK  5 active torsions:
REMARK  status: ('A' for Active; 'I' for Inactive)
REMARK    1  A    between atoms: C_1  and  C_2
REMARK    2  A    between atoms: N_4  and  C_10
REMARK    3  A    between atoms: C_14  and  O_21
REMARK    4  A    between atoms: C_16  and  C_19
REMARK    5  A    between atoms: C_19  and  O_20
REMARK                            x       y       z     vdW  Elec       q    Type
REMARK                         _______ _______ _______ _____ _____    ______ ____
ROOT
ATOM      1  C   UNL     1       8.981  -2.927  24.136  0.00  0.00    +0.260 C 
ATOM      2  O   UNL     1       8.744  -2.806  25.557  0.00  0.00    -0.345 OA
ATOM      3  C   UNL     1       7.562  -3.569  25.894  0.00  0.00    +0.178 C 
ATOM      4  C   UNL     1       6.899  -3.966  24.573  0.00  0.00    +0.184 C 
ATOM      5  C   UNL     1       8.077  -4.052  23.623  0.00  0.00    +0.246 C 
ATOM      6  F   UNL     1       7.671  -3.872  22.346  0.00  0.00    -0.238 F 
ENDROOT
BRANCH   1  15
ATOM      7  C   UNL     1       6.413   1.322  23.619  0.00  0.00    +0.051 C 
ATOM      8  C   UNL     1       7.546   0.410  23.282  0.00  0.00    +0.030 A 
ATOM      9  C   UNL     1       8.583   0.907  22.348  0.00  0.00    +0.257 A 
ATOM     10  O   UNL     1       8.573   2.057  21.925  0.00  0.00    -0.267 OA
ATOM     11  N   UNL     1       9.551   0.008  22.006  0.00  0.00    -0.275 N 
ATOM     12  H   UNL     1      10.272   0.335  21.380  0.00  0.00    +0.173 HD
ATOM     13  C   UNL     1       9.746  -1.224  22.570  0.00  0.00    +0.331 A 
ATOM     14  O   UNL     1      10.736  -1.892  22.280  0.00  0.00    -0.246 OA
ATOM     15  N   UNL     1       8.785  -1.624  23.493  0.00  0.00    -0.271 N 
ATOM     16  C   UNL     1       7.700  -0.818  23.790  0.00  0.00    +0.102 A 
ENDBRANCH   1  15
BRANCH   4  17
ATOM     17  O   UNL     1       6.091  -5.129  24.667  0.00  0.00    -0.386 OA
ATOM     18  H   UNL     1       6.562  -5.801  25.193  0.00  0.00    +0.210 HD
ENDBRANCH   4  17
BRANCH   3  19
ATOM     19  C   UNL     1       7.972  -4.731  26.802  0.00  0.00    +0.190 C 
BRANCH  19  20
ATOM     20  O   UNL     1       9.386  -4.762  26.986  0.00  0.00    -0.392 OA
ATOM     21  H   UNL     1       9.536  -4.785  27.949  0.00  0.00    +0.210 HD
ENDBRANCH  19  20
ENDBRANCH   3  19
TORSDOF 4
ENDMDL
MODEL 5
REMARK VINA RESULT:      -5.6      1.421      1.604
REMARK  Name = 
REMARK  5 active torsions:
REMARK  status: ('A' for Active; 'I' for Inactive)
REMARK    1  A    between atoms: C_1  and  C_2
REMARK    2  A    between atoms: N_4  and  C_10
REMARK    3  A    between atoms: C_14  and  O_21
REMARK    4  A    between atoms: C_16  and  C_19
REMARK    5  A    between atoms: C_19  and  O_20
REMARK                            x       y       z     vdW  Elec       q    Type
REMARK                         _______ _______ _______ _____ _____    ______ ____
ROOT
ATOM      1  C   UNL     1       9.094  -0.650  23.421  0.00  0.00    +0.260 C 
ATOM      2  O   UNL     1       8.261   0.143  22.544  0.00  0.00    -0.345 OA
ATOM      3  C   UNL     1       7.942   1.386  23.212  0.00  0.00    +0.178 C 
ATOM      4  C   UNL     1       8.392   1.236  24.667  0.00  0.00    +0.184 C 
ATOM      5  C   UNL     1       9.552   0.268  24.558  0.00  0.00    +0.246 C 
ATOM      6  F   UNL     1       9.739  -0.383  25.728  0.00  0.00    -0.238 F 
ENDROOT
BRANCH   1  15
ATOM      7  C   UNL     1       4.815  -2.963  24.536  0.00  0.00    +0.051 C 
ATOM      8  C   UNL     1       6.295  -2.936  24.348  0.00  0.00    +0.030 A 
ATOM      9  C   UNL     1       7.034  -4.215  24.470  0.00  0.00    +0.257 A 
ATOM     10  O   UNL     1       6.455  -5.283  24.632  0.00  0.00    -0.267 OA
ATOM     11  N   UNL     1       8.392  -4.125  24.374  0.00  0.00    -0.275 N 
ATOM     12  H   UNL     1       8.909  -4.988  24.442  0.00  0.00    +0.173 HD
ATOM     13  C   UNL     1       9.105  -3.014  24.009  0.00  0.00    +0.331 A 
ATOM     14  O   UNL     1      10.318  -3.087  23.821  0.00  0.00    -0.246 OA
ATOM     15  N   UNL     1       8.364  -1.850  23.839  0.00  0.00    -0.271 N 
ATOM     16  C   UNL     1       6.996  -1.836  24.051  0.00  0.00    +0.102 A 
ENDBRANCH   1  15
BRANCH   4  17
ATOM     17  O   UNL     1       8.671   2.471  25.309  0.00  0.00    -0.386 OA
ATOM     18  H   UNL     1       7.870   2.775  25.773  0.00  0.00    +0.210 HD
ENDBRANCH   4  17
BRANCH   3  19
ATOM     19  C   UNL     1       8.589   2.538  22.438  0.00  0.00    +0.190 C 
BRANCH  19  20
ATOM     20  O   UNL     1       9.482   2.045  21.441  0.00  0.00    -0.392 OA
ATOM     21  H   UNL     1       9.842   1.207  21.787  0.00  0.00    +0.210 HD
ENDBRANCH  19  20
ENDBRANCH   3  19
TORSDOF 4
ENDMDL
MODEL 6
REMARK VINA RESULT:      -5.6      2.191      5.622
REMARK  Name = 
REMARK  5 active torsions:
REMARK  status: ('A' for Active; 'I' for Inactive)
REMARK    1  A    between atoms: C_1  and  C_2
REMARK    2  A    between atoms: N_4  and  C_10
REMARK    3  A    between atoms: C_14  and  O_21
REMARK    4  A    between atoms: C_16  and  C_19
REMARK    5  A    between atoms: C_19  and  O_20
REMARK                            x       y       z     vdW  Elec       q    Type
REMARK                         _______ _______ _______ _____ _____    ______ ____
ROOT
ATOM      1  C   UNL     1       7.526  -4.965  24.178  0.00  0.00    +0.260 C 
ATOM      2  O   UNL     1       6.488  -4.952  25.185  0.00  0.00    -0.345 OA
ATOM      3  C   UNL     1       5.226  -5.264  24.550  0.00  0.00    +0.178 C 
ATOM      4  C   UNL     1       5.466  -5.214  23.039  0.00  0.00    +0.184 C 
ATOM      5  C   UNL     1       6.926  -5.602  22.922  0.00  0.00    +0.246 C 
ATOM      6  F   UNL     1       7.454  -5.120  21.774  0.00  0.00    -0.238 F 
ENDROOT
BRANCH   1  15
ATOM      7  C   UNL     1       6.832  -0.123  23.187  0.00  0.00    +0.051 C 
ATOM      8  C   UNL     1       7.689  -1.292  23.543  0.00  0.00    +0.030 A 
ATOM      9  C   UNL     1       9.115  -1.037  23.854  0.00  0.00    +0.257 A 
ATOM     10  O   UNL     1       9.572   0.099  23.908  0.00  0.00    -0.267 OA
ATOM     11  N   UNL     1       9.876  -2.145  24.090  0.00  0.00    -0.275 N 
ATOM     12  H   UNL     1      10.846  -1.989  24.316  0.00  0.00    +0.173 HD
ATOM     13  C   UNL     1       9.415  -3.426  24.237  0.00  0.00    +0.331 A 
ATOM     14  O   UNL     1      10.176  -4.326  24.587  0.00  0.00    -0.246 OA
ATOM     15  N   UNL     1       8.056  -3.609  24.002  0.00  0.00    -0.271 N 
ATOM     16  C   UNL     1       7.247  -2.551  23.626  0.00  0.00    +0.102 A 
ENDBRANCH   1  15
BRANCH   4  17
ATOM     17  O   UNL     1       4.552  -6.000  22.290  0.00  0.00    -0.386 OA
ATOM     18  H   UNL     1       3.894  -5.413  21.876  0.00  0.00    +0.210 HD
ENDBRANCH   4  17
BRANCH   3  19
ATOM     19  C   UNL     1       4.722  -6.604  25.094  0.00  0.00    +0.190 C 
BRANCH  19  20
ATOM     20  O   UNL     1       5.290  -6.881  26.372  0.00  0.00    -0.392 OA
ATOM     21  H   UNL     1       6.109  -6.355  26.428  0.00  0.00    +0.210 HD
ENDBRANCH  19  20
ENDBRANCH   3  19
TORSDOF 4
ENDMDL
MODEL 7
REMARK VINA RESULT:      -5.5      4.665      7.711
REMARK  Name = 
REMARK  5 active torsions:
REMARK  status: ('A' for Active; 'I' for Inactive)
REMARK    1  A    between atoms: C_1  and  C_2
REMARK    2  A    between atoms: N_4  and  C_10
REMARK    3  A    between atoms: C_14  and  O_21
REMARK    4  A    between atoms: C_16  and  C_19
REMARK    5  A    between atoms: C_19  and  O_20
REMARK                            x       y       z     vdW  Elec       q    Type
REMARK                         _______ _______ _______ _____ _____    ______ ____
ROOT
ATOM      1  C   UNL     1       8.763   2.356  23.185  0.00  0.00    +0.260 C 
ATOM      2  O   UNL     1       9.386   1.918  21.956  0.00  0.00    -0.345 OA
ATOM      3  C   UNL     1      10.053   0.658  22.201  0.00  0.00    +0.178 C 
ATOM      4  C   UNL     1      10.052   0.443  23.717  0.00  0.00    +0.184 C 
ATOM      5  C   UNL     1       8.797   1.171  24.154  0.00  0.00    +0.246 C 
ATOM      6  F   UNL     1       8.891   1.543  25.450  0.00  0.00    -0.238 F 
ENDROOT
BRANCH   1  15
ATOM      7  C   UNL     1      12.760   5.338  23.393  0.00  0.00    +0.051 C 
ATOM      8  C   UNL     1      11.347   4.993  23.727  0.00  0.00    +0.030 A 
ATOM      9  C   UNL     1      10.545   5.994  24.470  0.00  0.00    +0.257 A 
ATOM     10  O   UNL     1      10.984   7.107  24.732  0.00  0.00    -0.267 OA
ATOM     11  N   UNL     1       9.288   5.598  24.826  0.00  0.00    -0.275 N 
ATOM     12  H   UNL     1       8.725   6.273  25.321  0.00  0.00    +0.173 HD
ATOM     13  C   UNL     1       8.653   4.457  24.416  0.00  0.00    +0.331 A 
ATOM     14  O   UNL     1       7.469   4.271  24.687  0.00  0.00    -0.246 OA
ATOM     15  N   UNL     1       9.422   3.575  23.663  0.00  0.00    -0.271 N 
ATOM     16  C   UNL     1      10.748   3.849  23.377  0.00  0.00    +0.102 A 
ENDBRANCH   1  15
BRANCH   4  17
ATOM     17  O   UNL     1      10.146  -0.921  24.099  0.00  0.00    -0.386 OA
ATOM     18  H   UNL     1       9.411  -1.132  24.703  0.00  0.00    +0.210 HD
ENDBRANCH   4  17
BRANCH   3  19
ATOM     19  C   UNL     1       9.358  -0.431  21.380  0.00  0.00    +0.190 C 
BRANCH  19  20
ATOM     20  O   UNL     1      10.121  -1.637  21.383  0.00  0.00    -0.392 OA
ATOM     21  H   UNL     1      10.142  -1.949  20.460  0.00  0.00    +0.210 HD
ENDBRANCH  19  20
ENDBRANCH   3  19
TORSDOF 4
ENDMDL
MODEL 8
REMARK VINA RESULT:      -5.4      2.392      3.329
REMARK  Name = 
REMARK  5 active torsions:
REMARK  status: ('A' for Active; 'I' for Inactive)
REMARK    1  A    between atoms: C_1  and  C_2
REMARK    2  A    between atoms: N_4  and  C_10
REMARK    3  A    between atoms: C_14  and  O_21
REMARK    4  A    between atoms: C_16  and  C_19
REMARK    5  A    between atoms: C_19  and  O_20
REMARK                            x       y       z     vdW  Elec       q    Type
REMARK                         _______ _______ _______ _____ _____    ______ ____
ROOT
ATOM      1  C   UNL     1       6.189  -2.798  23.028  0.00  0.00    +0.260 C 
ATOM      2  O   UNL     1       6.527  -1.604  23.771  0.00  0.00    -0.345 OA
ATOM      3  C   UNL     1       7.869  -1.202  23.411  0.00  0.00    +0.178 C 
ATOM      4  C   UNL     1       8.474  -2.351  22.600  0.00  0.00    +0.184 C 
ATOM      5  C   UNL     1       7.257  -2.971  21.945  0.00  0.00    +0.246 C 
ATOM      6  F   UNL     1       7.495  -4.264  21.630  0.00  0.00    -0.238 F 
ENDROOT
BRANCH   1  15
ATOM      7  C   UNL     1       7.637  -5.286  27.106  0.00  0.00    +0.051 C 
ATOM      8  C   UNL     1       6.750  -5.086  25.922  0.00  0.00    +0.030 A 
ATOM      9  C   UNL     1       5.599  -6.004  25.754  0.00  0.00    +0.257 A 
ATOM     10  O   UNL     1       5.319  -6.849  26.596  0.00  0.00    -0.267 OA
ATOM     11  N   UNL     1       4.869  -5.835  24.614  0.00  0.00    -0.275 N 
ATOM     12  H   UNL     1       4.074  -6.444  24.490  0.00  0.00    +0.173 HD
ATOM     13  C   UNL     1       4.994  -4.806  23.719  0.00  0.00    +0.331 A 
ATOM     14  O   UNL     1       4.188  -4.679  22.800  0.00  0.00    -0.246 OA
ATOM     15  N   UNL     1       6.046  -3.927  23.953  0.00  0.00    -0.271 N 
ATOM     16  C   UNL     1       6.911  -4.115  25.017  0.00  0.00    +0.102 A 
ENDBRANCH   1  15
BRANCH   4  17
ATOM     17  O   UNL     1       9.514  -1.944  21.723  0.00  0.00    -0.386 OA
ATOM     18  H   UNL     1       9.533  -0.971  21.684  0.00  0.00    +0.210 HD
ENDBRANCH   4  17
BRANCH   3  19
ATOM     19  C   UNL     1       7.799   0.148  22.692  0.00  0.00    +0.190 C 
BRANCH  19  20
ATOM     20  O   UNL     1       6.463   0.647  22.672  0.00  0.00    -0.392 OA
ATOM     21  H   UNL     1       5.942   0.055  23.246  0.00  0.00    +0.210 HD
ENDBRANCH  19  20
ENDBRANCH   3  19
TORSDOF 4
ENDMDL
MODEL 9
REMARK VINA RESULT:      -5.4      2.654      6.318
REMARK  Name = 
REMARK  5 active torsions:
REMARK  status: ('A' for Active; 'I' for Inactive)
REMARK    1  A    between atoms: C_1  and  C_2
REMARK    2  A    between atoms: N_4  and  C_10
REMARK    3  A    between atoms: C_14  and  O_21
REMARK    4  A    between atoms: C_16  and  C_19
REMARK    5  A    between atoms: C_19  and  O_20
REMARK                            x       y       z     vdW  Elec       q    Type
REMARK                         _______ _______ _______ _____ _____    ______ ____
ROOT
ATOM      1  C   UNL     1       7.242  -5.525  26.215  0.00  0.00    +0.260 C 
ATOM      2  O   UNL     1       7.351  -5.560  27.657  0.00  0.00    -0.345 OA
ATOM      3  C   UNL     1       6.026  -5.424  28.222  0.00  0.00    +0.178 C 
ATOM      4  C   UNL     1       5.092  -5.031  27.075  0.00  0.00    +0.184 C 
ATOM      5  C   UNL     1       5.756  -5.671  25.873  0.00  0.00    +0.246 C 
ATOM      6  F   UNL     1       5.403  -5.028  24.737  0.00  0.00    -0.238 F 
ENDROOT
BRANCH   1  15
ATOM      7  C   UNL     1       8.598  -0.755  26.779  0.00  0.00    +0.051 C 
ATOM      8  C   UNL     1       8.540  -2.033  26.010  0.00  0.00    +0.030 A 
ATOM      9  C   UNL     1       9.279  -2.105  24.728  0.00  0.00    +0.257 A 
ATOM     10  O   UNL     1       9.991  -1.187  24.340  0.00  0.00    -0.267 OA
ATOM     11  N   UNL     1       9.126  -3.263  24.022  0.00  0.00    -0.275 N 
ATOM     12  H   UNL     1       9.634  -3.334  23.153  0.00  0.00    +0.173 HD
ATOM     13  C   UNL     1       8.510  -4.404  24.463  0.00  0.00    +0.331 A 
ATOM     14  O   UNL     1       8.555  -5.434  23.794  0.00  0.00    -0.246 OA
ATOM     15  N   UNL     1       7.887  -4.312  25.703  0.00  0.00    -0.271 N 
ATOM     16  C   UNL     1       7.885  -3.127  26.416  0.00  0.00    +0.102 A 
ENDBRANCH   1  15
BRANCH   4  17
ATOM     17  O   UNL     1       3.735  -5.385  27.298  0.00  0.00    -0.386 OA
ATOM     18  H   UNL     1       3.166  -4.641  27.033  0.00  0.00    +0.210 HD
ENDBRANCH   4  17
BRANCH   3  19
ATOM     19  C   UNL     1       5.669  -6.723  28.949  0.00  0.00    +0.190 C 
BRANCH  19  20
ATOM     20  O   UNL     1       6.842  -7.468  29.270  0.00  0.00    -0.392 OA
ATOM     21  H   UNL     1       6.591  -8.078  29.987  0.00  0.00    +0.210 HD
ENDBRANCH  19  20
ENDBRANCH   3  19
TORSDOF 4
ENDMDL
