MODEL 1
REMARK VINA RESULT:      -6.0      0.000      0.000
REMARK  Name = 
REMARK  3 active torsions:
REMARK  status: ('A' for Active; 'I' for Inactive)
REMARK    1  A    between atoms: C_3  and  N_10
REMARK    2  A    between atoms: C_6  and  C_8
REMARK    3  A    between atoms: C_8  and  O_9
REMARK                            x       y       z     vdW  Elec       q    Type
REMARK                         _______ _______ _______ _____ _____    ______ ____
ROOT
ATOM      1  N   UNL     1       8.829  -2.230  23.307  0.00  0.00    -0.152 N 
ATOM      2  C   UNL     1       8.952  -3.361  24.079  0.00  0.00    +0.332 C 
ATOM      3  N   UNL     1       9.944  -4.053  24.522  0.00  0.00    -0.033 NA
ATOM      4  C   UNL     1       9.616  -5.009  25.465  0.00  0.00    +0.356 C 
ATOM      5  N   UNL     1       8.556  -4.984  26.216  0.00  0.00    -0.143 NA
ATOM      6  C   UNL     1       7.655  -3.972  25.960  0.00  0.00    +0.276 C 
ATOM      7  O   UNL     1       7.036  -3.370  26.828  0.00  0.00    -0.271 OA
ATOM      8  C   UNL     1       7.534  -3.719  24.483  0.00  0.00    +0.311 C 
ATOM      9  N   UNL     1       6.684  -2.570  24.009  0.00  0.00    -0.229 NA
ATOM     10  C   UNL     1       7.512  -1.871  23.284  0.00  0.00    +0.304 C 
ENDROOT
BRANCH   1  14
ATOM     11  C   UNL     1       9.340   0.748  22.032  0.00  0.00    +0.040 C 
ATOM     12  C   UNL     1      10.389   0.695  23.122  0.00  0.00    +0.148 C 
ATOM     13  O   UNL     1      10.650  -0.689  23.424  0.00  0.00    -0.334 OA
ATOM     14  C   UNL     1       9.870  -1.538  22.578  0.00  0.00    +0.309 C 
ATOM     15  C   UNL     1       9.349  -0.642  21.453  0.00  0.00    +0.081 C 
BRANCH  12  16
ATOM     16  C   UNL     1       9.929   1.403  24.397  0.00  0.00    +0.187 C 
BRANCH  16  17
ATOM     17  O   UNL     1      10.119   0.547  25.518  0.00  0.00    -0.392 OA
ATOM     18  H   UNL     1       9.258   0.097  25.642  0.00  0.00    +0.210 HD
ENDBRANCH  16  17
ENDBRANCH  12  16
ENDBRANCH   1  14
TORSDOF 3
ENDMDL
MODEL 2
REMARK VINA RESULT:      -6.0      2.383      3.594
REMARK  Name = 
REMARK  3 active torsions:
REMARK  status: ('A' for Active; 'I' for Inactive)
REMARK    1  A    between atoms: C_3  and  N_10
REMARK    2  A    between atoms: C_6  and  C_8
REMARK    3  A    between atoms: C_8  and  O_9
REMARK                            x       y       z     vdW  Elec       q    Type
REMARK                         _______ _______ _______ _____ _____    ______ ____
ROOT
ATOM      1  N   UNL     1       7.893  -2.701  24.147  0.00  0.00    -0.152 N 
ATOM      2  C   UNL     1       6.757  -3.364  23.749  0.00  0.00    +0.332 C 
ATOM      3  N   UNL     1       5.579  -3.001  23.374  0.00  0.00    -0.033 NA
ATOM      4  C   UNL     1       4.798  -4.009  22.839  0.00  0.00    +0.356 C 
ATOM      5  N   UNL     1       5.253  -5.106  22.312  0.00  0.00    -0.143 NA
ATOM      6  C   UNL     1       6.615  -5.301  22.398  0.00  0.00    +0.276 C 
ATOM      7  O   UNL     1       7.294  -5.798  21.509  0.00  0.00    -0.271 OA
ATOM      8  C   UNL     1       7.144  -4.831  23.726  0.00  0.00    +0.311 C 
ATOM      9  N   UNL     1       8.631  -4.854  23.965  0.00  0.00    -0.229 NA
ATOM     10  C   UNL     1       8.894  -3.618  24.287  0.00  0.00    +0.304 C 
ENDROOT
BRANCH   1  14
ATOM     11  C   UNL     1      10.203  -0.387  23.885  0.00  0.00    +0.040 C 
ATOM     12  C   UNL     1       9.158   0.108  22.908  0.00  0.00    +0.148 C 
ATOM     13  O   UNL     1       7.893  -0.480  23.271  0.00  0.00    -0.334 OA
ATOM     14  C   UNL     1       8.039  -1.291  24.439  0.00  0.00    +0.309 C 
ATOM     15  C   UNL     1       9.395  -0.919  25.040  0.00  0.00    +0.081 C 
BRANCH  12  16
ATOM     16  C   UNL     1       9.490  -0.281  21.467  0.00  0.00    +0.187 C 
BRANCH  16  17
ATOM     17  O   UNL     1      10.185  -1.524  21.451  0.00  0.00    -0.392 OA
ATOM     18  H   UNL     1      11.133  -1.285  21.501  0.00  0.00    +0.210 HD
ENDBRANCH  16  17
ENDBRANCH  12  16
ENDBRANCH   1  14
TORSDOF 3
ENDMDL
MODEL 3
REMARK VINA RESULT:      -6.0      1.819      2.403
REMARK  Name = 
REMARK  3 active torsions:
REMARK  status: ('A' for Active; 'I' for Inactive)
REMARK    1  A    between atoms: C_3  and  N_10
REMARK    2  A    between atoms: C_6  and  C_8
REMARK    3  A    between atoms: C_8  and  O_9
REMARK                            x       y       z     vdW  Elec       q    Type
REMARK                         _______ _______ _______ _____ _____    ______ ____
ROOT
ATOM      1  N   UNL     1       8.255  -1.858  24.389  0.00  0.00    -0.152 N 
ATOM      2  C   UNL     1       8.419  -3.019  25.108  0.00  0.00    +0.332 C 
ATOM      3  N   UNL     1       8.565  -3.299  26.356  0.00  0.00    -0.033 NA
ATOM      4  C   UNL     1       8.472  -4.643  26.669  0.00  0.00    +0.356 C 
ATOM      5  N   UNL     1       7.861  -5.537  25.951  0.00  0.00    -0.143 NA
ATOM      6  C   UNL     1       7.366  -5.105  24.738  0.00  0.00    +0.276 C 
ATOM      7  O   UNL     1       6.300  -5.474  24.263  0.00  0.00    -0.271 OA
ATOM      8  C   UNL     1       8.311  -4.135  24.085  0.00  0.00    +0.311 C 
ATOM      9  N   UNL     1       7.892  -3.461  22.805  0.00  0.00    -0.229 NA
ATOM     10  C   UNL     1       8.003  -2.194  23.090  0.00  0.00    +0.304 C 
ENDROOT
BRANCH   1  14
ATOM     11  C   UNL     1      10.532   0.501  24.447  0.00  0.00    +0.040 C 
ATOM     12  C   UNL     1       9.484   1.106  23.537  0.00  0.00    +0.148 C 
ATOM     13  O   UNL     1       8.227   0.459  23.812  0.00  0.00    -0.334 OA
ATOM     14  C   UNL     1       8.380  -0.497  24.865  0.00  0.00    +0.309 C 
ATOM     15  C   UNL     1       9.728  -0.189  25.517  0.00  0.00    +0.081 C 
BRANCH  12  16
ATOM     16  C   UNL     1       9.827   0.915  22.059  0.00  0.00    +0.187 C 
BRANCH  16  17
ATOM     17  O   UNL     1      10.100   2.178  21.461  0.00  0.00    -0.392 OA
ATOM     18  H   UNL     1       9.418   2.781  21.820  0.00  0.00    +0.210 HD
ENDBRANCH  16  17
ENDBRANCH  12  16
ENDBRANCH   1  14
TORSDOF 3
ENDMDL
MODEL 4
REMARK VINA RESULT:      -6.0      1.890      2.962
REMARK  Name = 
REMARK  3 active torsions:
REMARK  status: ('A' for Active; 'I' for Inactive)
REMARK    1  A    between atoms: C_3  and  N_10
REMARK    2  A    between atoms: C_6  and  C_8
REMARK    3  A    between atoms: C_8  and  O_9
REMARK                            x       y       z     vdW  Elec       q    Type
REMARK                         _______ _______ _______ _____ _____    ______ ____
ROOT
ATOM      1  N   UNL     1       8.304  -1.640  25.024  0.00  0.00    -0.152 N 
ATOM      2  C   UNL     1       7.778  -2.580  24.169  0.00  0.00    +0.332 C 
ATOM      3  N   UNL     1       7.465  -2.594  22.920  0.00  0.00    -0.033 NA
ATOM      4  C   UNL     1       7.166  -3.843  22.406  0.00  0.00    +0.356 C 
ATOM      5  N   UNL     1       7.566  -4.972  22.908  0.00  0.00    -0.143 NA
ATOM      6  C   UNL     1       8.251  -4.896  24.102  0.00  0.00    +0.276 C 
ATOM      7  O   UNL     1       9.211  -5.601  24.388  0.00  0.00    -0.271 OA
ATOM      8  C   UNL     1       7.657  -3.845  24.999  0.00  0.00    +0.311 C 
ATOM      9  N   UNL     1       8.341  -3.531  26.303  0.00  0.00    -0.229 NA
ATOM     10  C   UNL     1       8.556  -2.248  26.221  0.00  0.00    +0.304 C 
ENDROOT
BRANCH   1  14
ATOM     11  C   UNL     1      10.614   0.272  23.697  0.00  0.00    +0.040 C 
ATOM     12  C   UNL     1       9.467   0.454  22.726  0.00  0.00    +0.148 C 
ATOM     13  O   UNL     1       8.245   0.119  23.411  0.00  0.00    -0.334 OA
ATOM     14  C   UNL     1       8.517  -0.232  24.770  0.00  0.00    +0.309 C 
ATOM     15  C   UNL     1       9.945   0.240  25.046  0.00  0.00    +0.081 C 
BRANCH  12  16
ATOM     16  C   UNL     1       9.609  -0.442  21.496  0.00  0.00    +0.187 C 
BRANCH  16  17
ATOM     17  O   UNL     1      10.298  -1.638  21.848  0.00  0.00    -0.392 OA
ATOM     18  H   UNL     1       9.610  -2.334  21.855  0.00  0.00    +0.210 HD
ENDBRANCH  16  17
ENDBRANCH  12  16
ENDBRANCH   1  14
TORSDOF 3
ENDMDL
MODEL 5
REMARK VINA RESULT:      -5.9      1.865      2.748
REMARK  Name = 
REMARK  3 active torsions:
REMARK  status: ('A' for Active; 'I' for Inactive)
REMARK    1  A    between atoms: C_3  and  N_10
REMARK    2  A    between atoms: C_6  and  C_8
REMARK    3  A    between atoms: C_8  and  O_9
REMARK                            x       y       z     vdW  Elec       q    Type
REMARK                         _______ _______ _______ _____ _____    ______ ____
ROOT
ATOM      1  N   UNL     1       8.726  -1.949  22.876  0.00  0.00    -0.152 N 
ATOM      2  C   UNL     1       7.587  -2.719  22.883  0.00  0.00    +0.332 C 
ATOM      3  N   UNL     1       6.468  -2.689  22.247  0.00  0.00    -0.033 NA
ATOM      4  C   UNL     1       5.673  -3.809  22.407  0.00  0.00    +0.356 C 
ATOM      5  N   UNL     1       6.101  -4.985  22.755  0.00  0.00    -0.143 NA
ATOM      6  C   UNL     1       7.438  -5.071  23.082  0.00  0.00    +0.276 C 
ATOM      7  O   UNL     1       8.154  -6.020  22.793  0.00  0.00    -0.271 OA
ATOM      8  C   UNL     1       7.885  -3.854  23.845  0.00  0.00    +0.311 C 
ATOM      9  N   UNL     1       9.344  -3.709  24.191  0.00  0.00    -0.229 NA
ATOM     10  C   UNL     1       9.655  -2.555  23.671  0.00  0.00    +0.304 C 
ENDROOT
BRANCH   1  14
ATOM     11  C   UNL     1       8.711   1.239  23.647  0.00  0.00    +0.040 C 
ATOM     12  C   UNL     1      10.164   1.016  23.286  0.00  0.00    +0.148 C 
ATOM     13  O   UNL     1      10.241  -0.153  22.447  0.00  0.00    -0.334 OA
ATOM     14  C   UNL     1       8.933  -0.681  22.209  0.00  0.00    +0.309 C 
ATOM     15  C   UNL     1       7.956   0.413  22.639  0.00  0.00    +0.081 C 
BRANCH  12  16
ATOM     16  C   UNL     1      11.036   0.798  24.523  0.00  0.00    +0.187 C 
BRANCH  16  17
ATOM     17  O   UNL     1      10.223   0.396  25.620  0.00  0.00    -0.392 OA
ATOM     18  H   UNL     1      10.429  -0.551  25.756  0.00  0.00    +0.210 HD
ENDBRANCH  16  17
ENDBRANCH  12  16
ENDBRANCH   1  14
TORSDOF 3
ENDMDL
MODEL 6
REMARK VINA RESULT:      -5.8      2.782      5.575
REMARK  Name = 
REMARK  3 active torsions:
REMARK  status: ('A' for Active; 'I' for Inactive)
REMARK    1  A    between atoms: C_3  and  N_10
REMARK    2  A    between atoms: C_6  and  C_8
REMARK    3  A    between atoms: C_8  and  O_9
REMARK                            x       y       z     vdW  Elec       q    Type
REMARK                         _______ _______ _______ _____ _____    ______ ____
ROOT
ATOM      1  N   UNL     1       7.216  -3.342  23.263  0.00  0.00    -0.152 N 
ATOM      2  C   UNL     1       8.333  -2.627  22.902  0.00  0.00    +0.332 C 
ATOM      3  N   UNL     1       8.665  -1.919  21.878  0.00  0.00    -0.033 NA
ATOM      4  C   UNL     1       9.824  -1.180  22.028  0.00  0.00    +0.356 C 
ATOM      5  N   UNL     1      10.335  -0.815  23.166  0.00  0.00    -0.143 NA
ATOM      6  C   UNL     1       9.711  -1.301  24.295  0.00  0.00    +0.276 C 
ATOM      7  O   UNL     1       9.551  -0.655  25.322  0.00  0.00    -0.271 OA
ATOM      8  C   UNL     1       9.267  -2.724  24.094  0.00  0.00    +0.311 C 
ATOM      9  N   UNL     1       8.460  -3.393  25.176  0.00  0.00    -0.229 NA
ATOM     10  C   UNL     1       7.385  -3.776  24.547  0.00  0.00    +0.304 C 
ENDROOT
BRANCH   1  14
ATOM     11  C   UNL     1       5.917  -5.978  21.808  0.00  0.00    +0.040 C 
ATOM     12  C   UNL     1       4.864  -5.647  22.844  0.00  0.00    +0.148 C 
ATOM     13  O   UNL     1       5.013  -4.260  23.204  0.00  0.00    -0.334 OA
ATOM     14  C   UNL     1       6.065  -3.660  22.445  0.00  0.00    +0.309 C 
ATOM     15  C   UNL     1       6.365  -4.632  21.303  0.00  0.00    +0.081 C 
BRANCH  12  16
ATOM     16  C   UNL     1       5.006  -6.505  24.101  0.00  0.00    +0.187 C 
BRANCH  16  17
ATOM     17  O   UNL     1       4.135  -7.628  24.019  0.00  0.00    -0.392 OA
ATOM     18  H   UNL     1       4.467  -8.151  23.262  0.00  0.00    +0.210 HD
ENDBRANCH  16  17
ENDBRANCH  12  16
ENDBRANCH   1  14
TORSDOF 3
ENDMDL
MODEL 7
REMARK VINA RESULT:      -5.7      2.055      5.152
REMARK  Name = 
REMARK  3 active torsions:
REMARK  status: ('A' for Active; 'I' for Inactive)
REMARK    1  A    between atoms: C_3  and  N_10
REMARK    2  A    between atoms: C_6  and  C_8
REMARK    3  A    between atoms: C_8  and  O_9
REMARK                            x       y       z     vdW  Elec       q    Type
REMARK                         _______ _______ _______ _____ _____    ______ ____
ROOT
ATOM      1  N   UNL     1       8.421  -1.810  23.661  0.00  0.00    -0.152 N 
ATOM      2  C   UNL     1       8.436  -0.456  23.898  0.00  0.00    +0.332 C 
ATOM      3  N   UNL     1       7.713   0.351  24.596  0.00  0.00    -0.033 NA
ATOM      4  C   UNL     1       8.226   1.628  24.731  0.00  0.00    +0.356 C 
ATOM      5  N   UNL     1       9.479   1.948  24.604  0.00  0.00    -0.143 NA
ATOM      6  C   UNL     1      10.324   0.935  24.202  0.00  0.00    +0.276 C 
ATOM      7  O   UNL     1      11.462   0.784  24.628  0.00  0.00    -0.271 OA
ATOM      8  C   UNL     1       9.665   0.058  23.173  0.00  0.00    +0.311 C 
ATOM      9  N   UNL     1      10.390  -1.173  22.697  0.00  0.00    -0.229 NA
ATOM     10  C   UNL     1       9.536  -2.128  22.941  0.00  0.00    +0.304 C 
ENDROOT
BRANCH   1  14
ATOM     11  C   UNL     1       8.059  -5.067  23.791  0.00  0.00    +0.040 C 
ATOM     12  C   UNL     1       7.987  -4.690  25.255  0.00  0.00    +0.148 C 
ATOM     13  O   UNL     1       7.611  -3.302  25.341  0.00  0.00    -0.334 OA
ATOM     14  C   UNL     1       7.397  -2.763  24.034  0.00  0.00    +0.309 C 
ATOM     15  C   UNL     1       7.300  -3.967  23.096  0.00  0.00    +0.081 C 
BRANCH  12  16
ATOM     16  C   UNL     1       9.327  -4.886  25.965  0.00  0.00    +0.187 C 
BRANCH  16  17
ATOM     17  O   UNL     1      10.329  -5.232  25.014  0.00  0.00    -0.392 OA
ATOM     18  H   UNL     1      10.051  -6.101  24.659  0.00  0.00    +0.210 HD
ENDBRANCH  16  17
ENDBRANCH  12  16
ENDBRANCH   1  14
TORSDOF 3
ENDMDL
MODEL 8
REMARK VINA RESULT:      -5.7      1.843      2.066
REMARK  Name = 
REMARK  3 active torsions:
REMARK  status: ('A' for Active; 'I' for Inactive)
REMARK    1  A    between atoms: C_3  and  N_10
REMARK    2  A    between atoms: C_6  and  C_8
REMARK    3  A    between atoms: C_8  and  O_9
REMARK                            x       y       z     vdW  Elec       q    Type
REMARK                         _______ _______ _______ _____ _____    ______ ____
ROOT
ATOM      1  N   UNL     1       9.490  -1.068  24.139  0.00  0.00    -0.152 N 
ATOM      2  C   UNL     1       8.729  -2.213  24.102  0.00  0.00    +0.332 C 
ATOM      3  N   UNL     1       8.569  -3.169  23.254  0.00  0.00    -0.033 NA
ATOM      4  C   UNL     1       7.858  -4.257  23.725  0.00  0.00    +0.356 C 
ATOM      5  N   UNL     1       7.723  -4.575  24.978  0.00  0.00    -0.143 NA
ATOM      6  C   UNL     1       8.252  -3.687  25.889  0.00  0.00    +0.276 C 
ATOM      7  O   UNL     1       8.819  -4.021  26.922  0.00  0.00    -0.271 OA
ATOM      8  C   UNL     1       8.031  -2.266  25.449  0.00  0.00    +0.311 C 
ATOM      9  N   UNL     1       8.641  -1.151  26.257  0.00  0.00    -0.229 NA
ATOM     10  C   UNL     1       9.353  -0.506  25.375  0.00  0.00    +0.304 C 
ENDROOT
BRANCH   1  14
ATOM     11  C   UNL     1       9.062   1.114  21.728  0.00  0.00    +0.040 C 
ATOM     12  C   UNL     1      10.078   1.816  22.603  0.00  0.00    +0.148 C 
ATOM     13  O   UNL     1      10.751   0.818  23.395  0.00  0.00    -0.334 OA
ATOM     14  C   UNL     1      10.267  -0.487  23.066  0.00  0.00    +0.309 C 
ATOM     15  C   UNL     1       9.495  -0.328  21.755  0.00  0.00    +0.081 C 
BRANCH  12  16
ATOM     16  C   UNL     1       9.425   2.834  23.539  0.00  0.00    +0.187 C 
BRANCH  16  17
ATOM     17  O   UNL     1       9.828   4.150  23.175  0.00  0.00    -0.392 OA
ATOM     18  H   UNL     1       9.783   4.667  24.004  0.00  0.00    +0.210 HD
ENDBRANCH  16  17
ENDBRANCH  12  16
ENDBRANCH   1  14
TORSDOF 3
ENDMDL
MODEL 9
REMARK VINA RESULT:      -5.6      2.333      5.014
REMARK  Name = 
REMARK  3 active torsions:
REMARK  status: ('A' for Active; 'I' for Inactive)
REMARK    1  A    between atoms: C_3  and  N_10
REMARK    2  A    between atoms: C_6  and  C_8
REMARK    3  A    between atoms: C_8  and  O_9
REMARK                            x       y       z     vdW  Elec       q    Type
REMARK                         _______ _______ _______ _____ _____    ______ ____
ROOT
ATOM      1  N   UNL     1       8.873  -3.169  25.056  0.00  0.00    -0.152 N 
ATOM      2  C   UNL     1       9.546  -2.355  24.175  0.00  0.00    +0.332 C 
ATOM      3  N   UNL     1      10.031  -2.506  22.992  0.00  0.00    -0.033 NA
ATOM      4  C   UNL     1      10.441  -1.338  22.375  0.00  0.00    +0.356 C 
ATOM      5  N   UNL     1      10.014  -0.147  22.670  0.00  0.00    -0.143 NA
ATOM      6  C   UNL     1       9.166  -0.059  23.754  0.00  0.00    +0.276 C 
ATOM      7  O   UNL     1       8.200   0.692  23.809  0.00  0.00    -0.271 OA
ATOM      8  C   UNL     1       9.592  -0.997  24.850  0.00  0.00    +0.311 C 
ATOM      9  N   UNL     1       8.722  -1.130  26.072  0.00  0.00    -0.229 NA
ATOM     10  C   UNL     1       8.477  -2.409  26.119  0.00  0.00    +0.304 C 
ENDROOT
BRANCH   1  14
ATOM     11  C   UNL     1       6.328  -5.225  24.833  0.00  0.00    +0.040 C 
ATOM     12  C   UNL     1       6.995  -5.412  23.487  0.00  0.00    +0.148 C 
ATOM     13  O   UNL     1       8.370  -5.000  23.609  0.00  0.00    -0.334 OA
ATOM     14  C   UNL     1       8.651  -4.595  24.951  0.00  0.00    +0.309 C 
ATOM     15  C   UNL     1       7.481  -5.104  25.795  0.00  0.00    +0.081 C 
BRANCH  12  16
ATOM     16  C   UNL     1       6.323  -4.582  22.393  0.00  0.00    +0.187 C 
BRANCH  16  17
ATOM     17  O   UNL     1       7.188  -3.524  21.992  0.00  0.00    -0.392 OA
ATOM     18  H   UNL     1       7.607  -3.839  21.166  0.00  0.00    +0.210 HD
ENDBRANCH  16  17
ENDBRANCH  12  16
ENDBRANCH   1  14
TORSDOF 3
ENDMDL
