MODEL 1
REMARK VINA RESULT:      -6.3      0.000      0.000
REMARK  Name = 
REMARK  6 active torsions:
REMARK  status: ('A' for Active; 'I' for Inactive)
REMARK    1  A    between atoms: C_3  and  C_19
REMARK    2  A    between atoms: N_5  and  C1*_6
REMARK    3  A    between atoms: C2*_8  and  O2*_18
REMARK    4  A    between atoms: C3*_10  and  O3*_17
REMARK    5  A    between atoms: C4*_12  and  C5*_15
REMARK    6  A    between atoms: C5*_15  and  O5*_16
REMARK                            x       y       z     vdW  Elec       q    Type
REMARK                         _______ _______ _______ _____ _____    ______ ____
ROOT
ATOM      1  C1* UNL     1       8.139  -1.664  23.330  0.00  0.00    +0.270 C 
ATOM      2  O4* UNL     1       7.826  -0.327  22.870  0.00  0.00    -0.344 OA
ATOM      3  C4* UNL     1       9.052   0.449  22.944  0.00  0.00    +0.177 C 
ATOM      4  C3* UNL     1      10.168  -0.505  23.379  0.00  0.00    +0.178 C 
ATOM      5  C2* UNL     1       9.619  -1.876  23.011  0.00  0.00    +0.196 C 
ENDROOT
BRANCH   1   7
ATOM      6  C   UNL     1       5.837  -2.468  22.826  0.00  0.00    +0.223 A 
ATOM      7  N   UNL     1       7.193  -2.614  22.772  0.00  0.00    -0.220 N 
ATOM      8  N   UNL     1       7.534  -3.777  22.166  0.00  0.00    -0.142 NA
ATOM      9  C   UNL     1       6.315  -4.308  21.891  0.00  0.00    +0.236 A 
ATOM     10  N   UNL     1       5.260  -3.513  22.298  0.00  0.00    -0.211 NA
BRANCH   9  11
ATOM     11  C   UNL     1       6.113  -5.618  21.236  0.00  0.00    +0.281 C 
ATOM     12  N   UNL     1       6.106  -6.696  22.082  0.00  0.00    -0.323 N 
ATOM     13  H   UNL     1       5.988  -7.620  21.694  0.00  0.00    +0.145 HD
ATOM     14  H   UNL     1       6.247  -6.554  23.074  0.00  0.00    +0.145 HD
ATOM     15  O   UNL     1       5.955  -5.784  20.028  0.00  0.00    -0.267 OA
ENDBRANCH   9  11
ENDBRANCH   1   7
BRANCH   4  16
ATOM     16  O3* UNL     1      10.312  -0.446  24.811  0.00  0.00    -0.386 OA
ATOM     17  H3* UNL     1      10.894  -1.187  25.066  0.00  0.00    +0.210 HD
ENDBRANCH   4  16
BRANCH   5  18
ATOM     18  O2* UNL     1      10.257  -2.893  23.784  0.00  0.00    -0.385 OA
ATOM     19  H2* UNL     1      11.087  -3.129  23.327  0.00  0.00    +0.210 HD
ENDBRANCH   5  18
BRANCH   3  20
ATOM     20  C5* UNL     1       9.329   1.086  21.579  0.00  0.00    +0.190 C 
BRANCH  20  21
ATOM     21  O5* UNL     1      10.224   2.191  21.684  0.00  0.00    -0.392 OA
ATOM     22  H5* UNL     1      10.134   2.735  20.880  0.00  0.00    +0.210 HD
ENDBRANCH  20  21
ENDBRANCH   3  20
TORSDOF 6
ENDMDL
MODEL 2
REMARK VINA RESULT:      -6.0      3.188      3.744
REMARK  Name = 
REMARK  6 active torsions:
REMARK  status: ('A' for Active; 'I' for Inactive)
REMARK    1  A    between atoms: C_3  and  C_19
REMARK    2  A    between atoms: N_5  and  C1*_6
REMARK    3  A    between atoms: C2*_8  and  O2*_18
REMARK    4  A    between atoms: C3*_10  and  O3*_17
REMARK    5  A    between atoms: C4*_12  and  C5*_15
REMARK    6  A    between atoms: C5*_15  and  O5*_16
REMARK                            x       y       z     vdW  Elec       q    Type
REMARK                         _______ _______ _______ _____ _____    ______ ____
ROOT
ATOM      1  C1* UNL     1       9.196  -0.131  23.472  0.00  0.00    +0.270 C 
ATOM      2  O4* UNL     1       8.337   0.889  24.037  0.00  0.00    -0.344 OA
ATOM      3  C4* UNL     1       8.068   1.853  22.984  0.00  0.00    +0.177 C 
ATOM      4  C3* UNL     1       8.722   1.324  21.705  0.00  0.00    +0.178 C 
ATOM      5  C2* UNL     1       8.870  -0.167  21.978  0.00  0.00    +0.196 C 
ENDROOT
BRANCH   1   7
ATOM      6  C   UNL     1       8.593  -1.443  25.501  0.00  0.00    +0.223 A 
ATOM      7  N   UNL     1       9.050  -1.369  24.216  0.00  0.00    -0.220 N 
ATOM      8  N   UNL     1       9.382  -2.596  23.747  0.00  0.00    -0.142 NA
ATOM      9  C   UNL     1       9.119  -3.380  24.824  0.00  0.00    +0.236 A 
ATOM     10  N   UNL     1       8.638  -2.681  25.914  0.00  0.00    -0.211 NA
BRANCH   9  11
ATOM     11  C   UNL     1       9.337  -4.842  24.854  0.00  0.00    +0.281 C 
ATOM     12  N   UNL     1      10.146  -5.289  25.866  0.00  0.00    -0.323 N 
ATOM     13  H   UNL     1      10.346  -6.276  25.932  0.00  0.00    +0.145 HD
ATOM     14  H   UNL     1      10.552  -4.623  26.512  0.00  0.00    +0.145 HD
ATOM     15  O   UNL     1       8.850  -5.643  24.058  0.00  0.00    -0.267 OA
ENDBRANCH   9  11
ENDBRANCH   1   7
BRANCH   4  16
ATOM     16  O3* UNL     1      10.040   1.891  21.575  0.00  0.00    -0.386 OA
ATOM     17  H3* UNL     1      10.242   1.920  20.620  0.00  0.00    +0.210 HD
ENDBRANCH   4  16
BRANCH   5  18
ATOM     18  O2* UNL     1       9.894  -0.727  21.157  0.00  0.00    -0.385 OA
ATOM     19  H2* UNL     1      10.598  -0.056  21.073  0.00  0.00    +0.210 HD
ENDBRANCH   5  18
BRANCH   3  20
ATOM     20  C5* UNL     1       6.554   2.027  22.835  0.00  0.00    +0.190 C 
BRANCH  20  21
ATOM     21  O5* UNL     1       5.834   1.010  23.527  0.00  0.00    -0.392 OA
ATOM     22  H5* UNL     1       6.331   0.778  24.333  0.00  0.00    +0.210 HD
ENDBRANCH  20  21
ENDBRANCH   3  20
TORSDOF 6
ENDMDL
MODEL 3
REMARK VINA RESULT:      -5.9      2.566      3.823
REMARK  Name = 
REMARK  6 active torsions:
REMARK  status: ('A' for Active; 'I' for Inactive)
REMARK    1  A    between atoms: C_3  and  C_19
REMARK    2  A    between atoms: N_5  and  C1*_6
REMARK    3  A    between atoms: C2*_8  and  O2*_18
REMARK    4  A    between atoms: C3*_10  and  O3*_17
REMARK    5  A    between atoms: C4*_12  and  C5*_15
REMARK    6  A    between atoms: C5*_15  and  O5*_16
REMARK                            x       y       z     vdW  Elec       q    Type
REMARK                         _______ _______ _______ _____ _____    ______ ____
ROOT
ATOM      1  C1* UNL     1       8.869  -0.943  22.677  0.00  0.00    +0.270 C 
ATOM      2  O4* UNL     1      10.201  -0.425  22.910  0.00  0.00    -0.344 OA
ATOM      3  C4* UNL     1      10.126   1.020  22.783  0.00  0.00    +0.177 C 
ATOM      4  C3* UNL     1       8.655   1.382  22.558  0.00  0.00    +0.178 C 
ATOM      5  C2* UNL     1       7.911   0.170  23.103  0.00  0.00    +0.196 C 
ENDROOT
BRANCH   1   7
ATOM      6  C   UNL     1       7.893  -3.225  22.877  0.00  0.00    +0.223 A 
ATOM      7  N   UNL     1       8.720  -2.235  23.323  0.00  0.00    -0.220 N 
ATOM      8  N   UNL     1       9.349  -2.605  24.465  0.00  0.00    -0.142 NA
ATOM      9  C   UNL     1       8.833  -3.843  24.671  0.00  0.00    +0.236 A 
ATOM     10  N   UNL     1       7.929  -4.235  23.703  0.00  0.00    -0.211 NA
BRANCH   9  11
ATOM     11  C   UNL     1       9.178  -4.700  25.826  0.00  0.00    +0.281 C 
ATOM     12  N   UNL     1      10.178  -5.609  25.598  0.00  0.00    -0.323 N 
ATOM     13  H   UNL     1      10.450  -6.233  26.343  0.00  0.00    +0.145 HD
ATOM     14  H   UNL     1      10.609  -5.659  24.683  0.00  0.00    +0.145 HD
ATOM     15  O   UNL     1       8.642  -4.641  26.931  0.00  0.00    -0.267 OA
ENDBRANCH   9  11
ENDBRANCH   1   7
BRANCH   4  16
ATOM     16  O3* UNL     1       8.398   1.471  21.143  0.00  0.00    -0.386 OA
ATOM     17  H3* UNL     1       8.477   0.566  20.785  0.00  0.00    +0.210 HD
ENDBRANCH   4  16
BRANCH   5  18
ATOM     18  O2* UNL     1       6.606   0.086  22.529  0.00  0.00    -0.385 OA
ATOM     19  H2* UNL     1       6.574   0.719  21.787  0.00  0.00    +0.210 HD
ENDBRANCH   5  18
BRANCH   3  20
ATOM     20  C5* UNL     1      10.699   1.669  24.047  0.00  0.00    +0.190 C 
BRANCH  20  21
ATOM     21  O5* UNL     1      10.631   0.791  25.168  0.00  0.00    -0.392 OA
ATOM     22  H5* UNL     1      10.211  -0.041  24.881  0.00  0.00    +0.210 HD
ENDBRANCH  20  21
ENDBRANCH   3  20
TORSDOF 6
ENDMDL
MODEL 4
REMARK VINA RESULT:      -5.9      2.731      3.336
REMARK  Name = 
REMARK  6 active torsions:
REMARK  status: ('A' for Active; 'I' for Inactive)
REMARK    1  A    between atoms: C_3  and  C_19
REMARK    2  A    between atoms: N_5  and  C1*_6
REMARK    3  A    between atoms: C2*_8  and  O2*_18
REMARK    4  A    between atoms: C3*_10  and  O3*_17
REMARK    5  A    between atoms: C4*_12  and  C5*_15
REMARK    6  A    between atoms: C5*_15  and  O5*_16
REMARK                            x       y       z     vdW  Elec       q    Type
REMARK                         _______ _______ _______ _____ _____    ______ ____
ROOT
ATOM      1  C1* UNL     1       8.401  -0.467  24.404  0.00  0.00    +0.270 C 
ATOM      2  O4* UNL     1       7.810   0.039  23.183  0.00  0.00    -0.344 OA
ATOM      3  C4* UNL     1       8.332   1.379  22.978  0.00  0.00    +0.177 C 
ATOM      4  C3* UNL     1       9.359   1.641  24.083  0.00  0.00    +0.178 C 
ATOM      5  C2* UNL     1       9.750   0.241  24.536  0.00  0.00    +0.196 C 
ENDROOT
BRANCH   1   7
ATOM      6  C   UNL     1       7.983  -2.675  23.333  0.00  0.00    +0.223 A 
ATOM      7  N   UNL     1       8.408  -1.919  24.387  0.00  0.00    -0.220 N 
ATOM      8  N   UNL     1       8.800  -2.701  25.421  0.00  0.00    -0.142 NA
ATOM      9  C   UNL     1       8.561  -3.944  24.927  0.00  0.00    +0.236 A 
ATOM     10  N   UNL     1       8.052  -3.941  23.643  0.00  0.00    -0.211 NA
BRANCH   9  11
ATOM     11  C   UNL     1       8.800  -5.192  25.683  0.00  0.00    +0.281 C 
ATOM     12  N   UNL     1      10.074  -5.690  25.597  0.00  0.00    -0.323 N 
ATOM     13  H   UNL     1      10.296  -6.548  26.079  0.00  0.00    +0.145 HD
ATOM     14  H   UNL     1      10.762  -5.207  25.033  0.00  0.00    +0.145 HD
ATOM     15  O   UNL     1       7.955  -5.780  26.356  0.00  0.00    -0.267 OA
ENDBRANCH   9  11
ENDBRANCH   1   7
BRANCH   4  16
ATOM     16  O3* UNL     1       8.712   2.307  25.185  0.00  0.00    -0.386 OA
ATOM     17  H3* UNL     1       7.751   2.263  25.015  0.00  0.00    +0.210 HD
ENDBRANCH   4  16
BRANCH   5  18
ATOM     18  O2* UNL     1      10.280   0.274  25.861  0.00  0.00    -0.385 OA
ATOM     19  H2* UNL     1      10.873  -0.495  25.957  0.00  0.00    +0.210 HD
ENDBRANCH   5  18
BRANCH   3  20
ATOM     20  C5* UNL     1       8.947   1.472  21.578  0.00  0.00    +0.190 C 
BRANCH  20  21
ATOM     21  O5* UNL     1      10.144   2.246  21.577  0.00  0.00    -0.392 OA
ATOM     22  H5* UNL     1      10.192   2.737  22.418  0.00  0.00    +0.210 HD
ENDBRANCH  20  21
ENDBRANCH   3  20
TORSDOF 6
ENDMDL
MODEL 5
REMARK VINA RESULT:      -5.7      3.042      5.992
REMARK  Name = 
REMARK  6 active torsions:
REMARK  status: ('A' for Active; 'I' for Inactive)
REMARK    1  A    between atoms: C_3  and  C_19
REMARK    2  A    between atoms: N_5  and  C1*_6
REMARK    3  A    between atoms: C2*_8  and  O2*_18
REMARK    4  A    between atoms: C3*_10  and  O3*_17
REMARK    5  A    between atoms: C4*_12  and  C5*_15
REMARK    6  A    between atoms: C5*_15  and  O5*_16
REMARK                            x       y       z     vdW  Elec       q    Type
REMARK                         _______ _______ _______ _____ _____    ______ ____
ROOT
ATOM      1  C1* UNL     1       9.387  -2.835  24.595  0.00  0.00    +0.270 C 
ATOM      2  O4* UNL     1       8.995  -3.997  23.826  0.00  0.00    -0.344 OA
ATOM      3  C4* UNL     1       8.281  -4.885  24.728  0.00  0.00    +0.177 C 
ATOM      4  C3* UNL     1       8.162  -4.166  26.075  0.00  0.00    +0.178 C 
ATOM      5  C2* UNL     1       8.345  -2.700  25.706  0.00  0.00    +0.196 C 
ENDROOT
BRANCH   1   7
ATOM      6  C   UNL     1       9.562  -1.774  22.349  0.00  0.00    +0.223 A 
ATOM      7  N   UNL     1       9.572  -1.697  23.712  0.00  0.00    -0.220 N 
ATOM      8  N   UNL     1       9.813  -0.430  24.126  0.00  0.00    -0.142 NA
ATOM      9  C   UNL     1       9.965   0.219  22.943  0.00  0.00    +0.236 A 
ATOM     10  N   UNL     1       9.819  -0.600  21.840  0.00  0.00    -0.211 NA
BRANCH   9  11
ATOM     11  C   UNL     1      10.276   1.660  22.825  0.00  0.00    +0.281 C 
ATOM     12  N   UNL     1       9.941   2.231  21.625  0.00  0.00    -0.323 N 
ATOM     13  H   UNL     1      10.141   3.209  21.478  0.00  0.00    +0.145 HD
ATOM     14  H   UNL     1       9.524   1.661  20.899  0.00  0.00    +0.145 HD
ATOM     15  O   UNL     1      10.793   2.343  23.707  0.00  0.00    -0.267 OA
ENDBRANCH   9  11
ENDBRANCH   1   7
BRANCH   4  16
ATOM     16  O3* UNL     1       9.260  -4.558  26.921  0.00  0.00    -0.386 OA
ATOM     17  H3* UNL     1       9.966  -3.897  26.791  0.00  0.00    +0.210 HD
ENDBRANCH   4  16
BRANCH   5  18
ATOM     18  O2* UNL     1       8.775  -1.950  26.841  0.00  0.00    -0.385 OA
ATOM     19  H2* UNL     1       9.448  -1.313  26.531  0.00  0.00    +0.210 HD
ENDBRANCH   5  18
BRANCH   3  20
ATOM     20  C5* UNL     1       6.914  -5.224  24.126  0.00  0.00    +0.190 C 
BRANCH  20  21
ATOM     21  O5* UNL     1       6.712  -4.573  22.874  0.00  0.00    -0.392 OA
ATOM     22  H5* UNL     1       6.408  -5.237  22.229  0.00  0.00    +0.210 HD
ENDBRANCH  20  21
ENDBRANCH   3  20
TORSDOF 6
ENDMDL
MODEL 6
REMARK VINA RESULT:      -5.7      1.393      1.614
REMARK  Name = 
REMARK  6 active torsions:
REMARK  status: ('A' for Active; 'I' for Inactive)
REMARK    1  A    between atoms: C_3  and  C_19
REMARK    2  A    between atoms: N_5  and  C1*_6
REMARK    3  A    between atoms: C2*_8  and  O2*_18
REMARK    4  A    between atoms: C3*_10  and  O3*_17
REMARK    5  A    between atoms: C4*_12  and  C5*_15
REMARK    6  A    between atoms: C5*_15  and  O5*_16
REMARK                            x       y       z     vdW  Elec       q    Type
REMARK                         _______ _______ _______ _____ _____    ______ ____
ROOT
ATOM      1  C1* UNL     1       8.795  -1.743  23.354  0.00  0.00    +0.270 C 
ATOM      2  O4* UNL     1       7.812  -0.717  23.633  0.00  0.00    -0.344 OA
ATOM      3  C4* UNL     1       8.391   0.552  23.224  0.00  0.00    +0.177 C 
ATOM      4  C3* UNL     1       9.747   0.247  22.581  0.00  0.00    +0.178 C 
ATOM      5  C2* UNL     1       9.623  -1.217  22.181  0.00  0.00    +0.196 C 
ENDROOT
BRANCH   1   7
ATOM      6  C   UNL     1       8.368  -4.118  23.970  0.00  0.00    +0.223 A 
ATOM      7  N   UNL     1       8.136  -3.025  23.184  0.00  0.00    -0.220 N 
ATOM      8  N   UNL     1       7.243  -3.311  22.206  0.00  0.00    -0.142 NA
ATOM      9  C   UNL     1       6.985  -4.622  22.447  0.00  0.00    +0.236 A 
ATOM     10  N   UNL     1       7.677  -5.133  23.528  0.00  0.00    -0.211 NA
BRANCH   9  11
ATOM     11  C   UNL     1       6.068  -5.447  21.631  0.00  0.00    +0.281 C 
ATOM     12  N   UNL     1       5.276  -6.311  22.340  0.00  0.00    -0.323 N 
ATOM     13  H   UNL     1       4.639  -6.913  21.839  0.00  0.00    +0.145 HD
ATOM     14  H   UNL     1       5.360  -6.353  23.349  0.00  0.00    +0.145 HD
ATOM     15  O   UNL     1       5.980  -5.399  20.405  0.00  0.00    -0.267 OA
ENDBRANCH   9  11
ENDBRANCH   1   7
BRANCH   4  16
ATOM     16  O3* UNL     1      10.781   0.356  23.578  0.00  0.00    -0.386 OA
ATOM     17  H3* UNL     1      11.386   1.062  23.280  0.00  0.00    +0.210 HD
ENDBRANCH   4  16
BRANCH   5  18
ATOM     18  O2* UNL     1      10.914  -1.810  22.048  0.00  0.00    -0.385 OA
ATOM     19  H2* UNL     1      10.782  -2.767  21.906  0.00  0.00    +0.210 HD
ENDBRANCH   5  18
BRANCH   3  20
ATOM     20  C5* UNL     1       7.433   1.255  22.257  0.00  0.00    +0.190 C 
BRANCH  20  21
ATOM     21  O5* UNL     1       8.126   1.830  21.152  0.00  0.00    -0.392 OA
ATOM     22  H5* UNL     1       7.740   2.706  20.971  0.00  0.00    +0.210 HD
ENDBRANCH  20  21
ENDBRANCH   3  20
TORSDOF 6
ENDMDL
MODEL 7
REMARK VINA RESULT:      -5.6      2.738      5.781
REMARK  Name = 
REMARK  6 active torsions:
REMARK  status: ('A' for Active; 'I' for Inactive)
REMARK    1  A    between atoms: C_3  and  C_19
REMARK    2  A    between atoms: N_5  and  C1*_6
REMARK    3  A    between atoms: C2*_8  and  O2*_18
REMARK    4  A    between atoms: C3*_10  and  O3*_17
REMARK    5  A    between atoms: C4*_12  and  C5*_15
REMARK    6  A    between atoms: C5*_15  and  O5*_16
REMARK                            x       y       z     vdW  Elec       q    Type
REMARK                         _______ _______ _______ _____ _____    ______ ____
ROOT
ATOM      1  C1* UNL     1       7.477  -2.779  23.449  0.00  0.00    +0.270 C 
ATOM      2  O4* UNL     1       8.129  -3.120  24.696  0.00  0.00    -0.344 OA
ATOM      3  C4* UNL     1       7.795  -4.504  24.988  0.00  0.00    +0.177 C 
ATOM      4  C3* UNL     1       6.984  -5.037  23.804  0.00  0.00    +0.178 C 
ATOM      5  C2* UNL     1       7.358  -4.091  22.671  0.00  0.00    +0.196 C 
ENDROOT
BRANCH   1   7
ATOM      6  C   UNL     1       9.407  -1.801  22.215  0.00  0.00    +0.223 A 
ATOM      7  N   UNL     1       8.181  -1.684  22.805  0.00  0.00    -0.220 N 
ATOM      8  N   UNL     1       7.731  -0.408  22.743  0.00  0.00    -0.142 NA
ATOM      9  C   UNL     1       8.760   0.213  22.111  0.00  0.00    +0.236 A 
ATOM     10  N   UNL     1       9.802  -0.634  21.785  0.00  0.00    -0.211 NA
BRANCH   9  11
ATOM     11  C   UNL     1       8.790   1.660  21.807  0.00  0.00    +0.281 C 
ATOM     12  N   UNL     1      10.043   2.198  21.664  0.00  0.00    -0.323 N 
ATOM     13  H   UNL     1      10.131   3.184  21.470  0.00  0.00    +0.145 HD
ATOM     14  H   UNL     1      10.857   1.607  21.780  0.00  0.00    +0.145 HD
ATOM     15  O   UNL     1       7.797   2.373  21.679  0.00  0.00    -0.267 OA
ENDBRANCH   9  11
ENDBRANCH   1   7
BRANCH   4  16
ATOM     16  O3* UNL     1       5.579  -4.877  24.080  0.00  0.00    -0.386 OA
ATOM     17  H3* UNL     1       5.475  -4.925  25.050  0.00  0.00    +0.210 HD
ENDBRANCH   4  16
BRANCH   5  18
ATOM     18  O2* UNL     1       6.348  -4.097  21.662  0.00  0.00    -0.385 OA
ATOM     19  H2* UNL     1       5.498  -4.289  22.101  0.00  0.00    +0.210 HD
ENDBRANCH   5  18
BRANCH   3  20
ATOM     20  C5* UNL     1       9.085  -5.297  25.214  0.00  0.00    +0.190 C 
BRANCH  20  21
ATOM     21  O5* UNL     1      10.224  -4.613  24.697  0.00  0.00    -0.392 OA
ATOM     22  H5* UNL     1      10.901  -4.571  25.397  0.00  0.00    +0.210 HD
ENDBRANCH  20  21
ENDBRANCH   3  20
TORSDOF 6
ENDMDL
MODEL 8
REMARK VINA RESULT:      -5.6      2.484      3.420
REMARK  Name = 
REMARK  6 active torsions:
REMARK  status: ('A' for Active; 'I' for Inactive)
REMARK    1  A    between atoms: C_3  and  C_19
REMARK    2  A    between atoms: N_5  and  C1*_6
REMARK    3  A    between atoms: C2*_8  and  O2*_18
REMARK    4  A    between atoms: C3*_10  and  O3*_17
REMARK    5  A    between atoms: C4*_12  and  C5*_15
REMARK    6  A    between atoms: C5*_15  and  O5*_16
REMARK                            x       y       z     vdW  Elec       q    Type
REMARK                         _______ _______ _______ _____ _____    ______ ____
ROOT
ATOM      1  C1* UNL     1       8.865  -0.318  22.424  0.00  0.00    +0.270 C 
ATOM      2  O4* UNL     1      10.167   0.316  22.445  0.00  0.00    -0.344 OA
ATOM      3  C4* UNL     1       9.947   1.748  22.332  0.00  0.00    +0.177 C 
ATOM      4  C3* UNL     1       8.434   1.978  22.342  0.00  0.00    +0.178 C 
ATOM      5  C2* UNL     1       7.892   0.715  22.996  0.00  0.00    +0.196 C 
ENDROOT
BRANCH   1   7
ATOM      6  C   UNL     1      10.067  -2.130  23.637  0.00  0.00    +0.223 A 
ATOM      7  N   UNL     1       8.932  -1.608  23.085  0.00  0.00    -0.220 N 
ATOM      8  N   UNL     1       7.894  -2.471  23.204  0.00  0.00    -0.142 NA
ATOM      9  C   UNL     1       8.483  -3.523  23.828  0.00  0.00    +0.236 A 
ATOM     10  N   UNL     1       9.824  -3.328  24.096  0.00  0.00    -0.211 NA
BRANCH   9  11
ATOM     11  C   UNL     1       7.778  -4.774  24.181  0.00  0.00    +0.281 C 
ATOM     12  N   UNL     1       7.921  -5.175  25.484  0.00  0.00    -0.323 N 
ATOM     13  H   UNL     1       7.476  -6.029  25.783  0.00  0.00    +0.145 HD
ATOM     14  H   UNL     1       8.490  -4.625  26.116  0.00  0.00    +0.145 HD
ATOM     15  O   UNL     1       7.098  -5.442  23.404  0.00  0.00    -0.267 OA
ENDBRANCH   9  11
ENDBRANCH   1   7
BRANCH   4  16
ATOM     16  O3* UNL     1       7.951   2.026  20.985  0.00  0.00    -0.386 OA
ATOM     17  H3* UNL     1       7.105   1.539  20.970  0.00  0.00    +0.210 HD
ENDBRANCH   4  16
BRANCH   5  18
ATOM     18  O2* UNL     1       6.526   0.511  22.635  0.00  0.00    -0.385 OA
ATOM     19  H2* UNL     1       6.165  -0.171  23.233  0.00  0.00    +0.210 HD
ENDBRANCH   5  18
BRANCH   3  20
ATOM     20  C5* UNL     1      10.653   2.460  23.489  0.00  0.00    +0.190 C 
BRANCH  20  21
ATOM     21  O5* UNL     1      11.112   3.756  23.112  0.00  0.00    -0.392 OA
ATOM     22  H5* UNL     1      11.991   3.661  22.700  0.00  0.00    +0.210 HD
ENDBRANCH  20  21
ENDBRANCH   3  20
TORSDOF 6
ENDMDL
MODEL 9
REMARK VINA RESULT:      -5.5      2.579      6.046
REMARK  Name = 
REMARK  6 active torsions:
REMARK  status: ('A' for Active; 'I' for Inactive)
REMARK    1  A    between atoms: C_3  and  C_19
REMARK    2  A    between atoms: N_5  and  C1*_6
REMARK    3  A    between atoms: C2*_8  and  O2*_18
REMARK    4  A    between atoms: C3*_10  and  O3*_17
REMARK    5  A    between atoms: C4*_12  and  C5*_15
REMARK    6  A    between atoms: C5*_15  and  O5*_16
REMARK                            x       y       z     vdW  Elec       q    Type
REMARK                         _______ _______ _______ _____ _____    ______ ____
ROOT
ATOM      1  C1* UNL     1       7.478  -2.842  23.512  0.00  0.00    +0.270 C 
ATOM      2  O4* UNL     1       8.054  -4.099  23.081  0.00  0.00    -0.344 OA
ATOM      3  C4* UNL     1       6.995  -5.093  23.129  0.00  0.00    +0.177 C 
ATOM      4  C3* UNL     1       5.704  -4.365  23.515  0.00  0.00    +0.178 C 
ATOM      5  C2* UNL     1       5.995  -2.917  23.144  0.00  0.00    +0.196 C 
ENDROOT
BRANCH   1   7
ATOM      6  C   UNL     1       9.590  -1.770  22.746  0.00  0.00    +0.223 A 
ATOM      7  N   UNL     1       8.244  -1.734  22.970  0.00  0.00    -0.220 N 
ATOM      8  N   UNL     1       7.730  -0.521  22.656  0.00  0.00    -0.142 NA
ATOM      9  C   UNL     1       8.842   0.152  22.262  0.00  0.00    +0.236 A 
ATOM     10  N   UNL     1       9.996  -0.605  22.318  0.00  0.00    -0.211 NA
BRANCH   9  11
ATOM     11  C   UNL     1       8.841   1.565  21.827  0.00  0.00    +0.281 C 
ATOM     12  N   UNL     1      10.082   2.119  21.646  0.00  0.00    -0.323 N 
ATOM     13  H   UNL     1      10.149   3.085  21.364  0.00  0.00    +0.145 HD
ATOM     14  H   UNL     1      10.909   1.561  21.823  0.00  0.00    +0.145 HD
ATOM     15  O   UNL     1       7.833   2.239  21.625  0.00  0.00    -0.267 OA
ENDBRANCH   9  11
ENDBRANCH   1   7
BRANCH   4  16
ATOM     16  O3* UNL     1       5.527  -4.438  24.943  0.00  0.00    -0.386 OA
ATOM     17  H3* UNL     1       6.357  -4.121  25.346  0.00  0.00    +0.210 HD
ENDBRANCH   4  16
BRANCH   5  18
ATOM     18  O2* UNL     1       5.151  -2.034  23.882  0.00  0.00    -0.385 OA
ATOM     19  H2* UNL     1       4.590  -1.561  23.238  0.00  0.00    +0.210 HD
ENDBRANCH   5  18
BRANCH   3  20
ATOM     20  C5* UNL     1       6.889  -5.783  21.765  0.00  0.00    +0.190 C 
BRANCH  20  21
ATOM     21  O5* UNL     1       5.588  -6.323  21.546  0.00  0.00    -0.392 OA
ATOM     22  H5* UNL     1       5.020  -6.066  22.295  0.00  0.00    +0.210 HD
ENDBRANCH  20  21
ENDBRANCH   3  20
TORSDOF 6
ENDMDL
