MODEL 1
REMARK VINA RESULT:      -3.5      0.000      0.000
REMARK  Name = 
REMARK  5 active torsions:
REMARK  status: ('A' for Active; 'I' for Inactive)
REMARK    1  A    between atoms: C_1  and  C_2
REMARK    2  A    between atoms: C_1  and  P_5
REMARK    3  A    between atoms: C_2  and  O_4
REMARK    4  A    between atoms: P_5  and  O_7
REMARK    5  A    between atoms: P_5  and  O_8
REMARK                            x       y       z     vdW  Elec       q    Type
REMARK                         _______ _______ _______ _____ _____    ______ ____
ROOT
ATOM      1  P   UNL     1       7.688  -4.895  26.691  0.00  0.00    +0.338 P 
ATOM      2  O   UNL     1       6.690  -5.668  25.825  0.00  0.00    -0.258 OA
ENDROOT
BRANCH   1   3
ATOM      3  O   UNL     1       7.520  -6.105  27.916  0.00  0.00    -0.324 OA
ATOM      4  H   UNL     1       6.683  -6.562  27.682  0.00  0.00    +0.220 HD
ENDBRANCH   1   3
BRANCH   1   5
ATOM      5  O   UNL     1       9.171  -5.503  26.375  0.00  0.00    -0.324 OA
ATOM      6  H   UNL     1       9.599  -5.856  27.181  0.00  0.00    +0.220 HD
ENDBRANCH   1   5
BRANCH   1   7
ATOM      7  C   UNL     1       7.867  -3.615  25.395  0.00  0.00    +0.247 C 
BRANCH   7   8
ATOM      8  C   UNL     1       8.868  -4.125  24.417  0.00  0.00    +0.316 C 
ATOM      9  O   UNL     1       9.971  -3.618  24.272  0.00  0.00    -0.250 OA
BRANCH   8  10
ATOM     10  O   UNL     1       8.431  -5.147  23.660  0.00  0.00    -0.480 OA
ATOM     11  H   UNL     1       8.838  -6.010  23.890  0.00  0.00    +0.295 HD
ENDBRANCH   8  10
ENDBRANCH   7   8
ENDBRANCH   1   7
TORSDOF 5
ENDMDL
MODEL 2
REMARK VINA RESULT:      -3.4      4.866      6.486
REMARK  Name = 
REMARK  5 active torsions:
REMARK  status: ('A' for Active; 'I' for Inactive)
REMARK    1  A    between atoms: C_1  and  C_2
REMARK    2  A    between atoms: C_1  and  P_5
REMARK    3  A    between atoms: C_2  and  O_4
REMARK    4  A    between atoms: P_5  and  O_7
REMARK    5  A    between atoms: P_5  and  O_8
REMARK                            x       y       z     vdW  Elec       q    Type
REMARK                         _______ _______ _______ _____ _____    ______ ____
ROOT
ATOM      1  P   UNL     1       9.874   0.867  22.507  0.00  0.00    +0.338 P 
ATOM      2  O   UNL     1       8.388   0.500  22.471  0.00  0.00    -0.258 OA
ENDROOT
BRANCH   1   3
ATOM      3  O   UNL     1       9.568   2.104  21.336  0.00  0.00    -0.324 OA
ATOM      4  H   UNL     1       8.927   2.699  21.783  0.00  0.00    +0.220 HD
ENDBRANCH   1   3
BRANCH   1   5
ATOM      5  O   UNL     1      10.051   2.048  23.621  0.00  0.00    -0.324 OA
ATOM      6  H   UNL     1      10.234   1.685  24.511  0.00  0.00    +0.220 HD
ENDBRANCH   1   5
BRANCH   1   7
ATOM      7  C   UNL     1      10.198  -0.440  23.745  0.00  0.00    +0.247 C 
BRANCH   7   8
ATOM      8  C   UNL     1      10.198  -1.738  23.015  0.00  0.00    +0.316 C 
ATOM      9  O   UNL     1      10.188  -2.820  23.584  0.00  0.00    -0.250 OA
BRANCH   8  10
ATOM     10  O   UNL     1      10.277  -1.621  21.677  0.00  0.00    -0.480 OA
ATOM     11  H   UNL     1       9.718  -0.903  21.310  0.00  0.00    +0.295 HD
ENDBRANCH   8  10
ENDBRANCH   7   8
ENDBRANCH   1   7
TORSDOF 5
ENDMDL
MODEL 3
REMARK VINA RESULT:      -3.4      6.794      7.994
REMARK  Name = 
REMARK  5 active torsions:
REMARK  status: ('A' for Active; 'I' for Inactive)
REMARK    1  A    between atoms: C_1  and  C_2
REMARK    2  A    between atoms: C_1  and  P_5
REMARK    3  A    between atoms: C_2  and  O_4
REMARK    4  A    between atoms: P_5  and  O_7
REMARK    5  A    between atoms: P_5  and  O_8
REMARK                            x       y       z     vdW  Elec       q    Type
REMARK                         _______ _______ _______ _____ _____    ______ ____
ROOT
ATOM      1  P   UNL     1       9.847   0.794  22.477  0.00  0.00    +0.338 P 
ATOM      2  O   UNL     1       8.346   0.877  22.767  0.00  0.00    -0.258 OA
ENDROOT
BRANCH   1   3
ATOM      3  O   UNL     1       9.497  -0.186  21.095  0.00  0.00    -0.324 OA
ATOM      4  H   UNL     1       8.567  -0.466  21.234  0.00  0.00    +0.220 HD
ENDBRANCH   1   3
BRANCH   1   5
ATOM      5  O   UNL     1      10.208   2.012  21.450  0.00  0.00    -0.324 OA
ATOM      6  H   UNL     1      10.160   2.885  21.889  0.00  0.00    +0.220 HD
ENDBRANCH   1   5
BRANCH   1   7
ATOM      7  C   UNL     1      10.217   1.830  23.940  0.00  0.00    +0.247 C 
BRANCH   7   8
ATOM      8  C   UNL     1      10.390   3.226  23.449  0.00  0.00    +0.316 C 
ATOM      9  O   UNL     1      11.482   3.769  23.365  0.00  0.00    -0.250 OA
BRANCH   8  10
ATOM     10  O   UNL     1       9.238   3.861  23.170  0.00  0.00    -0.480 OA
ATOM     11  H   UNL     1       9.013   3.868  22.215  0.00  0.00    +0.295 HD
ENDBRANCH   8  10
ENDBRANCH   7   8
ENDBRANCH   1   7
TORSDOF 5
ENDMDL
MODEL 4
REMARK VINA RESULT:      -3.3      1.720      3.617
REMARK  Name = 
REMARK  5 active torsions:
REMARK  status: ('A' for Active; 'I' for Inactive)
REMARK    1  A    between atoms: C_1  and  C_2
REMARK    2  A    between atoms: C_1  and  P_5
REMARK    3  A    between atoms: C_2  and  O_4
REMARK    4  A    between atoms: P_5  and  O_7
REMARK    5  A    between atoms: P_5  and  O_8
REMARK                            x       y       z     vdW  Elec       q    Type
REMARK                         _______ _______ _______ _____ _____    ______ ____
ROOT
ATOM      1  P   UNL     1       8.554  -3.197  24.251  0.00  0.00    +0.338 P 
ATOM      2  O   UNL     1      10.071  -3.291  24.074  0.00  0.00    -0.258 OA
ENDROOT
BRANCH   1   3
ATOM      3  O   UNL     1       8.416  -2.751  22.585  0.00  0.00    -0.324 OA
ATOM      4  H   UNL     1       8.857  -1.875  22.538  0.00  0.00    +0.220 HD
ENDBRANCH   1   3
BRANCH   1   5
ATOM      5  O   UNL     1       7.931  -4.653  23.853  0.00  0.00    -0.324 OA
ATOM      6  H   UNL     1       8.555  -5.382  24.047  0.00  0.00    +0.220 HD
ENDBRANCH   1   5
BRANCH   1   7
ATOM      7  C   UNL     1       8.700  -3.668  26.014  0.00  0.00    +0.247 C 
BRANCH   7   8
ATOM      8  C   UNL     1       8.732  -5.156  26.063  0.00  0.00    +0.316 C 
ATOM      9  O   UNL     1       7.797  -5.827  26.475  0.00  0.00    -0.250 OA
BRANCH   8  10
ATOM     10  O   UNL     1       9.902  -5.697  25.679  0.00  0.00    -0.480 OA
ATOM     11  H   UNL     1      10.688  -5.218  26.017  0.00  0.00    +0.295 HD
ENDBRANCH   8  10
ENDBRANCH   7   8
ENDBRANCH   1   7
TORSDOF 5
ENDMDL
MODEL 5
REMARK VINA RESULT:      -3.3      1.726      3.461
REMARK  Name = 
REMARK  5 active torsions:
REMARK  status: ('A' for Active; 'I' for Inactive)
REMARK    1  A    between atoms: C_1  and  C_2
REMARK    2  A    between atoms: C_1  and  P_5
REMARK    3  A    between atoms: C_2  and  O_4
REMARK    4  A    between atoms: P_5  and  O_7
REMARK    5  A    between atoms: P_5  and  O_8
REMARK                            x       y       z     vdW  Elec       q    Type
REMARK                         _______ _______ _______ _____ _____    ______ ____
ROOT
ATOM      1  P   UNL     1       8.622  -4.895  25.101  0.00  0.00    +0.338 P 
ATOM      2  O   UNL     1       8.863  -3.532  25.756  0.00  0.00    -0.258 OA
ENDROOT
BRANCH   1   3
ATOM      3  O   UNL     1      10.329  -5.051  24.866  0.00  0.00    -0.324 OA
ATOM      4  H   UNL     1      10.410  -5.423  23.961  0.00  0.00    +0.220 HD
ENDBRANCH   1   3
BRANCH   1   5
ATOM      5  O   UNL     1       8.739  -6.022  26.277  0.00  0.00    -0.324 OA
ATOM      6  H   UNL     1       8.703  -5.623  27.169  0.00  0.00    +0.220 HD
ENDBRANCH   1   5
BRANCH   1   7
ATOM      7  C   UNL     1       6.817  -4.729  25.348  0.00  0.00    +0.247 C 
BRANCH   7   8
ATOM      8  C   UNL     1       6.495  -5.392  26.643  0.00  0.00    +0.316 C 
ATOM      9  O   UNL     1       5.922  -6.469  26.712  0.00  0.00    -0.250 OA
BRANCH   8  10
ATOM     10  O   UNL     1       6.827  -4.673  27.730  0.00  0.00    -0.480 OA
ATOM     11  H   UNL     1       6.059  -4.259  28.179  0.00  0.00    +0.295 HD
ENDBRANCH   8  10
ENDBRANCH   7   8
ENDBRANCH   1   7
TORSDOF 5
ENDMDL
MODEL 6
REMARK VINA RESULT:      -3.3      4.502      5.709
REMARK  Name = 
REMARK  5 active torsions:
REMARK  status: ('A' for Active; 'I' for Inactive)
REMARK    1  A    between atoms: C_1  and  C_2
REMARK    2  A    between atoms: C_1  and  P_5
REMARK    3  A    between atoms: C_2  and  O_4
REMARK    4  A    between atoms: P_5  and  O_7
REMARK    5  A    between atoms: P_5  and  O_8
REMARK                            x       y       z     vdW  Elec       q    Type
REMARK                         _______ _______ _______ _____ _____    ______ ____
ROOT
ATOM      1  P   UNL     1       9.509  -1.576  22.959  0.00  0.00    +0.338 P 
ATOM      2  O   UNL     1       8.394  -2.453  22.381  0.00  0.00    -0.258 OA
ENDROOT
BRANCH   1   3
ATOM      3  O   UNL     1      10.144  -2.967  23.768  0.00  0.00    -0.324 OA
ATOM      4  H   UNL     1      11.034  -2.679  24.069  0.00  0.00    +0.220 HD
ENDBRANCH   1   3
BRANCH   1   5
ATOM      5  O   UNL     1      10.775  -1.668  21.932  0.00  0.00    -0.324 OA
ATOM      6  H   UNL     1      10.794  -0.913  21.309  0.00  0.00    +0.220 HD
ENDBRANCH   1   5
BRANCH   1   7
ATOM      7  C   UNL     1       8.836  -0.105  22.104  0.00  0.00    +0.247 C 
BRANCH   7   8
ATOM      8  C   UNL     1       9.808   1.003  22.318  0.00  0.00    +0.316 C 
ATOM      9  O   UNL     1      10.559   1.049  23.282  0.00  0.00    -0.250 OA
BRANCH   8  10
ATOM     10  O   UNL     1       9.743   1.982  21.399  0.00  0.00    -0.480 OA
ATOM     11  H   UNL     1       9.070   2.667  21.599  0.00  0.00    +0.295 HD
ENDBRANCH   8  10
ENDBRANCH   7   8
ENDBRANCH   1   7
TORSDOF 5
ENDMDL
MODEL 7
REMARK VINA RESULT:      -3.3      4.693      6.386
REMARK  Name = 
REMARK  5 active torsions:
REMARK  status: ('A' for Active; 'I' for Inactive)
REMARK    1  A    between atoms: C_1  and  C_2
REMARK    2  A    between atoms: C_1  and  P_5
REMARK    3  A    between atoms: C_2  and  O_4
REMARK    4  A    between atoms: P_5  and  O_7
REMARK    5  A    between atoms: P_5  and  O_8
REMARK                            x       y       z     vdW  Elec       q    Type
REMARK                         _______ _______ _______ _____ _____    ______ ____
ROOT
ATOM      1  P   UNL     1       9.307   0.766  22.389  0.00  0.00    +0.338 P 
ATOM      2  O   UNL     1      10.516   0.752  23.328  0.00  0.00    -0.258 OA
ENDROOT
BRANCH   1   3
ATOM      3  O   UNL     1      10.076   2.009  21.464  0.00  0.00    -0.324 OA
ATOM      4  H   UNL     1      10.124   1.634  20.558  0.00  0.00    +0.220 HD
ENDBRANCH   1   3
BRANCH   1   5
ATOM      5  O   UNL     1       9.635  -0.266  21.167  0.00  0.00    -0.324 OA
ATOM      6  H   UNL     1      10.185   0.152  20.474  0.00  0.00    +0.220 HD
ENDBRANCH   1   5
BRANCH   1   7
ATOM      7  C   UNL     1       8.494  -0.548  23.368  0.00  0.00    +0.247 C 
BRANCH   7   8
ATOM      8  C   UNL     1       8.988  -1.850  22.840  0.00  0.00    +0.316 C 
ATOM      9  O   UNL     1       8.298  -2.596  22.161  0.00  0.00    -0.250 OA
BRANCH   8  10
ATOM     10  O   UNL     1      10.236  -2.168  23.229  0.00  0.00    -0.480 OA
ATOM     11  H   UNL     1      10.907  -1.492  22.992  0.00  0.00    +0.295 HD
ENDBRANCH   8  10
ENDBRANCH   7   8
ENDBRANCH   1   7
TORSDOF 5
ENDMDL
MODEL 8
REMARK VINA RESULT:      -3.2      1.578      2.149
REMARK  Name = 
REMARK  5 active torsions:
REMARK  status: ('A' for Active; 'I' for Inactive)
REMARK    1  A    between atoms: C_1  and  C_2
REMARK    2  A    between atoms: C_1  and  P_5
REMARK    3  A    between atoms: C_2  and  O_4
REMARK    4  A    between atoms: P_5  and  O_7
REMARK    5  A    between atoms: P_5  and  O_8
REMARK                            x       y       z     vdW  Elec       q    Type
REMARK                         _______ _______ _______ _____ _____    ______ ____
ROOT
ATOM      1  P   UNL     1       8.176  -4.891  25.210  0.00  0.00    +0.338 P 
ATOM      2  O   UNL     1       9.430  -5.577  24.663  0.00  0.00    -0.258 OA
ENDROOT
BRANCH   1   3
ATOM      3  O   UNL     1       8.294  -5.871  26.631  0.00  0.00    -0.324 OA
ATOM      4  H   UNL     1       8.034  -5.265  27.358  0.00  0.00    +0.220 HD
ENDBRANCH   1   3
BRANCH   1   5
ATOM      5  O   UNL     1       8.674  -3.625  26.113  0.00  0.00    -0.324 OA
ATOM      6  H   UNL     1       9.625  -3.436  25.983  0.00  0.00    +0.220 HD
ENDBRANCH   1   5
BRANCH   1   7
ATOM      7  C   UNL     1       8.050  -3.855  23.708  0.00  0.00    +0.247 C 
BRANCH   7   8
ATOM      8  C   UNL     1       8.969  -2.698  23.901  0.00  0.00    +0.316 C 
ATOM      9  O   UNL     1       8.570  -1.555  24.067  0.00  0.00    -0.250 OA
BRANCH   8  10
ATOM     10  O   UNL     1      10.275  -3.008  23.811  0.00  0.00    -0.480 OA
ATOM     11  H   UNL     1      10.492  -3.905  24.143  0.00  0.00    +0.295 HD
ENDBRANCH   8  10
ENDBRANCH   7   8
ENDBRANCH   1   7
TORSDOF 5
ENDMDL
MODEL 9
REMARK VINA RESULT:      -3.2      4.375      5.556
REMARK  Name = 
REMARK  5 active torsions:
REMARK  status: ('A' for Active; 'I' for Inactive)
REMARK    1  A    between atoms: C_1  and  C_2
REMARK    2  A    between atoms: C_1  and  P_5
REMARK    3  A    between atoms: C_2  and  O_4
REMARK    4  A    between atoms: P_5  and  O_7
REMARK    5  A    between atoms: P_5  and  O_8
REMARK                            x       y       z     vdW  Elec       q    Type
REMARK                         _______ _______ _______ _____ _____    ______ ____
ROOT
ATOM      1  P   UNL     1       8.097   0.049  23.156  0.00  0.00    +0.338 P 
ATOM      2  O   UNL     1       8.548   0.681  21.837  0.00  0.00    -0.258 OA
ENDROOT
BRANCH   1   3
ATOM      3  O   UNL     1       6.464   0.458  22.761  0.00  0.00    -0.324 OA
ATOM      4  H   UNL     1       6.025  -0.413  22.642  0.00  0.00    +0.220 HD
ENDBRANCH   1   3
BRANCH   1   5
ATOM      5  O   UNL     1       7.723  -1.509  22.841  0.00  0.00    -0.324 OA
ATOM      6  H   UNL     1       6.908  -1.587  22.305  0.00  0.00    +0.220 HD
ENDBRANCH   1   5
BRANCH   1   7
ATOM      7  C   UNL     1       9.826  -0.383  23.575  0.00  0.00    +0.247 C 
BRANCH   7   8
ATOM      8  C   UNL     1      10.114  -1.692  22.924  0.00  0.00    +0.316 C 
ATOM      9  O   UNL     1      10.240  -2.732  23.553  0.00  0.00    -0.250 OA
BRANCH   8  10
ATOM     10  O   UNL     1      10.292  -1.620  21.593  0.00  0.00    -0.480 OA
ATOM     11  H   UNL     1      10.625  -0.750  21.285  0.00  0.00    +0.295 HD
ENDBRANCH   8  10
ENDBRANCH   7   8
ENDBRANCH   1   7
TORSDOF 5
ENDMDL
