MODEL 1
REMARK VINA RESULT:      -5.9      0.000      0.000
REMARK  Name = 
REMARK  4 active torsions:
REMARK  status: ('A' for Active; 'I' for Inactive)
REMARK    1  A    between atoms: C3*_2  and  O3*_20
REMARK    2  A    between atoms: C4*_4  and  C5*_18
REMARK    3  A    between atoms: C1*_7  and  N_9
REMARK    4  A    between atoms: C5*_18  and  O5*_19
REMARK                            x       y       z     vdW  Elec       q    Type
REMARK                         _______ _______ _______ _____ _____    ______ ____
ROOT
ATOM      1  C2* UNL     1       6.734  -4.994  22.523  0.00  0.00    +0.086 C 
ATOM      2  C1* UNL     1       7.948  -4.864  23.441  0.00  0.00    +0.212 C 
ATOM      3  O4* UNL     1       8.450  -3.523  23.272  0.00  0.00    -0.350 OA
ATOM      4  C4* UNL     1       7.531  -2.795  22.431  0.00  0.00    +0.174 C 
ATOM      5  C3* UNL     1       6.224  -3.574  22.461  0.00  0.00    +0.150 C 
ENDROOT
BRANCH   2   6
ATOM      6  N   UNL     1       7.617  -5.098  24.841  0.00  0.00    -0.258 N 
ATOM      7  C   UNL     1       8.656  -5.315  25.733  0.00  0.00    +0.310 C 
ATOM      8  O   UNL     1       9.837  -5.369  25.412  0.00  0.00    -0.252 OA
ATOM      9  N   UNL     1       8.269  -5.514  27.036  0.00  0.00    -0.239 N 
ATOM     10  H   UNL     1       9.017  -5.694  27.690  0.00  0.00    +0.159 HD
ATOM     11  C   UNL     1       7.001  -5.817  27.479  0.00  0.00    +0.235 C 
ATOM     12  O   UNL     1       6.842  -6.240  28.623  0.00  0.00    -0.274 OA
ATOM     13  C   UNL     1       5.900  -5.711  26.441  0.00  0.00    +0.155 C 
ATOM     14  I   UNL     1       4.067  -5.119  27.338  0.00  0.00    -0.070 I 
ATOM     15  C   UNL     1       6.339  -4.687  25.404  0.00  0.00    +0.135 C 
ENDBRANCH   2   6
BRANCH   5  16
ATOM     16  O3* UNL     1       5.409  -3.343  21.323  0.00  0.00    -0.389 OA
ATOM     17  H3* UNL     1       4.476  -3.317  21.597  0.00  0.00    +0.210 HD
ENDBRANCH   5  16
BRANCH   4  18
ATOM     18  C5* UNL     1       7.393  -1.341  22.882  0.00  0.00    +0.190 C 
BRANCH  18  19
ATOM     19  O5* UNL     1       6.070  -1.045  23.322  0.00  0.00    -0.392 OA
ATOM     20  H5* UNL     1       5.547  -1.851  23.173  0.00  0.00    +0.210 HD
ENDBRANCH  18  19
ENDBRANCH   4  18
TORSDOF 4
ENDMDL
MODEL 2
REMARK VINA RESULT:      -5.8      2.006      2.572
REMARK  Name = 
REMARK  4 active torsions:
REMARK  status: ('A' for Active; 'I' for Inactive)
REMARK    1  A    between atoms: C3*_2  and  O3*_20
REMARK    2  A    between atoms: C4*_4  and  C5*_18
REMARK    3  A    between atoms: C1*_7  and  N_9
REMARK    4  A    between atoms: C5*_18  and  O5*_19
REMARK                            x       y       z     vdW  Elec       q    Type
REMARK                         _______ _______ _______ _____ _____    ______ ____
ROOT
ATOM      1  C2* UNL     1       7.777  -2.087  23.125  0.00  0.00    +0.086 C 
ATOM      2  C1* UNL     1       8.843  -3.035  23.669  0.00  0.00    +0.212 C 
ATOM      3  O4* UNL     1      10.008  -2.230  23.942  0.00  0.00    -0.350 OA
ATOM      4  C4* UNL     1       9.662  -0.844  23.742  0.00  0.00    +0.174 C 
ATOM      5  C3* UNL     1       8.142  -0.778  23.784  0.00  0.00    +0.150 C 
ENDROOT
BRANCH   2   6
ATOM      6  N   UNL     1       8.416  -3.719  24.884  0.00  0.00    -0.258 N 
ATOM      7  C   UNL     1       9.282  -4.635  25.460  0.00  0.00    +0.310 C 
ATOM      8  O   UNL     1      10.369  -4.944  24.987  0.00  0.00    -0.252 OA
ATOM      9  N   UNL     1       8.817  -5.229  26.608  0.00  0.00    -0.239 N 
ATOM     10  H   UNL     1       9.432  -5.914  27.024  0.00  0.00    +0.159 HD
ATOM     11  C   UNL     1       7.516  -5.242  27.058  0.00  0.00    +0.235 C 
ATOM     12  O   UNL     1       7.185  -6.032  27.940  0.00  0.00    -0.274 OA
ATOM     13  C   UNL     1       6.555  -4.334  26.313  0.00  0.00    +0.155 C 
ATOM     14  I   UNL     1       5.043  -3.602  27.613  0.00  0.00    -0.070 I 
ATOM     15  C   UNL     1       7.363  -3.182  25.734  0.00  0.00    +0.135 C 
ENDBRANCH   2   6
BRANCH   5  16
ATOM     16  O3* UNL     1       7.610   0.340  23.092  0.00  0.00    -0.389 OA
ATOM     17  H3* UNL     1       7.375   1.032  23.734  0.00  0.00    +0.210 HD
ENDBRANCH   5  16
BRANCH   4  18
ATOM     18  C5* UNL     1      10.347   0.057  24.768  0.00  0.00    +0.190 C 
BRANCH  18  19
ATOM     19  O5* UNL     1       9.434   0.981  25.357  0.00  0.00    -0.392 OA
ATOM     20  H5* UNL     1       8.556   0.758  25.004  0.00  0.00    +0.210 HD
ENDBRANCH  18  19
ENDBRANCH   4  18
TORSDOF 4
ENDMDL
MODEL 3
REMARK VINA RESULT:      -5.8      3.856      4.738
REMARK  Name = 
REMARK  4 active torsions:
REMARK  status: ('A' for Active; 'I' for Inactive)
REMARK    1  A    between atoms: C3*_2  and  O3*_20
REMARK    2  A    between atoms: C4*_4  and  C5*_18
REMARK    3  A    between atoms: C1*_7  and  N_9
REMARK    4  A    between atoms: C5*_18  and  O5*_19
REMARK                            x       y       z     vdW  Elec       q    Type
REMARK                         _______ _______ _______ _____ _____    ______ ____
ROOT
ATOM      1  C2* UNL     1       9.511  -0.480  21.957  0.00  0.00    +0.086 C 
ATOM      2  C1* UNL     1      10.253  -0.592  23.287  0.00  0.00    +0.212 C 
ATOM      3  O4* UNL     1      10.678   0.741  23.634  0.00  0.00    -0.350 OA
ATOM      4  C4* UNL     1      10.112   1.663  22.680  0.00  0.00    +0.174 C 
ATOM      5  C3* UNL     1       8.961   0.925  22.011  0.00  0.00    +0.150 C 
ENDROOT
BRANCH   2   6
ATOM      6  N   UNL     1       9.417  -1.139  24.348  0.00  0.00    -0.258 N 
ATOM      7  C   UNL     1       9.468  -2.504  24.586  0.00  0.00    +0.310 C 
ATOM      8  O   UNL     1      10.138  -3.291  23.929  0.00  0.00    -0.252 OA
ATOM      9  N   UNL     1       8.664  -2.945  25.609  0.00  0.00    -0.239 N 
ATOM     10  H   UNL     1       8.678  -3.940  25.776  0.00  0.00    +0.159 HD
ATOM     11  C   UNL     1       7.626  -2.254  26.193  0.00  0.00    +0.235 C 
ATOM     12  O   UNL     1       6.817  -2.855  26.898  0.00  0.00    -0.274 OA
ATOM     13  C   UNL     1       7.506  -0.794  25.802  0.00  0.00    +0.155 C 
ATOM     14  I   UNL     1       6.728   0.360  27.408  0.00  0.00    -0.070 I 
ATOM     15  C   UNL     1       8.895  -0.302  25.419  0.00  0.00    +0.135 C 
ENDBRANCH   2   6
BRANCH   5  16
ATOM     16  O3* UNL     1       8.644   1.430  20.724  0.00  0.00    -0.389 OA
ATOM     17  H3* UNL     1       8.257   0.718  20.187  0.00  0.00    +0.210 HD
ENDBRANCH   5  16
BRANCH   4  18
ATOM     18  C5* UNL     1       9.698   2.974  23.347  0.00  0.00    +0.190 C 
BRANCH  18  19
ATOM     19  O5* UNL     1       8.766   3.703  22.553  0.00  0.00    -0.392 OA
ATOM     20  H5* UNL     1       9.272   4.072  21.809  0.00  0.00    +0.210 HD
ENDBRANCH  18  19
ENDBRANCH   4  18
TORSDOF 4
ENDMDL
MODEL 4
REMARK VINA RESULT:      -5.7      3.261      4.685
REMARK  Name = 
REMARK  4 active torsions:
REMARK  status: ('A' for Active; 'I' for Inactive)
REMARK    1  A    between atoms: C3*_2  and  O3*_20
REMARK    2  A    between atoms: C4*_4  and  C5*_18
REMARK    3  A    between atoms: C1*_7  and  N_9
REMARK    4  A    between atoms: C5*_18  and  O5*_19
REMARK                            x       y       z     vdW  Elec       q    Type
REMARK                         _______ _______ _______ _____ _____    ______ ____
ROOT
ATOM      1  C2* UNL     1       5.729  -3.767  24.321  0.00  0.00    +0.086 C 
ATOM      2  C1* UNL     1       7.220  -4.045  24.507  0.00  0.00    +0.212 C 
ATOM      3  O4* UNL     1       7.535  -5.172  23.665  0.00  0.00    -0.350 OA
ATOM      4  C4* UNL     1       6.372  -5.492  22.875  0.00  0.00    +0.174 C 
ATOM      5  C3* UNL     1       5.482  -4.257  22.915  0.00  0.00    +0.150 C 
ENDROOT
BRANCH   2   6
ATOM      6  N   UNL     1       8.050  -2.903  24.141  0.00  0.00    -0.258 N 
ATOM      7  C   UNL     1       9.426  -3.065  24.150  0.00  0.00    +0.310 C 
ATOM      8  O   UNL     1       9.995  -4.094  24.492  0.00  0.00    -0.252 OA
ATOM      9  N   UNL     1      10.143  -1.952  23.782  0.00  0.00    -0.239 N 
ATOM     10  H   UNL     1      11.147  -2.052  23.806  0.00  0.00    +0.159 HD
ATOM     11  C   UNL     1       9.673  -0.660  23.708  0.00  0.00    +0.235 C 
ATOM     12  O   UNL     1      10.469   0.274  23.638  0.00  0.00    -0.274 OA
ATOM     13  C   UNL     1       8.171  -0.499  23.847  0.00  0.00    +0.155 C 
ATOM     14  I   UNL     1       7.477   1.151  22.702  0.00  0.00    -0.070 I 
ATOM     15  C   UNL     1       7.521  -1.789  23.368  0.00  0.00    +0.135 C 
ENDBRANCH   2   6
BRANCH   5  16
ATOM     16  O3* UNL     1       4.114  -4.545  22.676  0.00  0.00    -0.389 OA
ATOM     17  H3* UNL     1       3.647  -4.610  23.527  0.00  0.00    +0.210 HD
ENDBRANCH   5  16
BRANCH   4  18
ATOM     18  C5* UNL     1       6.757  -5.929  21.462  0.00  0.00    +0.190 C 
BRANCH  18  19
ATOM     19  O5* UNL     1       5.963  -5.283  20.471  0.00  0.00    -0.392 OA
ATOM     20  H5* UNL     1       5.060  -5.243  20.829  0.00  0.00    +0.210 HD
ENDBRANCH  18  19
ENDBRANCH   4  18
TORSDOF 4
ENDMDL
MODEL 5
REMARK VINA RESULT:      -5.7      2.977      4.129
REMARK  Name = 
REMARK  4 active torsions:
REMARK  status: ('A' for Active; 'I' for Inactive)
REMARK    1  A    between atoms: C3*_2  and  O3*_20
REMARK    2  A    between atoms: C4*_4  and  C5*_18
REMARK    3  A    between atoms: C1*_7  and  N_9
REMARK    4  A    between atoms: C5*_18  and  O5*_19
REMARK                            x       y       z     vdW  Elec       q    Type
REMARK                         _______ _______ _______ _____ _____    ______ ____
ROOT
ATOM      1  C2* UNL     1       5.331  -4.915  24.704  0.00  0.00    +0.086 C 
ATOM      2  C1* UNL     1       6.836  -5.169  24.647  0.00  0.00    +0.212 C 
ATOM      3  O4* UNL     1       7.106  -5.750  23.355  0.00  0.00    -0.350 OA
ATOM      4  C4* UNL     1       5.891  -5.722  22.579  0.00  0.00    +0.174 C 
ATOM      5  C3* UNL     1       4.985  -4.700  23.250  0.00  0.00    +0.150 C 
ENDROOT
BRANCH   2   6
ATOM      6  N   UNL     1       7.615  -3.948  24.815  0.00  0.00    -0.258 N 
ATOM      7  C   UNL     1       7.947  -3.555  26.101  0.00  0.00    +0.310 C 
ATOM      8  O   UNL     1       7.588  -4.143  27.114  0.00  0.00    -0.252 OA
ATOM      9  N   UNL     1       8.693  -2.403  26.181  0.00  0.00    -0.239 N 
ATOM     10  H   UNL     1       8.922  -2.096  27.115  0.00  0.00    +0.159 HD
ATOM     11  C   UNL     1       8.873  -1.471  25.184  0.00  0.00    +0.235 C 
ATOM     12  O   UNL     1       9.326  -0.363  25.463  0.00  0.00    -0.274 OA
ATOM     13  C   UNL     1       8.368  -1.872  23.811  0.00  0.00    +0.155 C 
ATOM     14  I   UNL     1       9.566  -1.014  22.282  0.00  0.00    -0.070 I 
ATOM     15  C   UNL     1       8.408  -3.391  23.729  0.00  0.00    +0.135 C 
ENDBRANCH   2   6
BRANCH   5  16
ATOM     16  O3* UNL     1       3.607  -4.913  22.986  0.00  0.00    -0.389 OA
ATOM     17  H3* UNL     1       3.148  -4.056  22.967  0.00  0.00    +0.210 HD
ENDBRANCH   5  16
BRANCH   4  18
ATOM     18  C5* UNL     1       6.174  -5.424  21.107  0.00  0.00    +0.190 C 
BRANCH  18  19
ATOM     19  O5* UNL     1       5.692  -4.138  20.724  0.00  0.00    -0.392 OA
ATOM     20  H5* UNL     1       6.302  -3.812  20.041  0.00  0.00    +0.210 HD
ENDBRANCH  18  19
ENDBRANCH   4  18
TORSDOF 4
ENDMDL
MODEL 6
REMARK VINA RESULT:      -5.7      3.770      4.907
REMARK  Name = 
REMARK  4 active torsions:
REMARK  status: ('A' for Active; 'I' for Inactive)
REMARK    1  A    between atoms: C3*_2  and  O3*_20
REMARK    2  A    between atoms: C4*_4  and  C5*_18
REMARK    3  A    between atoms: C1*_7  and  N_9
REMARK    4  A    between atoms: C5*_18  and  O5*_19
REMARK                            x       y       z     vdW  Elec       q    Type
REMARK                         _______ _______ _______ _____ _____    ______ ____
ROOT
ATOM      1  C2* UNL     1      10.224   0.033  22.557  0.00  0.00    +0.086 C 
ATOM      2  C1* UNL     1      10.286  -0.318  24.042  0.00  0.00    +0.212 C 
ATOM      3  O4* UNL     1      10.276   0.933  24.760  0.00  0.00    -0.350 OA
ATOM      4  C4* UNL     1      10.059   2.000  23.815  0.00  0.00    +0.174 C 
ATOM      5  C3* UNL     1       9.481   1.348  22.567  0.00  0.00    +0.150 C 
ENDROOT
BRANCH   2   6
ATOM      6  N   UNL     1       9.164  -1.145  24.468  0.00  0.00    -0.258 N 
ATOM      7  C   UNL     1       9.280  -2.521  24.345  0.00  0.00    +0.310 C 
ATOM      8  O   UNL     1      10.250  -3.087  23.858  0.00  0.00    -0.252 OA
ATOM      9  N   UNL     1       8.190  -3.235  24.780  0.00  0.00    -0.239 N 
ATOM     10  H   UNL     1       8.256  -4.237  24.675  0.00  0.00    +0.159 HD
ATOM     11  C   UNL     1       6.928  -2.741  25.023  0.00  0.00    +0.235 C 
ATOM     12  O   UNL     1       5.982  -3.519  25.137  0.00  0.00    -0.274 OA
ATOM     13  C   UNL     1       6.800  -1.230  25.008  0.00  0.00    +0.155 C 
ATOM     14  I   UNL     1       5.302  -0.582  26.367  0.00  0.00    -0.070 I 
ATOM     15  C   UNL     1       8.154  -0.648  25.390  0.00  0.00    +0.135 C 
ENDBRANCH   2   6
BRANCH   5  16
ATOM     16  O3* UNL     1       9.705   2.103  21.387  0.00  0.00    -0.389 OA
ATOM     17  H3* UNL     1      10.457   1.724  20.902  0.00  0.00    +0.210 HD
ENDBRANCH   5  16
BRANCH   4  18
ATOM     18  C5* UNL     1       9.173   3.097  24.404  0.00  0.00    +0.190 C 
BRANCH  18  19
ATOM     19  O5* UNL     1       8.740   4.021  23.409  0.00  0.00    -0.392 OA
ATOM     20  H5* UNL     1       8.496   3.491  22.632  0.00  0.00    +0.210 HD
ENDBRANCH  18  19
ENDBRANCH   4  18
TORSDOF 4
ENDMDL
MODEL 7
REMARK VINA RESULT:      -5.6      2.242      2.916
REMARK  Name = 
REMARK  4 active torsions:
REMARK  status: ('A' for Active; 'I' for Inactive)
REMARK    1  A    between atoms: C3*_2  and  O3*_20
REMARK    2  A    between atoms: C4*_4  and  C5*_18
REMARK    3  A    between atoms: C1*_7  and  N_9
REMARK    4  A    between atoms: C5*_18  and  O5*_19
REMARK                            x       y       z     vdW  Elec       q    Type
REMARK                         _______ _______ _______ _____ _____    ______ ____
ROOT
ATOM      1  C2* UNL     1       9.947  -2.065  22.912  0.00  0.00    +0.086 C 
ATOM      2  C1* UNL     1       9.451  -1.945  24.351  0.00  0.00    +0.212 C 
ATOM      3  O4* UNL     1       8.856  -0.637  24.473  0.00  0.00    -0.350 OA
ATOM      4  C4* UNL     1       8.827  -0.026  23.167  0.00  0.00    +0.174 C 
ATOM      5  C3* UNL     1       8.996  -1.160  22.166  0.00  0.00    +0.150 C 
ENDROOT
BRANCH   2   6
ATOM      6  N   UNL     1       8.472  -2.970  24.692  0.00  0.00    -0.258 N 
ATOM      7  C   UNL     1       8.927  -4.258  24.927  0.00  0.00    +0.310 C 
ATOM      8  O   UNL     1      10.097  -4.604  24.820  0.00  0.00    -0.252 OA
ATOM      9  N   UNL     1       7.950  -5.167  25.256  0.00  0.00    -0.239 N 
ATOM     10  H   UNL     1       8.268  -6.113  25.408  0.00  0.00    +0.159 HD
ATOM     11  C   UNL     1       6.593  -5.013  25.082  0.00  0.00    +0.235 C 
ATOM     12  O   UNL     1       5.855  -5.993  25.157  0.00  0.00    -0.274 OA
ATOM     13  C   UNL     1       6.136  -3.622  24.683  0.00  0.00    +0.155 C 
ATOM     14  I   UNL     1       4.209  -3.201  25.473  0.00  0.00    -0.070 I 
ATOM     15  C   UNL     1       7.158  -2.629  25.216  0.00  0.00    +0.135 C 
ENDBRANCH   2   6
BRANCH   5  16
ATOM     16  O3* UNL     1       9.522  -0.734  20.920  0.00  0.00    -0.389 OA
ATOM     17  H3* UNL     1       8.822  -0.771  20.247  0.00  0.00    +0.210 HD
ENDBRANCH   5  16
BRANCH   4  18
ATOM     18  C5* UNL     1       7.553   0.793  22.962  0.00  0.00    +0.190 C 
BRANCH  18  19
ATOM     19  O5* UNL     1       6.390  -0.030  22.943  0.00  0.00    -0.392 OA
ATOM     20  H5* UNL     1       5.887   0.227  22.152  0.00  0.00    +0.210 HD
ENDBRANCH  18  19
ENDBRANCH   4  18
TORSDOF 4
ENDMDL
MODEL 8
REMARK VINA RESULT:      -5.5      3.010      5.141
REMARK  Name = 
REMARK  4 active torsions:
REMARK  status: ('A' for Active; 'I' for Inactive)
REMARK    1  A    between atoms: C3*_2  and  O3*_20
REMARK    2  A    between atoms: C4*_4  and  C5*_18
REMARK    3  A    between atoms: C1*_7  and  N_9
REMARK    4  A    between atoms: C5*_18  and  O5*_19
REMARK                            x       y       z     vdW  Elec       q    Type
REMARK                         _______ _______ _______ _____ _____    ______ ____
ROOT
ATOM      1  C2* UNL     1       9.198  -4.804  25.760  0.00  0.00    +0.086 C 
ATOM      2  C1* UNL     1       8.738  -4.091  24.491  0.00  0.00    +0.212 C 
ATOM      3  O4* UNL     1       7.350  -4.436  24.306  0.00  0.00    -0.350 OA
ATOM      4  C4* UNL     1       6.908  -5.182  25.458  0.00  0.00    +0.174 C 
ATOM      5  C3* UNL     1       7.920  -4.898  26.559  0.00  0.00    +0.150 C 
ENDROOT
BRANCH   2   6
ATOM      6  N   UNL     1       8.883  -2.643  24.579  0.00  0.00    -0.258 N 
ATOM      7  C   UNL     1       9.812  -2.027  23.755  0.00  0.00    +0.310 C 
ATOM      8  O   UNL     1      10.554  -2.626  22.988  0.00  0.00    -0.252 OA
ATOM      9  N   UNL     1       9.883  -0.660  23.884  0.00  0.00    -0.239 N 
ATOM     10  H   UNL     1      10.572  -0.203  23.304  0.00  0.00    +0.159 HD
ATOM     11  C   UNL     1       9.376   0.095  24.918  0.00  0.00    +0.235 C 
ATOM     12  O   UNL     1       9.742   1.260  25.056  0.00  0.00    -0.274 OA
ATOM     13  C   UNL     1       8.475  -0.644  25.890  0.00  0.00    +0.155 C 
ATOM     14  I   UNL     1       6.982   0.649  26.671  0.00  0.00    -0.070 I 
ATOM     15  C   UNL     1       7.835  -1.802  25.138  0.00  0.00    +0.135 C 
ENDBRANCH   2   6
BRANCH   5  16
ATOM     16  O3* UNL     1       7.974  -5.915  27.546  0.00  0.00    -0.389 OA
ATOM     17  H3* UNL     1       7.596  -5.577  28.375  0.00  0.00    +0.210 HD
ENDBRANCH   5  16
BRANCH   4  18
ATOM     18  C5* UNL     1       5.470  -4.828  25.835  0.00  0.00    +0.190 C 
BRANCH  18  19
ATOM     19  O5* UNL     1       5.274  -4.838  27.247  0.00  0.00    -0.392 OA
ATOM     20  H5* UNL     1       6.147  -4.681  27.644  0.00  0.00    +0.210 HD
ENDBRANCH  18  19
ENDBRANCH   4  18
TORSDOF 4
ENDMDL
MODEL 9
REMARK VINA RESULT:      -5.5      3.184      4.191
REMARK  Name = 
REMARK  4 active torsions:
REMARK  status: ('A' for Active; 'I' for Inactive)
REMARK    1  A    between atoms: C3*_2  and  O3*_20
REMARK    2  A    between atoms: C4*_4  and  C5*_18
REMARK    3  A    between atoms: C1*_7  and  N_9
REMARK    4  A    between atoms: C5*_18  and  O5*_19
REMARK                            x       y       z     vdW  Elec       q    Type
REMARK                         _______ _______ _______ _____ _____    ______ ____
ROOT
ATOM      1  C2* UNL     1       9.641  -0.904  21.652  0.00  0.00    +0.086 C 
ATOM      2  C1* UNL     1       9.962  -1.519  23.012  0.00  0.00    +0.212 C 
ATOM      3  O4* UNL     1      10.101  -0.421  23.937  0.00  0.00    -0.350 OA
ATOM      4  C4* UNL     1       9.737   0.798  23.256  0.00  0.00    +0.174 C 
ATOM      5  C3* UNL     1       8.934   0.375  22.034  0.00  0.00    +0.150 C 
ENDROOT
BRANCH   2   6
ATOM      6  N   UNL     1       8.920  -2.428  23.474  0.00  0.00    -0.258 N 
ATOM      7  C   UNL     1       8.532  -2.359  24.802  0.00  0.00    +0.310 C 
ATOM      8  O   UNL     1       9.040  -1.613  25.629  0.00  0.00    -0.252 OA
ATOM      9  N   UNL     1       7.537  -3.236  25.161  0.00  0.00    -0.239 N 
ATOM     10  H   UNL     1       7.261  -3.209  26.132  0.00  0.00    +0.159 HD
ATOM     11  C   UNL     1       7.120  -4.341  24.452  0.00  0.00    +0.235 C 
ATOM     12  O   UNL     1       6.424  -5.191  25.004  0.00  0.00    -0.274 OA
ATOM     13  C   UNL     1       7.677  -4.467  23.047  0.00  0.00    +0.155 C 
ATOM     14  I   UNL     1       6.279  -5.414  21.759  0.00  0.00    -0.070 I 
ATOM     15  C   UNL     1       7.995  -3.065  22.548  0.00  0.00    +0.135 C 
ENDBRANCH   2   6
BRANCH   5  16
ATOM     16  O3* UNL     1       8.956   1.336  20.991  0.00  0.00    -0.389 OA
ATOM     17  H3* UNL     1       8.960   0.877  20.133  0.00  0.00    +0.210 HD
ENDBRANCH   5  16
BRANCH   4  18
ATOM     18  C5* UNL     1       8.988   1.754  24.184  0.00  0.00    +0.190 C 
BRANCH  18  19
ATOM     19  O5* UNL     1       8.951   1.273  25.525  0.00  0.00    -0.392 OA
ATOM     20  H5* UNL     1       9.573   1.824  26.030  0.00  0.00    +0.210 HD
ENDBRANCH  18  19
ENDBRANCH   4  18
TORSDOF 4
ENDMDL
