MODEL 1
REMARK VINA RESULT:      -7.7      0.000      0.000
REMARK  Name = 
REMARK  10 active torsions:
REMARK  status: ('A' for Active; 'I' for Inactive)
REMARK    1  A    between atoms: C_1  and  C_2
REMARK    2  A    between atoms: C_5  and  C_7
REMARK    3  A    between atoms: N_9  and  C_10
REMARK    4  A    between atoms: C_10  and  C_11
REMARK    5  A    between atoms: C_10  and  C_12
REMARK    6  A    between atoms: C_10  and  C_13
REMARK    7  A    between atoms: C_15  and  C_22
REMARK    8  A    between atoms: N_19  and  C_20
REMARK    9  A    between atoms: N_24  and  C_25
REMARK   10  A    between atoms: C_25  and  C_26
REMARK                            x       y       z     vdW  Elec       q    Type
REMARK                         _______ _______ _______ _____ _____    ______ ____
ROOT
ATOM      1  C   UNL     1       6.876  -3.241  25.340  0.00  0.00    +0.136 A 
ATOM      2  N   UNL     1       7.852  -4.210  25.406  0.00  0.00    -0.299 N 
ATOM      3  C   UNL     1       7.773  -5.405  26.231  0.00  0.00    +0.154 C 
ATOM      4  C   UNL     1       9.084  -4.019  24.783  0.00  0.00    +0.247 A 
ATOM      5  O   UNL     1      10.024  -4.795  24.997  0.00  0.00    -0.268 OA
ATOM      6  C   UNL     1       9.236  -2.832  23.843  0.00  0.00    -0.010 A 
ATOM      7  O   UNL     1      10.330  -2.776  23.190  0.00  0.00    -0.869 OA
ATOM      8  C   UNL     1       8.158  -1.999  23.854  0.00  0.00    +0.125 A 
ATOM      9  N   UNL     1       7.016  -2.184  24.606  0.00  0.00    -0.227 NA
ENDROOT
BRANCH   8  10
ATOM     10  C   UNL     1       8.149  -0.733  22.940  0.00  0.00    +0.262 C 
ATOM     11  N   UNL     1       9.378  -0.183  22.677  0.00  0.00    -0.306 N 
ATOM     12  H   UNL     1      10.158  -0.734  23.065  0.00  0.00    +0.149 HD
ATOM     13  O   UNL     1       7.103  -0.258  22.489  0.00  0.00    -0.269 OA
BRANCH  11  14
ATOM     14  C   UNL     1       9.668   0.928  21.816  0.00  0.00    +0.140 C 
BRANCH  14  15
ATOM     15  C   UNL     1       9.634   2.239  22.573  0.00  0.00    -0.030 A 
ATOM     16  C   UNL     1      10.820   2.812  23.059  0.00  0.00    +0.008 A 
ATOM     17  C   UNL     1      10.793   4.036  23.732  0.00  0.00    +0.038 A 
ATOM     18  C   UNL     1       9.582   4.689  23.925  0.00  0.00    +0.123 A 
ATOM     19  F   UNL     1       9.563   5.871  24.558  0.00  0.00    -0.205 F 
ATOM     20  C   UNL     1       8.394   4.138  23.463  0.00  0.00    +0.038 A 
ATOM     21  C   UNL     1       8.419   2.914  22.792  0.00  0.00    +0.008 A 
ENDBRANCH  14  15
ENDBRANCH  11  14
ENDBRANCH   8  10
BRANCH   1  22
ATOM     22  C   UNL     1       5.443  -3.417  26.056  0.00  0.00    +0.087 C 
ATOM     23  C   UNL     1       5.674  -3.495  27.585  0.00  0.00    +0.039 C 
ATOM     24  C   UNL     1       4.634  -2.142  25.747  0.00  0.00    +0.039 C 
BRANCH  22  26
ATOM     25  C   UNL     1       4.304  -4.972  24.361  0.00  0.00    +0.301 C 
ATOM     26  N   UNL     1       4.698  -4.634  25.654  0.00  0.00    -0.295 N 
ATOM     27  H   UNL     1       4.256  -5.174  26.387  0.00  0.00    +0.150 HD
ATOM     28  O   UNL     1       4.522  -4.261  23.382  0.00  0.00    -0.265 OA
BRANCH  25  32
ATOM     29  C   UNL     1       1.147  -8.350  22.869  0.00  0.00    +0.111 C 
ATOM     30  C   UNL     1       2.266  -7.764  23.629  0.00  0.00    +0.215 A 
ATOM     31  O   UNL     1       2.557  -6.441  23.416  0.00  0.00    -0.417 OA
ATOM     32  C   UNL     1       3.619  -6.253  24.272  0.00  0.00    +0.304 A 
ATOM     33  N   UNL     1       3.937  -7.349  24.934  0.00  0.00    -0.102 NA
ATOM     34  N   UNL     1       3.062  -8.330  24.511  0.00  0.00    -0.112 NA
ENDBRANCH  25  32
ENDBRANCH  22  26
ENDBRANCH   1  22
TORSDOF 6
ENDMDL
MODEL 2
REMARK VINA RESULT:      -7.7      3.854      9.852
REMARK  Name = 
REMARK  10 active torsions:
REMARK  status: ('A' for Active; 'I' for Inactive)
REMARK    1  A    between atoms: C_1  and  C_2
REMARK    2  A    between atoms: C_5  and  C_7
REMARK    3  A    between atoms: N_9  and  C_10
REMARK    4  A    between atoms: C_10  and  C_11
REMARK    5  A    between atoms: C_10  and  C_12
REMARK    6  A    between atoms: C_10  and  C_13
REMARK    7  A    between atoms: C_15  and  C_22
REMARK    8  A    between atoms: N_19  and  C_20
REMARK    9  A    between atoms: N_24  and  C_25
REMARK   10  A    between atoms: C_25  and  C_26
REMARK                            x       y       z     vdW  Elec       q    Type
REMARK                         _______ _______ _______ _____ _____    ______ ____
ROOT
ATOM      1  C   UNL     1       8.314   0.062  23.854  0.00  0.00    +0.136 A 
ATOM      2  N   UNL     1       9.446  -0.273  23.146  0.00  0.00    -0.299 N 
ATOM      3  C   UNL     1      10.142   0.620  22.233  0.00  0.00    +0.154 C 
ATOM      4  C   UNL     1       9.920  -1.584  23.145  0.00  0.00    +0.247 A 
ATOM      5  O   UNL     1      10.817  -1.927  22.365  0.00  0.00    -0.268 OA
ATOM      6  C   UNL     1       9.299  -2.572  24.121  0.00  0.00    -0.010 A 
ATOM      7  O   UNL     1       9.856  -3.718  24.182  0.00  0.00    -0.869 OA
ATOM      8  C   UNL     1       8.222  -2.066  24.783  0.00  0.00    +0.125 A 
ATOM      9  N   UNL     1       7.723  -0.788  24.633  0.00  0.00    -0.227 NA
ENDROOT
BRANCH   8  10
ATOM     10  C   UNL     1       7.469  -2.948  25.828  0.00  0.00    +0.262 C 
ATOM     11  N   UNL     1       7.398  -4.287  25.531  0.00  0.00    -0.306 N 
ATOM     12  H   UNL     1       7.924  -4.540  24.682  0.00  0.00    +0.149 HD
ATOM     13  O   UNL     1       6.968  -2.472  26.850  0.00  0.00    -0.269 OA
BRANCH  11  14
ATOM     14  C   UNL     1       6.836  -5.328  26.342  0.00  0.00    +0.140 C 
BRANCH  14  15
ATOM     15  C   UNL     1       5.643  -5.973  25.669  0.00  0.00    -0.030 A 
ATOM     16  C   UNL     1       4.747  -6.761  26.409  0.00  0.00    +0.008 A 
ATOM     17  C   UNL     1       3.630  -7.332  25.795  0.00  0.00    +0.038 A 
ATOM     18  C   UNL     1       3.407  -7.122  24.440  0.00  0.00    +0.123 A 
ATOM     19  F   UNL     1       2.325  -7.659  23.858  0.00  0.00    -0.205 F 
ATOM     20  C   UNL     1       4.284  -6.355  23.683  0.00  0.00    +0.038 A 
ATOM     21  C   UNL     1       5.402  -5.785  24.296  0.00  0.00    +0.008 A 
ENDBRANCH  14  15
ENDBRANCH  11  14
ENDBRANCH   8  10
BRANCH   1  22
ATOM     22  C   UNL     1       7.727   1.562  23.872  0.00  0.00    +0.087 C 
ATOM     23  C   UNL     1       6.859   1.756  22.605  0.00  0.00    +0.039 C 
ATOM     24  C   UNL     1       6.815   1.665  25.111  0.00  0.00    +0.039 C 
BRANCH  22  26
ATOM     25  C   UNL     1       8.533   3.993  24.042  0.00  0.00    +0.301 C 
ATOM     26  N   UNL     1       8.757   2.628  23.877  0.00  0.00    -0.295 N 
ATOM     27  H   UNL     1       9.679   2.387  23.533  0.00  0.00    +0.150 HD
ATOM     28  O   UNL     1       7.414   4.480  24.186  0.00  0.00    -0.265 OA
BRANCH  25  32
ATOM     29  C   UNL     1      13.125   5.288  23.125  0.00  0.00    +0.111 C 
ATOM     30  C   UNL     1      11.748   5.402  23.640  0.00  0.00    +0.215 A 
ATOM     31  O   UNL     1      10.904   4.340  23.441  0.00  0.00    -0.417 OA
ATOM     32  C   UNL     1       9.749   4.792  24.041  0.00  0.00    +0.304 A 
ATOM     33  N   UNL     1       9.882   6.002  24.549  0.00  0.00    -0.102 NA
ATOM     34  N   UNL     1      11.178   6.399  24.284  0.00  0.00    -0.112 NA
ENDBRANCH  25  32
ENDBRANCH  22  26
ENDBRANCH   1  22
TORSDOF 6
ENDMDL
MODEL 3
REMARK VINA RESULT:      -7.6      1.950      2.569
REMARK  Name = 
REMARK  10 active torsions:
REMARK  status: ('A' for Active; 'I' for Inactive)
REMARK    1  A    between atoms: C_1  and  C_2
REMARK    2  A    between atoms: C_5  and  C_7
REMARK    3  A    between atoms: N_9  and  C_10
REMARK    4  A    between atoms: C_10  and  C_11
REMARK    5  A    between atoms: C_10  and  C_12
REMARK    6  A    between atoms: C_10  and  C_13
REMARK    7  A    between atoms: C_15  and  C_22
REMARK    8  A    between atoms: N_19  and  C_20
REMARK    9  A    between atoms: N_24  and  C_25
REMARK   10  A    between atoms: C_25  and  C_26
REMARK                            x       y       z     vdW  Elec       q    Type
REMARK                         _______ _______ _______ _____ _____    ______ ____
ROOT
ATOM      1  C   UNL     1       7.135  -4.552  23.377  0.00  0.00    +0.136 A 
ATOM      2  N   UNL     1       7.039  -4.573  24.750  0.00  0.00    -0.299 N 
ATOM      3  C   UNL     1       6.289  -5.561  25.509  0.00  0.00    +0.154 C 
ATOM      4  C   UNL     1       7.548  -3.523  25.513  0.00  0.00    +0.247 A 
ATOM      5  O   UNL     1       7.297  -3.446  26.722  0.00  0.00    -0.268 OA
ATOM      6  C   UNL     1       8.407  -2.479  24.814  0.00  0.00    -0.010 A 
ATOM      7  O   UNL     1       8.963  -1.618  25.573  0.00  0.00    -0.869 OA
ATOM      8  C   UNL     1       8.441  -2.633  23.462  0.00  0.00    +0.125 A 
ATOM      9  N   UNL     1       7.798  -3.628  22.756  0.00  0.00    -0.227 NA
ENDROOT
BRANCH   8  10
ATOM     10  C   UNL     1       9.284  -1.647  22.591  0.00  0.00    +0.262 C 
ATOM     11  N   UNL     1       8.612  -0.544  22.128  0.00  0.00    -0.306 N 
ATOM     12  H   UNL     1       7.648  -0.478  22.486  0.00  0.00    +0.149 HD
ATOM     13  O   UNL     1      10.473  -1.852  22.334  0.00  0.00    -0.269 OA
BRANCH  11  14
ATOM     14  C   UNL     1       9.154   0.551  21.375  0.00  0.00    +0.140 C 
BRANCH  14  15
ATOM     15  C   UNL     1       9.123   1.840  22.169  0.00  0.00    -0.030 A 
ATOM     16  C   UNL     1      10.241   2.242  22.917  0.00  0.00    +0.008 A 
ATOM     17  C   UNL     1      10.224   3.446  23.626  0.00  0.00    +0.038 A 
ATOM     18  C   UNL     1       9.090   4.247  23.596  0.00  0.00    +0.123 A 
ATOM     19  F   UNL     1       9.084   5.408  24.266  0.00  0.00    -0.205 F 
ATOM     20  C   UNL     1       7.967   3.866  22.871  0.00  0.00    +0.038 A 
ATOM     21  C   UNL     1       7.982   2.662  22.163  0.00  0.00    +0.008 A 
ENDBRANCH  14  15
ENDBRANCH  11  14
ENDBRANCH   8  10
BRANCH   1  22
ATOM     22  C   UNL     1       6.550  -5.739  22.458  0.00  0.00    +0.087 C 
ATOM     23  C   UNL     1       6.327  -5.182  21.032  0.00  0.00    +0.039 C 
ATOM     24  C   UNL     1       7.641  -6.827  22.395  0.00  0.00    +0.039 C 
BRANCH  22  26
ATOM     25  C   UNL     1       4.056  -5.613  23.053  0.00  0.00    +0.301 C 
ATOM     26  N   UNL     1       5.260  -6.303  22.925  0.00  0.00    -0.295 N 
ATOM     27  H   UNL     1       5.284  -7.205  23.382  0.00  0.00    +0.150 HD
ATOM     28  O   UNL     1       3.935  -4.416  22.805  0.00  0.00    -0.265 OA
BRANCH  25  32
ATOM     29  C   UNL     1       1.698  -9.338  25.095  0.00  0.00    +0.111 C 
ATOM     30  C   UNL     1       1.882  -8.050  24.402  0.00  0.00    +0.215 A 
ATOM     31  O   UNL     1       3.165  -7.648  24.134  0.00  0.00    -0.417 OA
ATOM     32  C   UNL     1       2.949  -6.445  23.499  0.00  0.00    +0.304 A 
ATOM     33  N   UNL     1       1.667  -6.151  23.395  0.00  0.00    -0.102 NA
ATOM     34  N   UNL     1       0.977  -7.190  23.986  0.00  0.00    -0.112 NA
ENDBRANCH  25  32
ENDBRANCH  22  26
ENDBRANCH   1  22
TORSDOF 6
ENDMDL
MODEL 4
REMARK VINA RESULT:      -7.6      1.860      2.492
REMARK  Name = 
REMARK  10 active torsions:
REMARK  status: ('A' for Active; 'I' for Inactive)
REMARK    1  A    between atoms: C_1  and  C_2
REMARK    2  A    between atoms: C_5  and  C_7
REMARK    3  A    between atoms: N_9  and  C_10
REMARK    4  A    between atoms: C_10  and  C_11
REMARK    5  A    between atoms: C_10  and  C_12
REMARK    6  A    between atoms: C_10  and  C_13
REMARK    7  A    between atoms: C_15  and  C_22
REMARK    8  A    between atoms: N_19  and  C_20
REMARK    9  A    between atoms: N_24  and  C_25
REMARK   10  A    between atoms: C_25  and  C_26
REMARK                            x       y       z     vdW  Elec       q    Type
REMARK                         _______ _______ _______ _____ _____    ______ ____
ROOT
ATOM      1  C   UNL     1       5.393  -4.503  25.548  0.00  0.00    +0.136 A 
ATOM      2  N   UNL     1       6.191  -5.361  26.270  0.00  0.00    -0.299 N 
ATOM      3  C   UNL     1       5.732  -6.164  27.393  0.00  0.00    +0.154 C 
ATOM      4  C   UNL     1       7.568  -5.397  26.059  0.00  0.00    +0.247 A 
ATOM      5  O   UNL     1       8.306  -6.022  26.831  0.00  0.00    -0.268 OA
ATOM      6  C   UNL     1       8.130  -4.643  24.862  0.00  0.00    -0.010 A 
ATOM      7  O   UNL     1       9.371  -4.817  24.629  0.00  0.00    -0.869 OA
ATOM      8  C   UNL     1       7.198  -3.884  24.223  0.00  0.00    +0.125 A 
ATOM      9  N   UNL     1       5.866  -3.793  24.574  0.00  0.00    -0.227 NA
ENDROOT
BRANCH   8  10
ATOM     10  C   UNL     1       7.607  -3.049  22.968  0.00  0.00    +0.262 C 
ATOM     11  N   UNL     1       8.836  -2.442  23.035  0.00  0.00    -0.306 N 
ATOM     12  H   UNL     1       9.360  -2.685  23.889  0.00  0.00    +0.149 HD
ATOM     13  O   UNL     1       6.871  -2.940  21.984  0.00  0.00    -0.269 OA
BRANCH  11  14
ATOM     14  C   UNL     1       9.489  -1.683  22.007  0.00  0.00    +0.140 C 
BRANCH  14  15
ATOM     15  C   UNL     1       9.852  -0.294  22.488  0.00  0.00    -0.030 A 
ATOM     16  C   UNL     1       9.603   0.827  21.681  0.00  0.00    +0.008 A 
ATOM     17  C   UNL     1       9.911   2.111  22.136  0.00  0.00    +0.038 A 
ATOM     18  C   UNL     1      10.474   2.279  23.396  0.00  0.00    +0.123 A 
ATOM     19  F   UNL     1      10.754   3.515  23.834  0.00  0.00    -0.205 F 
ATOM     20  C   UNL     1      10.739   1.185  24.209  0.00  0.00    +0.038 A 
ATOM     21  C   UNL     1      10.434  -0.100  23.755  0.00  0.00    +0.008 A 
ENDBRANCH  14  15
ENDBRANCH  11  14
ENDBRANCH   8  10
BRANCH   1  22
ATOM     22  C   UNL     1       3.799  -4.422  25.770  0.00  0.00    +0.087 C 
ATOM     23  C   UNL     1       3.527  -4.344  27.292  0.00  0.00    +0.039 C 
ATOM     24  C   UNL     1       3.328  -3.106  25.119  0.00  0.00    +0.039 C 
BRANCH  22  26
ATOM     25  C   UNL     1       2.878  -5.915  23.896  0.00  0.00    +0.301 C 
ATOM     26  N   UNL     1       3.043  -5.582  25.239  0.00  0.00    -0.295 N 
ATOM     27  H   UNL     1       2.423  -6.066  25.876  0.00  0.00    +0.150 HD
ATOM     28  O   UNL     1       3.340  -5.248  22.974  0.00  0.00    -0.265 OA
BRANCH  25  32
ATOM     29  C   UNL     1       0.699 -10.146  24.874  0.00  0.00    +0.111 C 
ATOM     30  C   UNL     1       1.131  -8.981  24.081  0.00  0.00    +0.215 A 
ATOM     31  O   UNL     1       1.912  -8.041  24.702  0.00  0.00    -0.417 OA
ATOM     32  C   UNL     1       2.115  -7.136  23.685  0.00  0.00    +0.304 A 
ATOM     33  N   UNL     1       1.517  -7.492  22.564  0.00  0.00    -0.102 NA
ATOM     34  N   UNL     1       0.875  -8.686  22.824  0.00  0.00    -0.112 NA
ENDBRANCH  25  32
ENDBRANCH  22  26
ENDBRANCH   1  22
TORSDOF 6
ENDMDL
MODEL 5
REMARK VINA RESULT:      -7.6      1.566      2.662
REMARK  Name = 
REMARK  10 active torsions:
REMARK  status: ('A' for Active; 'I' for Inactive)
REMARK    1  A    between atoms: C_1  and  C_2
REMARK    2  A    between atoms: C_5  and  C_7
REMARK    3  A    between atoms: N_9  and  C_10
REMARK    4  A    between atoms: C_10  and  C_11
REMARK    5  A    between atoms: C_10  and  C_12
REMARK    6  A    between atoms: C_10  and  C_13
REMARK    7  A    between atoms: C_15  and  C_22
REMARK    8  A    between atoms: N_19  and  C_20
REMARK    9  A    between atoms: N_24  and  C_25
REMARK   10  A    between atoms: C_25  and  C_26
REMARK                            x       y       z     vdW  Elec       q    Type
REMARK                         _______ _______ _______ _____ _____    ______ ____
ROOT
ATOM      1  C   UNL     1       6.724  -3.319  24.368  0.00  0.00    +0.136 A 
ATOM      2  N   UNL     1       5.791  -2.680  25.153  0.00  0.00    -0.299 N 
ATOM      3  C   UNL     1       4.844  -3.358  26.024  0.00  0.00    +0.154 C 
ATOM      4  C   UNL     1       5.590  -1.306  25.039  0.00  0.00    +0.247 A 
ATOM      5  O   UNL     1       4.629  -0.763  25.599  0.00  0.00    -0.268 OA
ATOM      6  C   UNL     1       6.576  -0.503  24.204  0.00  0.00    -0.010 A 
ATOM      7  O   UNL     1       6.434   0.764  24.241  0.00  0.00    -0.869 OA
ATOM      8  C   UNL     1       7.469  -1.283  23.533  0.00  0.00    +0.125 A 
ATOM      9  N   UNL     1       7.525  -2.661  23.591  0.00  0.00    -0.227 NA
ENDROOT
BRANCH   8  10
ATOM     10  C   UNL     1       8.557  -0.616  22.633  0.00  0.00    +0.262 C 
ATOM     11  N   UNL     1       9.045   0.585  23.085  0.00  0.00    -0.306 N 
ATOM     12  H   UNL     1       8.673   0.849  24.009  0.00  0.00    +0.149 HD
ATOM     13  O   UNL     1       8.947  -1.134  21.583  0.00  0.00    -0.269 OA
BRANCH  11  14
ATOM     14  C   UNL     1      10.093   1.372  22.501  0.00  0.00    +0.140 C 
BRANCH  14  15
ATOM     15  C   UNL     1      10.077   2.792  23.025  0.00  0.00    -0.030 A 
ATOM     16  C   UNL     1       8.871   3.393  23.418  0.00  0.00    +0.008 A 
ATOM     17  C   UNL     1       8.859   4.693  23.929  0.00  0.00    +0.038 A 
ATOM     18  C   UNL     1      10.051   5.399  24.044  0.00  0.00    +0.123 A 
ATOM     19  F   UNL     1      10.037   6.640  24.550  0.00  0.00    -0.205 F 
ATOM     20  C   UNL     1      11.256   4.830  23.653  0.00  0.00    +0.038 A 
ATOM     21  C   UNL     1      11.269   3.531  23.140  0.00  0.00    +0.008 A 
ENDBRANCH  14  15
ENDBRANCH  11  14
ENDBRANCH   8  10
BRANCH   1  22
ATOM     22  C   UNL     1       6.980  -4.907  24.461  0.00  0.00    +0.087 C 
ATOM     23  C   UNL     1       7.874  -5.323  23.268  0.00  0.00    +0.039 C 
ATOM     24  C   UNL     1       7.760  -5.153  25.768  0.00  0.00    +0.039 C 
BRANCH  22  26
ATOM     25  C   UNL     1       4.766  -5.688  23.423  0.00  0.00    +0.301 C 
ATOM     26  N   UNL     1       5.751  -5.734  24.408  0.00  0.00    -0.295 N 
ATOM     27  H   UNL     1       5.489  -6.234  25.248  0.00  0.00    +0.150 HD
ATOM     28  O   UNL     1       4.801  -4.914  22.470  0.00  0.00    -0.265 OA
BRANCH  25  32
ATOM     29  C   UNL     1       0.594  -8.068  22.691  0.00  0.00    +0.111 C 
ATOM     30  C   UNL     1       1.884  -7.730  23.319  0.00  0.00    +0.215 A 
ATOM     31  O   UNL     1       2.582  -6.667  22.808  0.00  0.00    -0.417 OA
ATOM     32  C   UNL     1       3.694  -6.651  23.622  0.00  0.00    +0.304 A 
ATOM     33  N   UNL     1       3.669  -7.608  24.530  0.00  0.00    -0.102 NA
ATOM     34  N   UNL     1       2.497  -8.310  24.329  0.00  0.00    -0.112 NA
ENDBRANCH  25  32
ENDBRANCH  22  26
ENDBRANCH   1  22
TORSDOF 6
ENDMDL
MODEL 6
REMARK VINA RESULT:      -7.5      4.079      9.447
REMARK  Name = 
REMARK  10 active torsions:
REMARK  status: ('A' for Active; 'I' for Inactive)
REMARK    1  A    between atoms: C_1  and  C_2
REMARK    2  A    between atoms: C_5  and  C_7
REMARK    3  A    between atoms: N_9  and  C_10
REMARK    4  A    between atoms: C_10  and  C_11
REMARK    5  A    between atoms: C_10  and  C_12
REMARK    6  A    between atoms: C_10  and  C_13
REMARK    7  A    between atoms: C_15  and  C_22
REMARK    8  A    between atoms: N_19  and  C_20
REMARK    9  A    between atoms: N_24  and  C_25
REMARK   10  A    between atoms: C_25  and  C_26
REMARK                            x       y       z     vdW  Elec       q    Type
REMARK                         _______ _______ _______ _____ _____    ______ ____
ROOT
ATOM      1  C   UNL     1       9.021   1.295  24.112  0.00  0.00    +0.136 A 
ATOM      2  N   UNL     1       8.254   1.675  25.190  0.00  0.00    -0.299 N 
ATOM      3  C   UNL     1       8.017   3.054  25.587  0.00  0.00    +0.154 C 
ATOM      4  C   UNL     1       7.769   0.725  26.086  0.00  0.00    +0.247 A 
ATOM      5  O   UNL     1       7.246   1.075  27.152  0.00  0.00    -0.268 OA
ATOM      6  C   UNL     1       7.908  -0.745  25.719  0.00  0.00    -0.010 A 
ATOM      7  O   UNL     1       7.329  -1.571  26.499  0.00  0.00    -0.869 OA
ATOM      8  C   UNL     1       8.650  -0.947  24.594  0.00  0.00    +0.125 A 
ATOM      9  N   UNL     1       9.217   0.047  23.824  0.00  0.00    -0.227 NA
ENDROOT
BRANCH   8  10
ATOM     10  C   UNL     1       8.886  -2.400  24.073  0.00  0.00    +0.262 C 
ATOM     11  N   UNL     1       7.759  -3.173  23.942  0.00  0.00    -0.306 N 
ATOM     12  H   UNL     1       6.890  -2.655  24.138  0.00  0.00    +0.149 HD
ATOM     13  O   UNL     1      10.012  -2.825  23.803  0.00  0.00    -0.269 OA
BRANCH  11  14
ATOM     14  C   UNL     1       7.676  -4.507  23.421  0.00  0.00    +0.140 C 
BRANCH  14  15
ATOM     15  C   UNL     1       6.575  -5.298  24.094  0.00  0.00    -0.030 A 
ATOM     16  C   UNL     1       5.603  -5.961  23.328  0.00  0.00    +0.008 A 
ATOM     17  C   UNL     1       4.604  -6.716  23.947  0.00  0.00    +0.038 A 
ATOM     18  C   UNL     1       4.569  -6.806  25.333  0.00  0.00    +0.123 A 
ATOM     19  F   UNL     1       3.617  -7.543  25.923  0.00  0.00    -0.205 F 
ATOM     20  C   UNL     1       5.513  -6.151  26.115  0.00  0.00    +0.038 A 
ATOM     21  C   UNL     1       6.511  -5.395  25.496  0.00  0.00    +0.008 A 
ENDBRANCH  14  15
ENDBRANCH  11  14
ENDBRANCH   8  10
BRANCH   1  22
ATOM     22  C   UNL     1       9.610   2.363  23.059  0.00  0.00    +0.087 C 
ATOM     23  C   UNL     1      10.978   2.857  23.588  0.00  0.00    +0.039 C 
ATOM     24  C   UNL     1       9.841   1.601  21.739  0.00  0.00    +0.039 C 
BRANCH  22  26
ATOM     25  C   UNL     1       7.483   3.569  22.277  0.00  0.00    +0.301 C 
ATOM     26  N   UNL     1       8.755   3.555  22.846  0.00  0.00    -0.295 N 
ATOM     27  H   UNL     1       9.194   4.464  22.928  0.00  0.00    +0.150 HD
ATOM     28  O   UNL     1       6.922   2.560  21.857  0.00  0.00    -0.265 OA
BRANCH  25  32
ATOM     29  C   UNL     1       4.181   7.077  22.904  0.00  0.00    +0.111 C 
ATOM     30  C   UNL     1       5.460   6.455  22.515  0.00  0.00    +0.215 A 
ATOM     31  O   UNL     1       5.596   5.105  22.704  0.00  0.00    -0.417 OA
ATOM     32  C   UNL     1       6.873   4.889  22.237  0.00  0.00    +0.304 A 
ATOM     33  N   UNL     1       7.449   5.996  21.809  0.00  0.00    -0.102 NA
ATOM     34  N   UNL     1       6.533   7.012  21.994  0.00  0.00    -0.112 NA
ENDBRANCH  25  32
ENDBRANCH  22  26
ENDBRANCH   1  22
TORSDOF 6
ENDMDL
MODEL 7
REMARK VINA RESULT:      -7.4      4.108      9.968
REMARK  Name = 
REMARK  10 active torsions:
REMARK  status: ('A' for Active; 'I' for Inactive)
REMARK    1  A    between atoms: C_1  and  C_2
REMARK    2  A    between atoms: C_5  and  C_7
REMARK    3  A    between atoms: N_9  and  C_10
REMARK    4  A    between atoms: C_10  and  C_11
REMARK    5  A    between atoms: C_10  and  C_12
REMARK    6  A    between atoms: C_10  and  C_13
REMARK    7  A    between atoms: C_15  and  C_22
REMARK    8  A    between atoms: N_19  and  C_20
REMARK    9  A    between atoms: N_24  and  C_25
REMARK   10  A    between atoms: C_25  and  C_26
REMARK                            x       y       z     vdW  Elec       q    Type
REMARK                         _______ _______ _______ _____ _____    ______ ____
ROOT
ATOM      1  C   UNL     1       8.333   1.077  23.938  0.00  0.00    +0.136 A 
ATOM      2  N   UNL     1       7.694   1.755  24.951  0.00  0.00    -0.299 N 
ATOM      3  C   UNL     1       7.452   3.189  24.958  0.00  0.00    +0.154 C 
ATOM      4  C   UNL     1       7.365   1.108  26.141  0.00  0.00    +0.247 A 
ATOM      5  O   UNL     1       6.967   1.754  27.118  0.00  0.00    -0.268 OA
ATOM      6  C   UNL     1       7.518  -0.405  26.201  0.00  0.00    -0.010 A 
ATOM      7  O   UNL     1       7.076  -0.967  27.257  0.00  0.00    -0.869 OA
ATOM      8  C   UNL     1       8.119  -0.926  25.095  0.00  0.00    +0.125 A 
ATOM      9  N   UNL     1       8.543  -0.200  24.001  0.00  0.00    -0.227 NA
ENDROOT
BRANCH   8  10
ATOM     10  C   UNL     1       8.347  -2.467  24.992  0.00  0.00    +0.262 C 
ATOM     11  N   UNL     1       7.310  -3.251  25.434  0.00  0.00    -0.306 N 
ATOM     12  H   UNL     1       6.480  -2.704  25.708  0.00  0.00    +0.149 HD
ATOM     13  O   UNL     1       9.393  -2.947  24.547  0.00  0.00    -0.269 OA
BRANCH  11  14
ATOM     14  C   UNL     1       7.220  -4.682  25.387  0.00  0.00    +0.140 C 
BRANCH  14  15
ATOM     15  C   UNL     1       6.783  -5.166  24.021  0.00  0.00    -0.030 A 
ATOM     16  C   UNL     1       5.421  -5.208  23.682  0.00  0.00    +0.008 A 
ATOM     17  C   UNL     1       5.019  -5.627  22.411  0.00  0.00    +0.038 A 
ATOM     18  C   UNL     1       5.974  -6.010  21.478  0.00  0.00    +0.123 A 
ATOM     19  F   UNL     1       5.585  -6.396  20.255  0.00  0.00    -0.205 F 
ATOM     20  C   UNL     1       7.328  -5.986  21.792  0.00  0.00    +0.038 A 
ATOM     21  C   UNL     1       7.731  -5.570  23.062  0.00  0.00    +0.008 A 
ENDBRANCH  14  15
ENDBRANCH  11  14
ENDBRANCH   8  10
BRANCH   1  22
ATOM     22  C   UNL     1       8.740   1.790  22.552  0.00  0.00    +0.087 C 
ATOM     23  C   UNL     1       9.445   0.742  21.658  0.00  0.00    +0.039 C 
ATOM     24  C   UNL     1       7.424   2.212  21.869  0.00  0.00    +0.039 C 
BRANCH  22  26
ATOM     25  C   UNL     1      10.827   2.979  23.459  0.00  0.00    +0.301 C 
ATOM     26  N   UNL     1       9.659   2.944  22.699  0.00  0.00    -0.295 N 
ATOM     27  H   UNL     1       9.325   3.849  22.392  0.00  0.00    +0.150 HD
ATOM     28  O   UNL     1      11.222   2.029  24.131  0.00  0.00    -0.265 OA
BRANCH  25  32
ATOM     29  C   UNL     1      13.880   6.379  21.808  0.00  0.00    +0.111 C 
ATOM     30  C   UNL     1      12.853   5.763  22.669  0.00  0.00    +0.215 A 
ATOM     31  O   UNL     1      12.484   4.472  22.396  0.00  0.00    -0.417 OA
ATOM     32  C   UNL     1      11.543   4.242  23.376  0.00  0.00    +0.304 A 
ATOM     33  N   UNL     1      11.363   5.289  24.159  0.00  0.00    -0.102 NA
ATOM     34  N   UNL     1      12.210   6.276  23.697  0.00  0.00    -0.112 NA
ENDBRANCH  25  32
ENDBRANCH  22  26
ENDBRANCH   1  22
TORSDOF 6
ENDMDL
MODEL 8
REMARK VINA RESULT:      -7.3      2.968      5.323
REMARK  Name = 
REMARK  10 active torsions:
REMARK  status: ('A' for Active; 'I' for Inactive)
REMARK    1  A    between atoms: C_1  and  C_2
REMARK    2  A    between atoms: C_5  and  C_7
REMARK    3  A    between atoms: N_9  and  C_10
REMARK    4  A    between atoms: C_10  and  C_11
REMARK    5  A    between atoms: C_10  and  C_12
REMARK    6  A    between atoms: C_10  and  C_13
REMARK    7  A    between atoms: C_15  and  C_22
REMARK    8  A    between atoms: N_19  and  C_20
REMARK    9  A    between atoms: N_24  and  C_25
REMARK   10  A    between atoms: C_25  and  C_26
REMARK                            x       y       z     vdW  Elec       q    Type
REMARK                         _______ _______ _______ _____ _____    ______ ____
ROOT
ATOM      1  C   UNL     1       5.737  -3.314  26.697  0.00  0.00    +0.136 A 
ATOM      2  N   UNL     1       5.872  -4.416  27.511  0.00  0.00    -0.299 N 
ATOM      3  C   UNL     1       5.033  -4.696  28.666  0.00  0.00    +0.154 C 
ATOM      4  C   UNL     1       6.956  -5.280  27.361  0.00  0.00    +0.247 A 
ATOM      5  O   UNL     1       7.183  -6.155  28.206  0.00  0.00    -0.268 OA
ATOM      6  C   UNL     1       7.848  -5.107  26.141  0.00  0.00    -0.010 A 
ATOM      7  O   UNL     1       8.740  -6.002  25.973  0.00  0.00    -0.869 OA
ATOM      8  C   UNL     1       7.546  -3.998  25.410  0.00  0.00    +0.125 A 
ATOM      9  N   UNL     1       6.533  -3.106  25.697  0.00  0.00    -0.227 NA
ENDROOT
BRANCH   8  10
ATOM     10  C   UNL     1       8.363  -3.675  24.119  0.00  0.00    +0.262 C 
ATOM     11  N   UNL     1       9.126  -2.535  24.171  0.00  0.00    -0.306 N 
ATOM     12  H   UNL     1       9.112  -2.082  25.096  0.00  0.00    +0.149 HD
ATOM     13  O   UNL     1       8.319  -4.395  23.118  0.00  0.00    -0.269 OA
BRANCH  11  14
ATOM     14  C   UNL     1      10.023  -2.043  23.165  0.00  0.00    +0.140 C 
BRANCH  14  15
ATOM     15  C   UNL     1      10.090  -0.531  23.172  0.00  0.00    -0.030 A 
ATOM     16  C   UNL     1      10.329   0.166  24.368  0.00  0.00    +0.008 A 
ATOM     17  C   UNL     1      10.420   1.560  24.371  0.00  0.00    +0.038 A 
ATOM     18  C   UNL     1      10.268   2.262  23.183  0.00  0.00    +0.123 A 
ATOM     19  F   UNL     1      10.372   3.599  23.188  0.00  0.00    -0.205 F 
ATOM     20  C   UNL     1      10.021   1.598  21.988  0.00  0.00    +0.038 A 
ATOM     21  C   UNL     1       9.928   0.204  21.984  0.00  0.00    +0.008 A 
ENDBRANCH  14  15
ENDBRANCH  11  14
ENDBRANCH   8  10
BRANCH   1  22
ATOM     22  C   UNL     1       4.505  -2.286  26.844  0.00  0.00    +0.087 C 
ATOM     23  C   UNL     1       3.208  -3.024  26.434  0.00  0.00    +0.039 C 
ATOM     24  C   UNL     1       4.410  -1.921  28.339  0.00  0.00    +0.039 C 
BRANCH  22  26
ATOM     25  C   UNL     1       5.522  -0.027  26.171  0.00  0.00    +0.301 C 
ATOM     26  N   UNL     1       4.613  -1.069  26.003  0.00  0.00    -0.295 N 
ATOM     27  H   UNL     1       3.844  -0.867  25.376  0.00  0.00    +0.150 HD
ATOM     28  O   UNL     1       6.347   0.008  27.081  0.00  0.00    -0.265 OA
BRANCH  25  32
ATOM     29  C   UNL     1       6.643   2.717  22.321  0.00  0.00    +0.111 C 
ATOM     30  C   UNL     1       5.859   2.224  23.469  0.00  0.00    +0.215 A 
ATOM     31  O   UNL     1       6.386   1.197  24.207  0.00  0.00    -0.417 OA
ATOM     32  C   UNL     1       5.411   1.015  25.162  0.00  0.00    +0.304 A 
ATOM     33  N   UNL     1       4.398   1.848  25.015  0.00  0.00    -0.102 NA
ATOM     34  N   UNL     1       4.687   2.628  23.913  0.00  0.00    -0.112 NA
ENDBRANCH  25  32
ENDBRANCH  22  26
ENDBRANCH   1  22
TORSDOF 6
ENDMDL
MODEL 9
REMARK VINA RESULT:      -7.2      2.275      3.042
REMARK  Name = 
REMARK  10 active torsions:
REMARK  status: ('A' for Active; 'I' for Inactive)
REMARK    1  A    between atoms: C_1  and  C_2
REMARK    2  A    between atoms: C_5  and  C_7
REMARK    3  A    between atoms: N_9  and  C_10
REMARK    4  A    between atoms: C_10  and  C_11
REMARK    5  A    between atoms: C_10  and  C_12
REMARK    6  A    between atoms: C_10  and  C_13
REMARK    7  A    between atoms: C_15  and  C_22
REMARK    8  A    between atoms: N_19  and  C_20
REMARK    9  A    between atoms: N_24  and  C_25
REMARK   10  A    between atoms: C_25  and  C_26
REMARK                            x       y       z     vdW  Elec       q    Type
REMARK                         _______ _______ _______ _____ _____    ______ ____
ROOT
ATOM      1  C   UNL     1       5.300  -4.603  25.315  0.00  0.00    +0.136 A 
ATOM      2  N   UNL     1       5.827  -5.315  26.369  0.00  0.00    -0.299 N 
ATOM      3  C   UNL     1       5.034  -6.014  27.369  0.00  0.00    +0.154 C 
ATOM      4  C   UNL     1       7.194  -5.279  26.638  0.00  0.00    +0.247 A 
ATOM      5  O   UNL     1       7.641  -5.758  27.688  0.00  0.00    -0.268 OA
ATOM      6  C   UNL     1       8.110  -4.631  25.610  0.00  0.00    -0.010 A 
ATOM      7  O   UNL     1       9.361  -4.744  25.831  0.00  0.00    -0.869 OA
ATOM      8  C   UNL     1       7.432  -4.017  24.601  0.00  0.00    +0.125 A 
ATOM      9  N   UNL     1       6.059  -3.979  24.471  0.00  0.00    -0.227 NA
ENDROOT
BRANCH   8  10
ATOM     10  C   UNL     1       8.223  -3.306  23.458  0.00  0.00    +0.262 C 
ATOM     11  N   UNL     1       9.391  -2.692  23.837  0.00  0.00    -0.306 N 
ATOM     12  H   UNL     1       9.626  -2.852  24.828  0.00  0.00    +0.149 HD
ATOM     13  O   UNL     1       7.820  -3.292  22.292  0.00  0.00    -0.269 OA
BRANCH  11  14
ATOM     14  C   UNL     1      10.343  -2.034  22.989  0.00  0.00    +0.140 C 
BRANCH  14  15
ATOM     15  C   UNL     1      10.224  -0.528  23.085  0.00  0.00    -0.030 A 
ATOM     16  C   UNL     1      10.462   0.129  24.303  0.00  0.00    +0.008 A 
ATOM     17  C   UNL     1      10.381   1.521  24.385  0.00  0.00    +0.038 A 
ATOM     18  C   UNL     1      10.057   2.260  23.254  0.00  0.00    +0.123 A 
ATOM     19  F   UNL     1       9.995   3.597  23.334  0.00  0.00    -0.205 F 
ATOM     20  C   UNL     1       9.807   1.633  22.040  0.00  0.00    +0.038 A 
ATOM     21  C   UNL     1       9.886   0.241  21.957  0.00  0.00    +0.008 A 
ENDBRANCH  14  15
ENDBRANCH  11  14
ENDBRANCH   8  10
BRANCH   1  22
ATOM     22  C   UNL     1       3.725  -4.609  24.978  0.00  0.00    +0.087 C 
ATOM     23  C   UNL     1       3.085  -3.365  25.640  0.00  0.00    +0.039 C 
ATOM     24  C   UNL     1       3.600  -4.469  23.447  0.00  0.00    +0.039 C 
BRANCH  22  26
ATOM     25  C   UNL     1       1.611  -5.975  25.481  0.00  0.00    +0.301 C 
ATOM     26  N   UNL     1       2.994  -5.802  25.467  0.00  0.00    -0.295 N 
ATOM     27  H   UNL     1       3.511  -6.471  26.023  0.00  0.00    +0.150 HD
ATOM     28  O   UNL     1       0.820  -5.117  25.096  0.00  0.00    -0.265 OA
BRANCH  25  32
ATOM     29  C   UNL     1       0.913 -10.780  25.660  0.00  0.00    +0.111 C 
ATOM     30  C   UNL     1       0.884  -9.376  26.108  0.00  0.00    +0.215 A 
ATOM     31  O   UNL     1       1.378  -8.424  25.253  0.00  0.00    -0.417 OA
ATOM     32  C   UNL     1       1.188  -7.273  25.985  0.00  0.00    +0.304 A 
ATOM     33  N   UNL     1       0.636  -7.506  27.160  0.00  0.00    -0.102 NA
ATOM     34  N   UNL     1       0.444  -8.870  27.241  0.00  0.00    -0.112 NA
ENDBRANCH  25  32
ENDBRANCH  22  26
ENDBRANCH   1  22
TORSDOF 6
ENDMDL
