MODEL 1
REMARK VINA RESULT:       1.5      0.000      0.000
REMARK  Name = 
REMARK  19 active torsions:
REMARK  status: ('A' for Active; 'I' for Inactive)
REMARK    1  A    between atoms: C_1  and  C_2
REMARK    2  A    between atoms: C_2  and  C_3
REMARK    3  A    between atoms: C_2  and  C_4
REMARK    4  A    between atoms: C_4  and  C_5
REMARK    5  A    between atoms: C_4  and  N_61
REMARK    6  A    between atoms: C_11  and  C_12
REMARK    7  A    between atoms: C_15  and  C_17
REMARK    8  A    between atoms: C_24  and  C_55
REMARK    9  A    between atoms: C_32  and  C_34
REMARK   10  A    between atoms: C_37  and  C_39
REMARK   11  A    between atoms: C_44  and  C_46
REMARK   12  A    between atoms: C_46  and  C_47
REMARK   13  A    between atoms: C_46  and  N_50
REMARK   14  A    between atoms: C_47  and  C_48
REMARK   15  A    between atoms: C_47  and  C_49
REMARK   16  A    between atoms: C_51  and  O_53
REMARK   17  A    between atoms: O_53  and  C_54
REMARK   18  A    between atoms: C_62  and  O_64
REMARK   19  A    between atoms: O_64  and  C_65
REMARK                            x       y       z     vdW  Elec       q    Type
REMARK                         _______ _______ _______ _____ _____    ______ ____
ROOT
ATOM      1  C   UNL     1       3.600  -4.844  28.417  0.00  0.00    +0.000 A 
ATOM      2  C   UNL     1       3.458  -4.422  29.745  0.00  0.00    +0.012 A 
ATOM      3  C   UNL     1       3.793  -3.122  30.154  0.00  0.00    +0.027 A 
ATOM      4  C   UNL     1       4.283  -2.245  29.182  0.00  0.00    +0.053 A 
ATOM      5  N   UNL     1       4.647  -0.918  29.236  0.00  0.00    -0.300 N 
ATOM      6  C   UNL     1       5.048  -0.484  27.998  0.00  0.00    +0.057 A 
ATOM      7  C   UNL     1       4.942  -1.534  27.121  0.00  0.00    +0.036 A 
ATOM      8  C   UNL     1       5.462   0.886  27.854  0.00  0.00    +0.040 A 
ATOM      9  C   UNL     1       5.600   1.487  26.606  0.00  0.00    +0.014 A 
ATOM     10  C   UNL     1       6.056   2.798  26.523  0.00  0.00    +0.011 A 
ATOM     11  C   UNL     1       6.392   3.505  27.687  0.00  0.00    +0.003 A 
ATOM     12  C   UNL     1       6.227   2.899  28.942  0.00  0.00    +0.056 A 
ATOM     13  C   UNL     1       5.737   1.603  29.022  0.00  0.00    +0.133 A 
ATOM     14  O   UNL     1       5.581   1.043  30.274  0.00  0.00    -0.464 OA
ATOM     15  C   UNL     1       4.533   0.026  30.357  0.00  0.00    +0.308 C 
ATOM     16  C   UNL     1       4.446  -2.639  27.851  0.00  0.00    +0.001 A 
ATOM     17  C   UNL     1       4.106  -3.946  27.471  0.00  0.00    +0.020 A 
ENDROOT
BRANCH   1  21
ATOM     18  C   UNL     1       2.805  -7.933  26.661  0.00  0.00    +0.128 A 
ATOM     19  N   UNL     1       3.236  -6.636  26.686  0.00  0.00    -0.340 N 
ATOM     20  H   UNL     1       3.508  -6.112  25.868  0.00  0.00    +0.167 HD
ATOM     21  C   UNL     1       3.231  -6.192  27.987  0.00  0.00    +0.066 A 
ATOM     22  C   UNL     1       2.821  -7.306  28.704  0.00  0.00    +0.139 A 
ATOM     23  N   UNL     1       2.547  -8.362  27.881  0.00  0.00    -0.238 NA
BRANCH  18  26
ATOM     24  C   UNL     1       2.716  -6.925  23.670  0.00  0.00    +0.237 C 
ATOM     25  N   UNL     1       2.029  -7.989  24.249  0.00  0.00    -0.290 N 
ATOM     26  C   UNL     1       2.551  -8.703  25.418  0.00  0.00    +0.142 C 
ATOM     27  C   UNL     1       1.524  -9.827  25.676  0.00  0.00    +0.032 C 
ATOM     28  C   UNL     1       0.485  -9.690  24.567  0.00  0.00    +0.021 C 
ATOM     29  C   UNL     1       1.213  -8.920  23.493  0.00  0.00    +0.108 C 
ATOM     30  O   UNL     1       3.291  -6.080  24.353  0.00  0.00    -0.274 OA
BRANCH  24  31
ATOM     31  C   UNL     1       2.643  -6.817  22.120  0.00  0.00    +0.165 C 
BRANCH  31  32
ATOM     32  N   UNL     1       3.958  -7.013  21.513  0.00  0.00    -0.270 N 
ATOM     33  H   UNL     1       4.183  -7.880  21.045  0.00  0.00    +0.153 HD
ATOM     34  C   UNL     1       4.886  -6.018  21.466  0.00  0.00    +0.401 C 
ATOM     35  O   UNL     1       4.748  -4.913  21.968  0.00  0.00    -0.226 OA
BRANCH  34  36
ATOM     36  O   UNL     1       5.992  -6.450  20.813  0.00  0.00    -0.454 OA
ATOM     37  C   UNL     1       7.090  -5.535  20.864  0.00  0.00    +0.282 C 
ENDBRANCH  34  36
ENDBRANCH  31  32
BRANCH  31  39
ATOM     38  C   UNL     1       0.454  -6.937  20.733  0.00  0.00    +0.009 C 
ATOM     39  C   UNL     1       1.572  -7.702  21.443  0.00  0.00    +0.012 C 
ATOM     40  C   UNL     1       2.214  -8.714  20.488  0.00  0.00    +0.009 C 
ENDBRANCH  31  39
ENDBRANCH  24  31
ENDBRANCH  18  26
ENDBRANCH   1  21
BRANCH  11  41
ATOM     41  C   UNL     1       6.950   4.845  27.564  0.00  0.00    +0.066 A 
ATOM     42  N   UNL     1       8.205   5.123  27.117  0.00  0.00    -0.340 N 
ATOM     43  H   UNL     1       8.895   4.436  26.834  0.00  0.00    +0.167 HD
ATOM     44  C   UNL     1       8.337   6.480  27.012  0.00  0.00    +0.128 A 
ATOM     45  N   UNL     1       7.270   7.091  27.485  0.00  0.00    -0.238 NA
ATOM     46  C   UNL     1       6.398   6.086  27.821  0.00  0.00    +0.139 A 
BRANCH  44  47
ATOM     47  C   UNL     1       9.518   7.062  26.328  0.00  0.00    +0.142 C 
ATOM     48  N   UNL     1       9.911   6.448  25.057  0.00  0.00    -0.290 N 
ATOM     49  C   UNL     1       9.203   6.314  23.872  0.00  0.00    +0.237 C 
ATOM     50  O   UNL     1       9.827   6.119  22.822  0.00  0.00    -0.274 OA
ATOM     51  C   UNL     1      11.365   6.336  24.996  0.00  0.00    +0.108 C 
ATOM     52  C   UNL     1      11.904   6.999  26.256  0.00  0.00    +0.021 C 
ATOM     53  C   UNL     1      10.752   6.855  27.226  0.00  0.00    +0.032 C 
BRANCH  49  54
ATOM     54  C   UNL     1       7.644   6.305  23.860  0.00  0.00    +0.165 C 
BRANCH  54  55
ATOM     55  N   UNL     1       7.182   4.916  23.941  0.00  0.00    -0.270 N 
ATOM     56  H   UNL     1       6.608   4.658  24.739  0.00  0.00    +0.153 HD
ATOM     57  C   UNL     1       7.802   3.870  23.325  0.00  0.00    +0.401 C 
ATOM     58  O   UNL     1       8.759   3.945  22.570  0.00  0.00    -0.226 OA
BRANCH  57  59
ATOM     59  O   UNL     1       7.203   2.707  23.687  0.00  0.00    -0.454 OA
ATOM     60  C   UNL     1       6.628   1.976  22.600  0.00  0.00    +0.282 C 
ENDBRANCH  57  59
ENDBRANCH  54  55
BRANCH  54  61
ATOM     61  C   UNL     1       7.031   7.044  22.635  0.00  0.00    +0.012 C 
ATOM     62  C   UNL     1       5.502   7.094  22.696  0.00  0.00    +0.009 C 
ATOM     63  C   UNL     1       7.452   6.385  21.312  0.00  0.00    +0.009 C 
ENDBRANCH  54  61
ENDBRANCH  49  54
ENDBRANCH  44  47
ENDBRANCH  11  41
BRANCH  15  64
ATOM     64  C   UNL     1       3.170   0.717  30.458  0.00  0.00    +0.014 A 
ATOM     65  C   UNL     1       3.114   2.124  30.466  0.00  0.00    +0.009 A 
ATOM     66  C   UNL     1       1.889   2.795  30.445  0.00  0.00    +0.000 A 
ATOM     67  C   UNL     1       0.698   2.073  30.431  0.00  0.00    +0.000 A 
ATOM     68  C   UNL     1       0.731   0.683  30.462  0.00  0.00    +0.000 A 
ATOM     69  C   UNL     1       1.954   0.011  30.484  0.00  0.00    +0.009 A 
ENDBRANCH  15  64
TORSDOF 13
ENDMDL
MODEL 2
REMARK VINA RESULT:       4.1      2.764     12.607
REMARK  Name = 
REMARK  19 active torsions:
REMARK  status: ('A' for Active; 'I' for Inactive)
REMARK    1  A    between atoms: C_1  and  C_2
REMARK    2  A    between atoms: C_2  and  C_3
REMARK    3  A    between atoms: C_2  and  C_4
REMARK    4  A    between atoms: C_4  and  C_5
REMARK    5  A    between atoms: C_4  and  N_61
REMARK    6  A    between atoms: C_11  and  C_12
REMARK    7  A    between atoms: C_15  and  C_17
REMARK    8  A    between atoms: C_24  and  C_55
REMARK    9  A    between atoms: C_32  and  C_34
REMARK   10  A    between atoms: C_37  and  C_39
REMARK   11  A    between atoms: C_44  and  C_46
REMARK   12  A    between atoms: C_46  and  C_47
REMARK   13  A    between atoms: C_46  and  N_50
REMARK   14  A    between atoms: C_47  and  C_48
REMARK   15  A    between atoms: C_47  and  C_49
REMARK   16  A    between atoms: C_51  and  O_53
REMARK   17  A    between atoms: O_53  and  C_54
REMARK   18  A    between atoms: C_62  and  O_64
REMARK   19  A    between atoms: O_64  and  C_65
REMARK                            x       y       z     vdW  Elec       q    Type
REMARK                         _______ _______ _______ _____ _____    ______ ____
ROOT
ATOM      1  C   UNL     1       5.369   3.667  24.505  0.00  0.00    +0.000 A 
ATOM      2  C   UNL     1       4.003   3.965  24.436  0.00  0.00    +0.012 A 
ATOM      3  C   UNL     1       3.025   3.103  24.956  0.00  0.00    +0.027 A 
ATOM      4  C   UNL     1       3.459   1.917  25.554  0.00  0.00    +0.053 A 
ATOM      5  N   UNL     1       2.781   0.903  26.193  0.00  0.00    -0.300 N 
ATOM      6  C   UNL     1       3.662  -0.050  26.640  0.00  0.00    +0.057 A 
ATOM      7  C   UNL     1       4.930   0.344  26.296  0.00  0.00    +0.036 A 
ATOM      8  C   UNL     1       3.137  -1.191  27.342  0.00  0.00    +0.040 A 
ATOM      9  C   UNL     1       3.955  -2.044  28.077  0.00  0.00    +0.014 A 
ATOM     10  C   UNL     1       3.402  -3.163  28.691  0.00  0.00    +0.011 A 
ATOM     11  C   UNL     1       2.034  -3.440  28.556  0.00  0.00    +0.003 A 
ATOM     12  C   UNL     1       1.213  -2.562  27.832  0.00  0.00    +0.056 A 
ATOM     13  C   UNL     1       1.762  -1.426  27.252  0.00  0.00    +0.133 A 
ATOM     14  O   UNL     1       0.921  -0.582  26.554  0.00  0.00    -0.464 OA
ATOM     15  C   UNL     1       1.353   0.815  26.527  0.00  0.00    +0.308 C 
ATOM     16  C   UNL     1       4.815   1.586  25.630  0.00  0.00    +0.001 A 
ATOM     17  C   UNL     1       5.772   2.464  25.098  0.00  0.00    +0.020 A 
ENDROOT
BRANCH   1  21
ATOM     18  C   UNL     1       8.273   5.758  23.832  0.00  0.00    +0.128 A 
ATOM     19  N   UNL     1       7.594   4.844  24.589  0.00  0.00    -0.340 N 
ATOM     20  H   UNL     1       7.941   4.447  25.448  0.00  0.00    +0.167 HD
ATOM     21  C   UNL     1       6.390   4.574  23.982  0.00  0.00    +0.066 A 
ATOM     22  C   UNL     1       6.434   5.339  22.827  0.00  0.00    +0.139 A 
ATOM     23  N   UNL     1       7.585   6.073  22.753  0.00  0.00    -0.238 NA
BRANCH  18  26
ATOM     24  C   UNL     1      11.233   4.760  23.365  0.00  0.00    +0.237 C 
ATOM     25  N   UNL     1      10.732   5.536  24.407  0.00  0.00    -0.290 N 
ATOM     26  C   UNL     1       9.552   6.390  24.239  0.00  0.00    +0.142 C 
ATOM     27  C   UNL     1       9.395   7.106  25.598  0.00  0.00    +0.032 C 
ATOM     28  C   UNL     1      10.564   6.623  26.450  0.00  0.00    +0.021 C 
ATOM     29  C   UNL     1      11.566   6.135  25.432  0.00  0.00    +0.108 C 
ATOM     30  O   UNL     1      10.489   4.161  22.591  0.00  0.00    -0.274 OA
BRANCH  24  31
ATOM     31  C   UNL     1      12.780   4.625  23.288  0.00  0.00    +0.165 C 
BRANCH  31  32
ATOM     32  N   UNL     1      13.215   3.285  23.675  0.00  0.00    -0.270 N 
ATOM     33  H   UNL     1      14.136   3.137  24.064  0.00  0.00    +0.153 HD
ATOM     34  C   UNL     1      12.380   2.212  23.620  0.00  0.00    +0.401 C 
ATOM     35  O   UNL     1      11.236   2.241  23.193  0.00  0.00    -0.226 OA
BRANCH  34  36
ATOM     36  O   UNL     1      13.019   1.107  24.075  0.00  0.00    -0.454 OA
ATOM     37  C   UNL     1      12.154   0.153  24.700  0.00  0.00    +0.282 C 
ENDBRANCH  34  36
ENDBRANCH  31  32
BRANCH  31  39
ATOM     38  C   UNL     1      12.735   4.510  20.695  0.00  0.00    +0.009 C 
ATOM     39  C   UNL     1      13.418   5.060  21.948  0.00  0.00    +0.012 C 
ATOM     40  C   UNL     1      13.537   6.586  21.864  0.00  0.00    +0.009 C 
ENDBRANCH  31  39
ENDBRANCH  24  31
ENDBRANCH  18  26
ENDBRANCH   1  21
BRANCH  11  41
ATOM     41  C   UNL     1       1.501  -4.665  29.136  0.00  0.00    +0.066 A 
ATOM     42  N   UNL     1       1.680  -5.910  28.615  0.00  0.00    -0.340 N 
ATOM     43  H   UNL     1       2.188  -6.126  27.765  0.00  0.00    +0.167 HD
ATOM     44  C   UNL     1       1.155  -6.824  29.488  0.00  0.00    +0.128 A 
ATOM     45  N   UNL     1       0.541  -6.220  30.483  0.00  0.00    -0.238 NA
ATOM     46  C   UNL     1       0.758  -4.880  30.282  0.00  0.00    +0.139 A 
BRANCH  44  47
ATOM     47  C   UNL     1       1.415  -8.272  29.292  0.00  0.00    +0.142 C 
ATOM     48  N   UNL     1       1.079  -8.829  27.980  0.00  0.00    -0.290 N 
ATOM     49  C   UNL     1       1.558  -8.501  26.720  0.00  0.00    +0.237 C 
ATOM     50  O   UNL     1       1.444  -9.325  25.804  0.00  0.00    -0.274 OA
ATOM     51  C   UNL     1       0.449 -10.135  28.148  0.00  0.00    +0.108 C 
ATOM     52  C   UNL     1       0.481 -10.442  29.639  0.00  0.00    +0.021 C 
ATOM     53  C   UNL     1       0.517  -9.063  30.261  0.00  0.00    +0.032 C 
BRANCH  49  54
ATOM     54  C   UNL     1       2.141  -7.087  26.421  0.00  0.00    +0.165 C 
BRANCH  54  55
ATOM     55  N   UNL     1       1.635  -6.636  25.120  0.00  0.00    -0.270 N 
ATOM     56  H   UNL     1       1.972  -7.120  24.292  0.00  0.00    +0.153 HD
ATOM     57  C   UNL     1       1.140  -5.388  24.886  0.00  0.00    +0.401 C 
ATOM     58  O   UNL     1       0.972  -4.513  25.722  0.00  0.00    -0.226 OA
BRANCH  57  59
ATOM     59  O   UNL     1       0.865  -5.246  23.565  0.00  0.00    -0.454 OA
ATOM     60  C   UNL     1       1.047  -6.435  22.793  0.00  0.00    +0.282 C 
ENDBRANCH  57  59
ENDBRANCH  54  55
BRANCH  54  61
ATOM     61  C   UNL     1       3.695  -7.032  26.483  0.00  0.00    +0.012 C 
ATOM     62  C   UNL     1       4.224  -7.270  27.900  0.00  0.00    +0.009 C 
ATOM     63  C   UNL     1       4.232  -5.685  25.974  0.00  0.00    +0.009 C 
ENDBRANCH  54  61
ENDBRANCH  49  54
ENDBRANCH  44  47
ENDBRANCH  11  41
BRANCH  15  64
ATOM     64  C   UNL     1       0.978   1.482  27.854  0.00  0.00    +0.014 A 
ATOM     65  C   UNL     1       0.999   0.716  29.036  0.00  0.00    +0.009 A 
ATOM     66  C   UNL     1       0.772   1.308  30.280  0.00  0.00    +0.000 A 
ATOM     67  C   UNL     1       0.506   2.673  30.366  0.00  0.00    +0.000 A 
ATOM     68  C   UNL     1       0.443   3.439  29.207  0.00  0.00    +0.000 A 
ATOM     69  C   UNL     1       0.668   2.849  27.963  0.00  0.00    +0.009 A 
ENDBRANCH  15  64
TORSDOF 13
ENDMDL
