MODEL 1
REMARK VINA RESULT:      -6.2      0.000      0.000
REMARK  Name = 
REMARK  4 active torsions:
REMARK  status: ('A' for Active; 'I' for Inactive)
REMARK    1  A    between atoms: C3*_2  and  O3*_20
REMARK    2  A    between atoms: C4*_4  and  C5*_18
REMARK    3  A    between atoms: C1*_7  and  N_9
REMARK    4  A    between atoms: C5*_18  and  O5*_19
REMARK                            x       y       z     vdW  Elec       q    Type
REMARK                         _______ _______ _______ _____ _____    ______ ____
ROOT
ATOM      1  C2* UNL     1       9.601  -2.314  24.003  0.00  0.00    +0.088 C 
ATOM      2  C1* UNL     1       8.785  -3.559  23.636  0.00  0.00    +0.226 C 
ATOM      3  O4* UNL     1       7.763  -3.140  22.713  0.00  0.00    -0.348 OA
ATOM      4  C4* UNL     1       7.886  -1.719  22.489  0.00  0.00    +0.175 C 
ATOM      5  C3* UNL     1       9.316  -1.361  22.871  0.00  0.00    +0.150 C 
ENDROOT
BRANCH   2   6
ATOM      6  N   UNL     1       8.195  -4.209  24.811  0.00  0.00    -0.273 N 
ATOM      7  C   UNL     1       8.996  -5.096  25.516  0.00  0.00    +0.331 A 
ATOM      8  O   UNL     1      10.150  -5.382  25.205  0.00  0.00    -0.246 OA
ATOM      9  N   UNL     1       8.440  -5.630  26.647  0.00  0.00    -0.274 N 
ATOM     10  H   UNL     1       9.047  -6.196  27.220  0.00  0.00    +0.173 HD
ATOM     11  C   UNL     1       7.234  -5.282  27.190  0.00  0.00    +0.267 A 
ATOM     12  O   UNL     1       6.927  -5.642  28.322  0.00  0.00    -0.267 OA
ATOM     13  C   UNL     1       6.359  -4.442  26.330  0.00  0.00    +0.094 A 
ATOM     14  I   UNL     1       4.445  -4.030  26.911  0.00  0.00    -0.037 I 
ATOM     15  C   UNL     1       6.889  -3.954  25.201  0.00  0.00    +0.113 A 
ENDBRANCH   2   6
BRANCH   5  16
ATOM     16  O3* UNL     1      10.197  -1.636  21.784  0.00  0.00    -0.389 OA
ATOM     17  H3* UNL     1       9.776  -1.310  20.968  0.00  0.00    +0.210 HD
ENDBRANCH   5  16
BRANCH   4  18
ATOM     18  C5* UNL     1       6.854  -0.980  23.356  0.00  0.00    +0.190 C 
BRANCH  18  19
ATOM     19  O5* UNL     1       6.471   0.267  22.777  0.00  0.00    -0.392 OA
ATOM     20  H5* UNL     1       7.283   0.762  22.566  0.00  0.00    +0.210 HD
ENDBRANCH  18  19
ENDBRANCH   4  18
TORSDOF 4
ENDMDL
MODEL 2
REMARK VINA RESULT:      -5.9      2.469      2.939
REMARK  Name = 
REMARK  4 active torsions:
REMARK  status: ('A' for Active; 'I' for Inactive)
REMARK    1  A    between atoms: C3*_2  and  O3*_20
REMARK    2  A    between atoms: C4*_4  and  C5*_18
REMARK    3  A    between atoms: C1*_7  and  N_9
REMARK    4  A    between atoms: C5*_18  and  O5*_19
REMARK                            x       y       z     vdW  Elec       q    Type
REMARK                         _______ _______ _______ _____ _____    ______ ____
ROOT
ATOM      1  C2* UNL     1       8.604  -1.316  24.858  0.00  0.00    +0.088 C 
ATOM      2  C1* UNL     1       9.237  -2.712  24.866  0.00  0.00    +0.226 C 
ATOM      3  O4* UNL     1      10.189  -2.751  23.787  0.00  0.00    -0.348 OA
ATOM      4  C4* UNL     1      10.183  -1.477  23.107  0.00  0.00    +0.175 C 
ATOM      5  C3* UNL     1       9.603  -0.480  24.101  0.00  0.00    +0.150 C 
ENDROOT
BRANCH   2   6
ATOM      6  N   UNL     1       8.242  -3.780  24.726  0.00  0.00    -0.273 N 
ATOM      7  C   UNL     1       7.732  -4.331  25.893  0.00  0.00    +0.331 A 
ATOM      8  O   UNL     1       8.078  -3.994  27.023  0.00  0.00    -0.246 OA
ATOM      9  N   UNL     1       6.754  -5.273  25.728  0.00  0.00    -0.274 N 
ATOM     10  H   UNL     1       6.307  -5.606  26.568  0.00  0.00    +0.173 HD
ATOM     11  C   UNL     1       6.170  -5.626  24.542  0.00  0.00    +0.267 A 
ATOM     12  O   UNL     1       5.148  -6.305  24.523  0.00  0.00    -0.267 OA
ATOM     13  C   UNL     1       6.842  -5.118  23.317  0.00  0.00    +0.094 A 
ATOM     14  I   UNL     1       6.219  -5.742  21.475  0.00  0.00    -0.037 I 
ATOM     15  C   UNL     1       7.829  -4.227  23.479  0.00  0.00    +0.113 A 
ENDBRANCH   2   6
BRANCH   5  16
ATOM     16  O3* UNL     1      10.621  -0.030  24.993  0.00  0.00    -0.389 OA
ATOM     17  H3* UNL     1      10.878  -0.782  25.557  0.00  0.00    +0.210 HD
ENDBRANCH   5  16
BRANCH   4  18
ATOM     18  C5* UNL     1       9.327  -1.588  21.834  0.00  0.00    +0.190 C 
BRANCH  18  19
ATOM     19  O5* UNL     1       9.512  -0.465  20.973  0.00  0.00    -0.392 OA
ATOM     20  H5* UNL     1       9.912  -0.783  20.145  0.00  0.00    +0.210 HD
ENDBRANCH  18  19
ENDBRANCH   4  18
TORSDOF 4
ENDMDL
MODEL 3
REMARK VINA RESULT:      -5.9      2.477      2.929
REMARK  Name = 
REMARK  4 active torsions:
REMARK  status: ('A' for Active; 'I' for Inactive)
REMARK    1  A    between atoms: C3*_2  and  O3*_20
REMARK    2  A    between atoms: C4*_4  and  C5*_18
REMARK    3  A    between atoms: C1*_7  and  N_9
REMARK    4  A    between atoms: C5*_18  and  O5*_19
REMARK                            x       y       z     vdW  Elec       q    Type
REMARK                         _______ _______ _______ _____ _____    ______ ____
ROOT
ATOM      1  C2* UNL     1       8.732  -3.838  24.287  0.00  0.00    +0.088 C 
ATOM      2  C1* UNL     1       7.931  -4.370  23.094  0.00  0.00    +0.226 C 
ATOM      3  O4* UNL     1       7.539  -3.232  22.304  0.00  0.00    -0.348 OA
ATOM      4  C4* UNL     1       8.036  -2.031  22.931  0.00  0.00    +0.175 C 
ATOM      5  C3* UNL     1       9.184  -2.476  23.827  0.00  0.00    +0.150 C 
ENDROOT
BRANCH   2   6
ATOM      6  N   UNL     1       6.759  -5.149  23.508  0.00  0.00    -0.273 N 
ATOM      7  C   UNL     1       6.068  -5.834  22.518  0.00  0.00    +0.331 A 
ATOM      8  O   UNL     1       6.364  -5.807  21.326  0.00  0.00    -0.246 OA
ATOM      9  N   UNL     1       5.024  -6.607  22.948  0.00  0.00    -0.274 N 
ATOM     10  H   UNL     1       4.580  -7.185  22.252  0.00  0.00    +0.173 HD
ATOM     11  C   UNL     1       4.686  -6.848  24.252  0.00  0.00    +0.267 A 
ATOM     12  O   UNL     1       3.887  -7.734  24.540  0.00  0.00    -0.267 OA
ATOM     13  C   UNL     1       5.359  -5.988  25.261  0.00  0.00    +0.094 A 
ATOM     14  I   UNL     1       4.793  -6.077  27.221  0.00  0.00    -0.037 I 
ATOM     15  C   UNL     1       6.352  -5.198  24.834  0.00  0.00    +0.113 A 
ENDBRANCH   2   6
BRANCH   5  16
ATOM     16  O3* UNL     1      10.381  -2.606  23.063  0.00  0.00    -0.389 OA
ATOM     17  H3* UNL     1      10.283  -3.384  22.484  0.00  0.00    +0.210 HD
ENDBRANCH   5  16
BRANCH   4  18
ATOM     18  C5* UNL     1       6.901  -1.371  23.732  0.00  0.00    +0.190 C 
BRANCH  18  19
ATOM     19  O5* UNL     1       6.347  -0.253  23.040  0.00  0.00    -0.392 OA
ATOM     20  H5* UNL     1       5.823   0.265  23.677  0.00  0.00    +0.210 HD
ENDBRANCH  18  19
ENDBRANCH   4  18
TORSDOF 4
ENDMDL
MODEL 4
REMARK VINA RESULT:      -5.8      2.662      5.150
REMARK  Name = 
REMARK  4 active torsions:
REMARK  status: ('A' for Active; 'I' for Inactive)
REMARK    1  A    between atoms: C3*_2  and  O3*_20
REMARK    2  A    between atoms: C4*_4  and  C5*_18
REMARK    3  A    between atoms: C1*_7  and  N_9
REMARK    4  A    between atoms: C5*_18  and  O5*_19
REMARK                            x       y       z     vdW  Elec       q    Type
REMARK                         _______ _______ _______ _____ _____    ______ ____
ROOT
ATOM      1  C2* UNL     1       6.997  -3.513  23.645  0.00  0.00    +0.088 C 
ATOM      2  C1* UNL     1       8.482  -3.197  23.437  0.00  0.00    +0.226 C 
ATOM      3  O4* UNL     1       9.232  -4.191  24.159  0.00  0.00    -0.348 OA
ATOM      4  C4* UNL     1       8.313  -5.096  24.806  0.00  0.00    +0.175 C 
ATOM      5  C3* UNL     1       6.999  -4.965  24.047  0.00  0.00    +0.150 C 
ENDROOT
BRANCH   2   6
ATOM      6  N   UNL     1       8.836  -1.846  23.885  0.00  0.00    -0.273 N 
ATOM      7  C   UNL     1       9.974  -1.272  23.336  0.00  0.00    +0.331 A 
ATOM      8  O   UNL     1      10.705  -1.831  22.523  0.00  0.00    -0.246 OA
ATOM      9  N   UNL     1      10.235   0.015  23.721  0.00  0.00    -0.274 N 
ATOM     10  H   UNL     1      11.000   0.476  23.253  0.00  0.00    +0.173 HD
ATOM     11  C   UNL     1       9.425   0.804  24.491  0.00  0.00    +0.267 A 
ATOM     12  O   UNL     1       9.630   2.010  24.588  0.00  0.00    -0.267 OA
ATOM     13  C   UNL     1       8.299   0.105  25.166  0.00  0.00    +0.094 A 
ATOM     14  I   UNL     1       7.141   1.102  26.521  0.00  0.00    -0.037 I 
ATOM     15  C   UNL     1       8.069  -1.169  24.822  0.00  0.00    +0.113 A 
ENDBRANCH   2   6
BRANCH   5  16
ATOM     16  O3* UNL     1       7.025  -5.783  22.878  0.00  0.00    -0.389 OA
ATOM     17  H3* UNL     1       6.136  -5.758  22.477  0.00  0.00    +0.210 HD
ENDBRANCH   5  16
BRANCH   4  18
ATOM     18  C5* UNL     1       8.167  -4.699  26.285  0.00  0.00    +0.190 C 
BRANCH  18  19
ATOM     19  O5* UNL     1       8.088  -5.842  27.134  0.00  0.00    -0.392 OA
ATOM     20  H5* UNL     1       7.628  -6.548  26.647  0.00  0.00    +0.210 HD
ENDBRANCH  18  19
ENDBRANCH   4  18
TORSDOF 4
ENDMDL
MODEL 5
REMARK VINA RESULT:      -5.5      2.464      3.237
REMARK  Name = 
REMARK  4 active torsions:
REMARK  status: ('A' for Active; 'I' for Inactive)
REMARK    1  A    between atoms: C3*_2  and  O3*_20
REMARK    2  A    between atoms: C4*_4  and  C5*_18
REMARK    3  A    between atoms: C1*_7  and  N_9
REMARK    4  A    between atoms: C5*_18  and  O5*_19
REMARK                            x       y       z     vdW  Elec       q    Type
REMARK                         _______ _______ _______ _____ _____    ______ ____
ROOT
ATOM      1  C2* UNL     1       6.458  -3.484  23.786  0.00  0.00    +0.088 C 
ATOM      2  C1* UNL     1       7.345  -4.500  24.514  0.00  0.00    +0.226 C 
ATOM      3  O4* UNL     1       7.939  -5.342  23.509  0.00  0.00    -0.348 OA
ATOM      4  C4* UNL     1       7.474  -4.921  22.208  0.00  0.00    +0.175 C 
ATOM      5  C3* UNL     1       7.005  -3.483  22.382  0.00  0.00    +0.150 C 
ENDROOT
BRANCH   2   6
ATOM      6  N   UNL     1       6.596  -5.299  25.490  0.00  0.00    -0.273 N 
ATOM      7  C   UNL     1       7.162  -5.459  26.748  0.00  0.00    +0.331 A 
ATOM      8  O   UNL     1       8.250  -4.995  27.080  0.00  0.00    -0.246 OA
ATOM      9  N   UNL     1       6.405  -6.148  27.657  0.00  0.00    -0.274 N 
ATOM     10  H   UNL     1       6.761  -6.184  28.599  0.00  0.00    +0.173 HD
ATOM     11  C   UNL     1       5.121  -6.581  27.469  0.00  0.00    +0.267 A 
ATOM     12  O   UNL     1       4.448  -6.980  28.415  0.00  0.00    -0.267 OA
ATOM     13  C   UNL     1       4.615  -6.513  26.072  0.00  0.00    +0.094 A 
ATOM     14  I   UNL     1       2.804  -7.327  25.599  0.00  0.00    -0.037 I 
ATOM     15  C   UNL     1       5.376  -5.876  25.172  0.00  0.00    +0.113 A 
ENDBRANCH   2   6
BRANCH   5  16
ATOM     16  O3* UNL     1       8.116  -2.591  22.305  0.00  0.00    -0.389 OA
ATOM     17  H3* UNL     1       8.260  -2.374  21.365  0.00  0.00    +0.210 HD
ENDBRANCH   5  16
BRANCH   4  18
ATOM     18  C5* UNL     1       6.336  -5.849  21.752  0.00  0.00    +0.190 C 
BRANCH  18  19
ATOM     19  O5* UNL     1       5.947  -5.586  20.405  0.00  0.00    -0.392 OA
ATOM     20  H5* UNL     1       5.298  -6.263  20.142  0.00  0.00    +0.210 HD
ENDBRANCH  18  19
ENDBRANCH   4  18
TORSDOF 4
ENDMDL
MODEL 6
REMARK VINA RESULT:      -5.5      2.902      3.898
REMARK  Name = 
REMARK  4 active torsions:
REMARK  status: ('A' for Active; 'I' for Inactive)
REMARK    1  A    between atoms: C3*_2  and  O3*_20
REMARK    2  A    between atoms: C4*_4  and  C5*_18
REMARK    3  A    between atoms: C1*_7  and  N_9
REMARK    4  A    between atoms: C5*_18  and  O5*_19
REMARK                            x       y       z     vdW  Elec       q    Type
REMARK                         _______ _______ _______ _____ _____    ______ ____
ROOT
ATOM      1  C2* UNL     1       9.829   1.730  24.269  0.00  0.00    +0.088 C 
ATOM      2  C1* UNL     1       9.812   0.628  23.203  0.00  0.00    +0.226 C 
ATOM      3  O4* UNL     1       9.034   1.121  22.097  0.00  0.00    -0.348 OA
ATOM      4  C4* UNL     1       8.563   2.450  22.408  0.00  0.00    +0.175 C 
ATOM      5  C3* UNL     1       9.493   2.976  23.492  0.00  0.00    +0.150 C 
ENDROOT
BRANCH   2   6
ATOM      6  N   UNL     1       9.261  -0.633  23.710  0.00  0.00    -0.273 N 
ATOM      7  C   UNL     1       9.822  -1.809  23.231  0.00  0.00    +0.331 A 
ATOM      8  O   UNL     1      10.727  -1.854  22.401  0.00  0.00    -0.246 OA
ATOM      9  N   UNL     1       9.335  -2.965  23.777  0.00  0.00    -0.274 N 
ATOM     10  H   UNL     1       9.803  -3.818  23.511  0.00  0.00    +0.173 HD
ATOM     11  C   UNL     1       8.445  -3.053  24.813  0.00  0.00    +0.267 A 
ATOM     12  O   UNL     1       8.249  -4.121  25.384  0.00  0.00    -0.267 OA
ATOM     13  C   UNL     1       7.772  -1.782  25.192  0.00  0.00    +0.094 A 
ATOM     14  I   UNL     1       6.261  -1.795  26.566  0.00  0.00    -0.037 I 
ATOM     15  C   UNL     1       8.220  -0.654  24.626  0.00  0.00    +0.113 A 
ENDBRANCH   2   6
BRANCH   5  16
ATOM     16  O3* UNL     1      10.680   3.506  22.905  0.00  0.00    -0.389 OA
ATOM     17  H3* UNL     1      11.355   2.802  22.910  0.00  0.00    +0.210 HD
ENDBRANCH   5  16
BRANCH   4  18
ATOM     18  C5* UNL     1       7.104   2.369  22.887  0.00  0.00    +0.190 C 
BRANCH  18  19
ATOM     19  O5* UNL     1       6.419   1.257  22.313  0.00  0.00    -0.392 OA
ATOM     20  H5* UNL     1       5.851   0.867  23.000  0.00  0.00    +0.210 HD
ENDBRANCH  18  19
ENDBRANCH   4  18
TORSDOF 4
ENDMDL
MODEL 7
REMARK VINA RESULT:      -5.5      5.068      7.380
REMARK  Name = 
REMARK  4 active torsions:
REMARK  status: ('A' for Active; 'I' for Inactive)
REMARK    1  A    between atoms: C3*_2  and  O3*_20
REMARK    2  A    between atoms: C4*_4  and  C5*_18
REMARK    3  A    between atoms: C1*_7  and  N_9
REMARK    4  A    between atoms: C5*_18  and  O5*_19
REMARK                            x       y       z     vdW  Elec       q    Type
REMARK                         _______ _______ _______ _____ _____    ______ ____
ROOT
ATOM      1  C2* UNL     1       9.309   0.625  21.568  0.00  0.00    +0.088 C 
ATOM      2  C1* UNL     1       9.929   1.222  22.836  0.00  0.00    +0.226 C 
ATOM      3  O4* UNL     1       9.600   0.340  23.924  0.00  0.00    -0.348 OA
ATOM      4  C4* UNL     1       8.811  -0.758  23.418  0.00  0.00    +0.175 C 
ATOM      5  C3* UNL     1       9.103  -0.824  21.925  0.00  0.00    +0.150 C 
ENDROOT
BRANCH   2   6
ATOM      6  N   UNL     1       9.457   2.584  23.104  0.00  0.00    -0.273 N 
ATOM      7  C   UNL     1      10.415   3.542  23.406  0.00  0.00    +0.331 A 
ATOM      8  O   UNL     1      11.619   3.313  23.482  0.00  0.00    -0.246 OA
ATOM      9  N   UNL     1       9.948   4.816  23.579  0.00  0.00    -0.274 N 
ATOM     10  H   UNL     1      10.644   5.536  23.699  0.00  0.00    +0.173 HD
ATOM     11  C   UNL     1       8.662   5.237  23.371  0.00  0.00    +0.267 A 
ATOM     12  O   UNL     1       8.392   6.433  23.326  0.00  0.00    -0.267 OA
ATOM     13  C   UNL     1       7.654   4.159  23.189  0.00  0.00    +0.094 A 
ATOM     14  I   UNL     1       5.667   4.622  23.092  0.00  0.00    -0.037 I 
ATOM     15  C   UNL     1       8.108   2.905  23.062  0.00  0.00    +0.113 A 
ENDBRANCH   2   6
BRANCH   5  16
ATOM     16  O3* UNL     1      10.310  -1.547  21.693  0.00  0.00    -0.389 OA
ATOM     17  H3* UNL     1      10.303  -1.850  20.766  0.00  0.00    +0.210 HD
ENDBRANCH   5  16
BRANCH   4  18
ATOM     18  C5* UNL     1       7.325  -0.488  23.705  0.00  0.00    +0.190 C 
BRANCH  18  19
ATOM     19  O5* UNL     1       6.476  -1.159  22.776  0.00  0.00    -0.392 OA
ATOM     20  H5* UNL     1       6.336  -0.567  22.015  0.00  0.00    +0.210 HD
ENDBRANCH  18  19
ENDBRANCH   4  18
TORSDOF 4
ENDMDL
MODEL 8
REMARK VINA RESULT:      -5.4      3.048      4.811
REMARK  Name = 
REMARK  4 active torsions:
REMARK  status: ('A' for Active; 'I' for Inactive)
REMARK    1  A    between atoms: C3*_2  and  O3*_20
REMARK    2  A    between atoms: C4*_4  and  C5*_18
REMARK    3  A    between atoms: C1*_7  and  N_9
REMARK    4  A    between atoms: C5*_18  and  O5*_19
REMARK                            x       y       z     vdW  Elec       q    Type
REMARK                         _______ _______ _______ _____ _____    ______ ____
ROOT
ATOM      1  C2* UNL     1       6.468  -4.082  22.017  0.00  0.00    +0.088 C 
ATOM      2  C1* UNL     1       7.623  -4.187  23.018  0.00  0.00    +0.226 C 
ATOM      3  O4* UNL     1       7.114  -4.860  24.185  0.00  0.00    -0.348 OA
ATOM      4  C4* UNL     1       5.720  -5.171  23.977  0.00  0.00    +0.175 C 
ATOM      5  C3* UNL     1       5.512  -5.156  22.469  0.00  0.00    +0.150 C 
ENDROOT
BRANCH   2   6
ATOM      6  N   UNL     1       8.181  -2.877  23.370  0.00  0.00    -0.273 N 
ATOM      7  C   UNL     1       9.413  -2.861  24.010  0.00  0.00    +0.331 A 
ATOM      8  O   UNL     1      10.045  -3.870  24.314  0.00  0.00    -0.246 OA
ATOM      9  N   UNL     1       9.938  -1.623  24.259  0.00  0.00    -0.274 N 
ATOM     10  H   UNL     1      10.874  -1.600  24.631  0.00  0.00    +0.173 HD
ATOM     11  C   UNL     1       9.417  -0.430  23.838  0.00  0.00    +0.267 A 
ATOM     12  O   UNL     1      10.076   0.603  23.908  0.00  0.00    -0.267 OA
ATOM     13  C   UNL     1       8.037  -0.488  23.286  0.00  0.00    +0.094 A 
ATOM     14  I   UNL     1       7.046   1.237  22.825  0.00  0.00    -0.037 I 
ATOM     15  C   UNL     1       7.506  -1.700  23.082  0.00  0.00    +0.113 A 
ENDBRANCH   2   6
BRANCH   5  16
ATOM     16  O3* UNL     1       5.904  -6.408  21.908  0.00  0.00    -0.389 OA
ATOM     17  H3* UNL     1       5.204  -6.691  21.291  0.00  0.00    +0.210 HD
ENDBRANCH   5  16
BRANCH   4  18
ATOM     18  C5* UNL     1       4.855  -4.119  24.690  0.00  0.00    +0.190 C 
BRANCH  18  19
ATOM     19  O5* UNL     1       3.544  -4.046  24.133  0.00  0.00    -0.392 OA
ATOM     20  H5* UNL     1       3.224  -4.956  23.997  0.00  0.00    +0.210 HD
ENDBRANCH  18  19
ENDBRANCH   4  18
TORSDOF 4
ENDMDL
MODEL 9
REMARK VINA RESULT:      -5.3      2.654      3.517
REMARK  Name = 
REMARK  4 active torsions:
REMARK  status: ('A' for Active; 'I' for Inactive)
REMARK    1  A    between atoms: C3*_2  and  O3*_20
REMARK    2  A    between atoms: C4*_4  and  C5*_18
REMARK    3  A    between atoms: C1*_7  and  N_9
REMARK    4  A    between atoms: C5*_18  and  O5*_19
REMARK                            x       y       z     vdW  Elec       q    Type
REMARK                         _______ _______ _______ _____ _____    ______ ____
ROOT
ATOM      1  C2* UNL     1       7.708   0.656  23.715  0.00  0.00    +0.088 C 
ATOM      2  C1* UNL     1       8.808  -0.061  24.505  0.00  0.00    +0.226 C 
ATOM      3  O4* UNL     1       9.999  -0.030  23.697  0.00  0.00    -0.348 OA
ATOM      4  C4* UNL     1       9.709   0.650  22.457  0.00  0.00    +0.175 C 
ATOM      5  C3* UNL     1       8.475   1.500  22.730  0.00  0.00    +0.150 C 
ENDROOT
BRANCH   2   6
ATOM      6  N   UNL     1       8.445  -1.439  24.850  0.00  0.00    -0.273 N 
ATOM      7  C   UNL     1       8.521  -1.802  26.188  0.00  0.00    +0.331 A 
ATOM      8  O   UNL     1       8.893  -1.050  27.086  0.00  0.00    -0.246 OA
ATOM      9  N   UNL     1       8.106  -3.071  26.484  0.00  0.00    -0.274 N 
ATOM     10  H   UNL     1       8.063  -3.311  27.462  0.00  0.00    +0.173 HD
ATOM     11  C   UNL     1       7.528  -3.952  25.612  0.00  0.00    +0.267 A 
ATOM     12  O   UNL     1       6.980  -4.972  26.019  0.00  0.00    -0.267 OA
ATOM     13  C   UNL     1       7.597  -3.575  24.175  0.00  0.00    +0.094 A 
ATOM     14  I   UNL     1       6.977  -4.890  22.740  0.00  0.00    -0.037 I 
ATOM     15  C   UNL     1       8.044  -2.347  23.881  0.00  0.00    +0.113 A 
ENDBRANCH   2   6
BRANCH   5  16
ATOM     16  O3* UNL     1       8.852   2.729  23.348  0.00  0.00    -0.389 OA
ATOM     17  H3* UNL     1       9.690   3.021  22.944  0.00  0.00    +0.210 HD
ENDBRANCH   5  16
BRANCH   4  18
ATOM     18  C5* UNL     1       9.460  -0.392  21.355  0.00  0.00    +0.190 C 
BRANCH  18  19
ATOM     19  O5* UNL     1      10.335  -1.512  21.479  0.00  0.00    -0.392 OA
ATOM     20  H5* UNL     1      10.412  -1.731  22.424  0.00  0.00    +0.210 HD
ENDBRANCH  18  19
ENDBRANCH   4  18
TORSDOF 4
ENDMDL
