MODEL 1
REMARK VINA RESULT:      -6.9      0.000      0.000
REMARK  Name = 
REMARK  17 active torsions:
REMARK  status: ('A' for Active; 'I' for Inactive)
REMARK    1  A    between atoms: C_1  and  C_2
REMARK    2  A    between atoms: C_2  and  C_3
REMARK    3  A    between atoms: C_2  and  C_4
REMARK    4  A    between atoms: C_2  and  N_5
REMARK    5  A    between atoms: C_6  and  C_8
REMARK    6  A    between atoms: N_11  and  C_44
REMARK    7  A    between atoms: N_14  and  C_15
REMARK    8  A    between atoms: C_15  and  C_16
REMARK    9  A    between atoms: C_16  and  C_18
REMARK   10  A    between atoms: C_16  and  O_43
REMARK   11  A    between atoms: C_18  and  C_19
REMARK   12  A    between atoms: C_19  and  C_21
REMARK   13  A    between atoms: C_19  and  C_28
REMARK   14  A    between atoms: C_21  and  C_22
REMARK   15  A    between atoms: N_30  and  C_31
REMARK   16  A    between atoms: C_33  and  O_42
REMARK   17  A    between atoms: C_44  and  C_45
REMARK                            x       y       z     vdW  Elec       q    Type
REMARK                         _______ _______ _______ _____ _____    ______ ____
ROOT
ATOM      1  C   UNL     1       9.447  -3.439  24.953  0.00  0.00    +0.129 C 
ENDROOT
BRANCH   1   2
ATOM      2  O   UNL     1       9.943  -4.781  24.841  0.00  0.00    -0.391 OA
ATOM      3  H   UNL     1       9.852  -5.047  23.907  0.00  0.00    +0.210 HD
ENDBRANCH   1   2
BRANCH   1   4
ATOM      4  C   UNL     1       8.000  -3.529  25.542  0.00  0.00    +0.116 C 
BRANCH   4   6
ATOM      5  C   UNL     1       6.103  -2.429  26.854  0.00  0.00    +0.157 C 
ATOM      6  N   UNL     1       7.566  -2.756  26.735  0.00  0.00    -0.287 NA
ATOM      7  C   UNL     1       8.249  -1.419  26.734  0.00  0.00    +0.100 C 
ATOM      8  C   UNL     1       7.665  -0.324  25.780  0.00  0.00    +0.100 C 
ATOM      9  N   UNL     1       6.206  -0.106  25.917  0.00  0.00    -0.295 NA
ATOM     10  C   UNL     1       5.530  -1.417  25.826  0.00  0.00    +0.113 C 
BRANCH   5  13
ATOM     11  N   UNL     1       5.576  -4.637  27.758  0.00  0.00    -0.309 N 
ATOM     12  H   UNL     1       6.484  -4.540  28.203  0.00  0.00    +0.149 HD
ATOM     13  C   UNL     1       5.195  -3.650  26.871  0.00  0.00    +0.232 C 
ATOM     14  O   UNL     1       4.184  -3.714  26.170  0.00  0.00    -0.274 OA
BRANCH  11  16
ATOM     15  C   UNL     1       4.902  -6.679  26.571  0.00  0.00    +0.031 C 
ATOM     16  C   UNL     1       4.881  -5.922  27.905  0.00  0.00    +0.026 C 
ATOM     17  C   UNL     1       5.624  -6.768  28.954  0.00  0.00    +0.031 C 
ATOM     18  C   UNL     1       3.434  -5.727  28.392  0.00  0.00    +0.031 C 
ENDBRANCH  11  16
ENDBRANCH   5  13
BRANCH   9  19
ATOM     19  C   UNL     1       5.727   0.846  24.890  0.00  0.00    +0.121 C 
BRANCH  19  20
ATOM     20  C   UNL     1       5.508   2.268  25.356  0.00  0.00    -0.015 A 
ATOM     21  C   UNL     1       6.473   2.935  26.122  0.00  0.00    +0.008 A 
ATOM     22  C   UNL     1       6.248   4.243  26.549  0.00  0.00    +0.020 A 
ATOM     23  C   UNL     1       5.053   4.850  26.202  0.00  0.00    +0.111 A 
ATOM     24  N   UNL     1       4.088   4.238  25.480  0.00  0.00    -0.263 NA
ATOM     25  C   UNL     1       4.337   2.967  25.077  0.00  0.00    +0.115 A 
ENDBRANCH  19  20
ENDBRANCH   9  19
ENDBRANCH   4   6
ENDBRANCH   1   4
BRANCH   1  26
ATOM     26  C   UNL     1       9.703  -2.664  23.631  0.00  0.00    +0.045 C 
BRANCH  26  27
ATOM     27  C   UNL     1       8.538  -2.005  22.841  0.00  0.00    +0.082 C 
BRANCH  27  28
ATOM     28  C   UNL     1       9.036  -0.700  22.147  0.00  0.00    +0.217 C 
ATOM     29  N   UNL     1       9.020   0.417  22.949  0.00  0.00    -0.306 N 
ATOM     30  H   UNL     1       9.062   0.250  23.950  0.00  0.00    +0.149 HD
ATOM     31  O   UNL     1       9.441  -0.665  20.988  0.00  0.00    -0.275 OA
BRANCH  29  32
ATOM     32  C   UNL     1       9.495   1.745  22.539  0.00  0.00    +0.132 C 
ATOM     33  C   UNL     1       8.474   2.866  22.656  0.00  0.00    -0.022 A 
ATOM     34  C   UNL     1       8.998   3.963  23.364  0.00  0.00    -0.040 A 
ATOM     35  C   UNL     1       8.256   5.121  23.586  0.00  0.00    +0.004 A 
ATOM     36  C   UNL     1       6.979   5.206  23.036  0.00  0.00    +0.000 A 
ATOM     37  C   UNL     1       6.478   4.151  22.263  0.00  0.00    +0.000 A 
ATOM     38  C   UNL     1      10.435   3.758  23.714  0.00  0.00    +0.069 C 
ATOM     39  C   UNL     1       7.220   2.973  22.070  0.00  0.00    +0.006 A 
ATOM     40  C   UNL     1      10.567   2.235  23.567  0.00  0.00    +0.143 C 
BRANCH  40  41
ATOM     41  O   UNL     1      10.320   1.624  24.860  0.00  0.00    -0.389 OA
ATOM     42  H   UNL     1      10.195   0.671  24.685  0.00  0.00    +0.210 HD
ENDBRANCH  40  41
ENDBRANCH  29  32
ENDBRANCH  27  28
BRANCH  27  43
ATOM     43  C   UNL     1       7.949  -2.912  21.751  0.00  0.00    +0.048 C 
BRANCH  43  44
ATOM     44  C   UNL     1       6.883  -3.869  22.241  0.00  0.00    -0.047 A 
ATOM     45  C   UNL     1       7.119  -5.250  22.231  0.00  0.00    +0.003 A 
ATOM     46  C   UNL     1       6.109  -6.145  22.580  0.00  0.00    +0.000 A 
ATOM     47  C   UNL     1       4.849  -5.670  22.938  0.00  0.00    +0.000 A 
ATOM     48  C   UNL     1       4.610  -4.298  22.979  0.00  0.00    +0.000 A 
ATOM     49  C   UNL     1       5.624  -3.400  22.640  0.00  0.00    +0.003 A 
ENDBRANCH  43  44
ENDBRANCH  27  43
ENDBRANCH  26  27
ENDBRANCH   1  26
TORSDOF 14
ENDMDL
MODEL 2
REMARK VINA RESULT:      -6.7      2.048      6.304
REMARK  Name = 
REMARK  17 active torsions:
REMARK  status: ('A' for Active; 'I' for Inactive)
REMARK    1  A    between atoms: C_1  and  C_2
REMARK    2  A    between atoms: C_2  and  C_3
REMARK    3  A    between atoms: C_2  and  C_4
REMARK    4  A    between atoms: C_2  and  N_5
REMARK    5  A    between atoms: C_6  and  C_8
REMARK    6  A    between atoms: N_11  and  C_44
REMARK    7  A    between atoms: N_14  and  C_15
REMARK    8  A    between atoms: C_15  and  C_16
REMARK    9  A    between atoms: C_16  and  C_18
REMARK   10  A    between atoms: C_16  and  O_43
REMARK   11  A    between atoms: C_18  and  C_19
REMARK   12  A    between atoms: C_19  and  C_21
REMARK   13  A    between atoms: C_19  and  C_28
REMARK   14  A    between atoms: C_21  and  C_22
REMARK   15  A    between atoms: N_30  and  C_31
REMARK   16  A    between atoms: C_33  and  O_42
REMARK   17  A    between atoms: C_44  and  C_45
REMARK                            x       y       z     vdW  Elec       q    Type
REMARK                         _______ _______ _______ _____ _____    ______ ____
ROOT
ATOM      1  C   UNL     1       8.205  -0.321  26.175  0.00  0.00    +0.129 C 
ENDROOT
BRANCH   1   2
ATOM      2  O   UNL     1       9.428  -0.444  26.917  0.00  0.00    -0.391 OA
ATOM      3  H   UNL     1       9.625   0.431  27.299  0.00  0.00    +0.210 HD
ENDBRANCH   1   2
BRANCH   1   4
ATOM      4  C   UNL     1       7.028  -0.491  27.192  0.00  0.00    +0.116 C 
BRANCH   4   6
ATOM      5  C   UNL     1       4.817   0.783  27.326  0.00  0.00    +0.157 C 
ATOM      6  N   UNL     1       6.260   0.660  27.734  0.00  0.00    -0.287 NA
ATOM      7  C   UNL     1       6.891   1.940  27.268  0.00  0.00    +0.100 C 
ATOM      8  C   UNL     1       6.582   2.391  25.801  0.00  0.00    +0.100 C 
ATOM      9  N   UNL     1       5.139   2.427  25.461  0.00  0.00    -0.295 NA
ATOM     10  C   UNL     1       4.542   1.129  25.838  0.00  0.00    +0.113 C 
BRANCH   5  13
ATOM     11  N   UNL     1       3.741  -1.307  26.660  0.00  0.00    -0.309 N 
ATOM     12  H   UNL     1       4.025  -1.016  25.728  0.00  0.00    +0.149 HD
ATOM     13  C   UNL     1       3.964  -0.422  27.696  0.00  0.00    +0.232 C 
ATOM     14  O   UNL     1       3.550  -0.594  28.843  0.00  0.00    -0.274 OA
BRANCH  11  16
ATOM     15  C   UNL     1       1.456  -2.105  27.077  0.00  0.00    +0.031 C 
ATOM     16  C   UNL     1       2.904  -2.508  26.771  0.00  0.00    +0.026 C 
ATOM     17  C   UNL     1       2.926  -3.252  25.425  0.00  0.00    +0.031 C 
ATOM     18  C   UNL     1       3.436  -3.466  27.851  0.00  0.00    +0.031 C 
ENDBRANCH  11  16
ENDBRANCH   5  13
BRANCH   9  19
ATOM     19  C   UNL     1       4.955   2.734  24.025  0.00  0.00    +0.121 C 
BRANCH  19  20
ATOM     20  C   UNL     1       5.595   4.013  23.534  0.00  0.00    -0.015 A 
ATOM     21  C   UNL     1       6.625   3.987  22.583  0.00  0.00    +0.008 A 
ATOM     22  C   UNL     1       7.209   5.177  22.150  0.00  0.00    +0.020 A 
ATOM     23  C   UNL     1       6.750   6.367  22.687  0.00  0.00    +0.111 A 
ATOM     24  N   UNL     1       5.772   6.437  23.619  0.00  0.00    -0.263 NA
ATOM     25  C   UNL     1       5.222   5.263  24.018  0.00  0.00    +0.115 A 
ENDBRANCH  19  20
ENDBRANCH   9  19
ENDBRANCH   4   6
ENDBRANCH   1   4
BRANCH   1  26
ATOM     26  C   UNL     1       8.265  -1.204  24.898  0.00  0.00    +0.045 C 
BRANCH  26  27
ATOM     27  C   UNL     1       9.529  -2.041  24.553  0.00  0.00    +0.082 C 
BRANCH  27  28
ATOM     28  C   UNL     1       9.145  -3.545  24.392  0.00  0.00    +0.217 C 
ATOM     29  N   UNL     1       8.013  -3.769  23.643  0.00  0.00    -0.306 N 
ATOM     30  H   UNL     1       7.764  -3.041  22.981  0.00  0.00    +0.149 HD
ATOM     31  O   UNL     1       9.806  -4.465  24.866  0.00  0.00    -0.275 OA
BRANCH  29  32
ATOM     32  C   UNL     1       7.487  -5.098  23.305  0.00  0.00    +0.132 C 
ATOM     33  C   UNL     1       6.354  -5.593  24.192  0.00  0.00    -0.022 A 
ATOM     34  C   UNL     1       5.259  -6.029  23.425  0.00  0.00    -0.040 A 
ATOM     35  C   UNL     1       4.105  -6.545  24.011  0.00  0.00    +0.004 A 
ATOM     36  C   UNL     1       4.070  -6.680  25.397  0.00  0.00    +0.000 A 
ATOM     37  C   UNL     1       5.186  -6.322  26.165  0.00  0.00    +0.000 A 
ATOM     38  C   UNL     1       5.553  -5.975  21.962  0.00  0.00    +0.069 C 
ATOM     39  C   UNL     1       6.334  -5.774  25.568  0.00  0.00    +0.006 A 
ATOM     40  C   UNL     1       6.749  -5.011  21.930  0.00  0.00    +0.143 C 
BRANCH  40  41
ATOM     41  O   UNL     1       6.248  -3.664  21.726  0.00  0.00    -0.389 OA
ATOM     42  H   UNL     1       5.995  -3.338  22.612  0.00  0.00    +0.210 HD
ENDBRANCH  40  41
ENDBRANCH  29  32
ENDBRANCH  27  28
BRANCH  27  43
ATOM     43  C   UNL     1      10.217  -1.600  23.252  0.00  0.00    +0.048 C 
BRANCH  43  44
ATOM     44  C   UNL     1      10.263  -0.100  23.047  0.00  0.00    -0.047 A 
ATOM     45  C   UNL     1      10.875   0.722  24.002  0.00  0.00    +0.003 A 
ATOM     46  C   UNL     1      10.831   2.110  23.875  0.00  0.00    +0.000 A 
ATOM     47  C   UNL     1      10.171   2.691  22.795  0.00  0.00    +0.000 A 
ATOM     48  C   UNL     1       9.582   1.884  21.824  0.00  0.00    +0.000 A 
ATOM     49  C   UNL     1       9.634   0.494  21.944  0.00  0.00    +0.003 A 
ENDBRANCH  43  44
ENDBRANCH  27  43
ENDBRANCH  26  27
ENDBRANCH   1  26
TORSDOF 14
ENDMDL
MODEL 3
REMARK VINA RESULT:      -6.3      2.441      6.544
REMARK  Name = 
REMARK  17 active torsions:
REMARK  status: ('A' for Active; 'I' for Inactive)
REMARK    1  A    between atoms: C_1  and  C_2
REMARK    2  A    between atoms: C_2  and  C_3
REMARK    3  A    between atoms: C_2  and  C_4
REMARK    4  A    between atoms: C_2  and  N_5
REMARK    5  A    between atoms: C_6  and  C_8
REMARK    6  A    between atoms: N_11  and  C_44
REMARK    7  A    between atoms: N_14  and  C_15
REMARK    8  A    between atoms: C_15  and  C_16
REMARK    9  A    between atoms: C_16  and  C_18
REMARK   10  A    between atoms: C_16  and  O_43
REMARK   11  A    between atoms: C_18  and  C_19
REMARK   12  A    between atoms: C_19  and  C_21
REMARK   13  A    between atoms: C_19  and  C_28
REMARK   14  A    between atoms: C_21  and  C_22
REMARK   15  A    between atoms: N_30  and  C_31
REMARK   16  A    between atoms: C_33  and  O_42
REMARK   17  A    between atoms: C_44  and  C_45
REMARK                            x       y       z     vdW  Elec       q    Type
REMARK                         _______ _______ _______ _____ _____    ______ ____
ROOT
ATOM      1  C   UNL     1       8.000  -2.092  26.752  0.00  0.00    +0.129 C 
ENDROOT
BRANCH   1   2
ATOM      2  O   UNL     1       8.839  -2.639  25.724  0.00  0.00    -0.391 OA
ATOM      3  H   UNL     1       9.317  -3.395  26.112  0.00  0.00    +0.210 HD
ENDBRANCH   1   2
BRANCH   1   4
ATOM      4  C   UNL     1       6.766  -3.043  26.896  0.00  0.00    +0.116 C 
BRANCH   4   6
ATOM      5  C   UNL     1       6.458  -5.381  25.914  0.00  0.00    +0.157 C 
ATOM      6  N   UNL     1       6.898  -4.514  27.062  0.00  0.00    -0.287 NA
ATOM      7  C   UNL     1       6.050  -4.961  28.216  0.00  0.00    +0.100 C 
ATOM      8  C   UNL     1       4.513  -5.103  27.955  0.00  0.00    +0.100 C 
ATOM      9  N   UNL     1       4.164  -5.923  26.770  0.00  0.00    -0.295 NA
ATOM     10  C   UNL     1       4.935  -5.419  25.615  0.00  0.00    +0.113 C 
BRANCH   5  13
ATOM     11  N   UNL     1       6.412  -4.510  23.632  0.00  0.00    -0.309 N 
ATOM     12  H   UNL     1       5.412  -4.451  23.803  0.00  0.00    +0.149 HD
ATOM     13  C   UNL     1       7.189  -5.101  24.609  0.00  0.00    +0.232 C 
ATOM     14  O   UNL     1       8.386  -5.353  24.471  0.00  0.00    -0.274 OA
BRANCH  11  16
ATOM     15  C   UNL     1       7.217  -5.498  21.533  0.00  0.00    +0.031 C 
ATOM     16  C   UNL     1       6.890  -4.199  22.280  0.00  0.00    +0.026 C 
ATOM     17  C   UNL     1       5.772  -3.469  21.516  0.00  0.00    +0.031 C 
ATOM     18  C   UNL     1       8.120  -3.275  22.316  0.00  0.00    +0.031 C 
ENDBRANCH  11  16
ENDBRANCH   5  13
BRANCH   9  19
ATOM     19  C   UNL     1       2.705  -5.889  26.530  0.00  0.00    +0.121 C 
BRANCH  19  20
ATOM     20  C   UNL     1       2.219  -6.622  25.299  0.00  0.00    -0.015 A 
ATOM     21  C   UNL     1       1.538  -5.946  24.277  0.00  0.00    +0.008 A 
ATOM     22  C   UNL     1       1.091  -6.641  23.155  0.00  0.00    +0.020 A 
ATOM     23  C   UNL     1       1.330  -8.003  23.087  0.00  0.00    +0.111 A 
ATOM     24  N   UNL     1       1.967  -8.697  24.057  0.00  0.00    -0.263 NA
ATOM     25  C   UNL     1       2.393  -7.992  25.135  0.00  0.00    +0.115 A 
ENDBRANCH  19  20
ENDBRANCH   9  19
ENDBRANCH   4   6
ENDBRANCH   1   4
BRANCH   1  26
ATOM     26  C   UNL     1       7.788  -0.571  26.514  0.00  0.00    +0.045 C 
BRANCH  26  27
ATOM     27  C   UNL     1       6.601  -0.044  25.659  0.00  0.00    +0.082 C 
BRANCH  27  28
ATOM     28  C   UNL     1       6.518   1.510  25.762  0.00  0.00    +0.217 C 
ATOM     29  N   UNL     1       5.582   2.089  24.938  0.00  0.00    -0.306 N 
ATOM     30  H   UNL     1       4.813   1.494  24.646  0.00  0.00    +0.149 HD
ATOM     31  O   UNL     1       7.206   2.172  26.535  0.00  0.00    -0.275 OA
BRANCH  29  32
ATOM     32  C   UNL     1       5.281   3.527  24.900  0.00  0.00    +0.132 C 
ATOM     33  C   UNL     1       6.209   4.362  24.031  0.00  0.00    -0.022 A 
ATOM     34  C   UNL     1       5.482   5.171  23.138  0.00  0.00    -0.040 A 
ATOM     35  C   UNL     1       6.111   6.041  22.250  0.00  0.00    +0.004 A 
ATOM     36  C   UNL     1       7.500   6.145  22.297  0.00  0.00    +0.000 A 
ATOM     37  C   UNL     1       8.227   5.403  23.236  0.00  0.00    +0.000 A 
ATOM     38  C   UNL     1       4.010   5.054  23.361  0.00  0.00    +0.069 C 
ATOM     39  C   UNL     1       7.588   4.505  24.107  0.00  0.00    +0.006 A 
ATOM     40  C   UNL     1       3.927   3.736  24.145  0.00  0.00    +0.143 C 
BRANCH  40  41
ATOM     41  O   UNL     1       3.719   2.652  23.203  0.00  0.00    -0.389 OA
ATOM     42  H   UNL     1       4.210   1.888  23.564  0.00  0.00    +0.210 HD
ENDBRANCH  40  41
ENDBRANCH  29  32
ENDBRANCH  27  28
BRANCH  27  43
ATOM     43  C   UNL     1       6.715  -0.402  24.169  0.00  0.00    +0.048 C 
BRANCH  43  44
ATOM     44  C   UNL     1       7.788   0.362  23.423  0.00  0.00    -0.047 A 
ATOM     45  C   UNL     1       7.441   1.202  22.357  0.00  0.00    +0.003 A 
ATOM     46  C   UNL     1       8.428   1.828  21.596  0.00  0.00    +0.000 A 
ATOM     47  C   UNL     1       9.773   1.617  21.889  0.00  0.00    +0.000 A 
ATOM     48  C   UNL     1      10.131   0.805  22.964  0.00  0.00    +0.000 A 
ATOM     49  C   UNL     1       9.144   0.186  23.733  0.00  0.00    +0.003 A 
ENDBRANCH  43  44
ENDBRANCH  27  43
ENDBRANCH  26  27
ENDBRANCH   1  26
TORSDOF 14
ENDMDL
MODEL 4
REMARK VINA RESULT:      -6.3      2.212      6.602
REMARK  Name = 
REMARK  17 active torsions:
REMARK  status: ('A' for Active; 'I' for Inactive)
REMARK    1  A    between atoms: C_1  and  C_2
REMARK    2  A    between atoms: C_2  and  C_3
REMARK    3  A    between atoms: C_2  and  C_4
REMARK    4  A    between atoms: C_2  and  N_5
REMARK    5  A    between atoms: C_6  and  C_8
REMARK    6  A    between atoms: N_11  and  C_44
REMARK    7  A    between atoms: N_14  and  C_15
REMARK    8  A    between atoms: C_15  and  C_16
REMARK    9  A    between atoms: C_16  and  C_18
REMARK   10  A    between atoms: C_16  and  O_43
REMARK   11  A    between atoms: C_18  and  C_19
REMARK   12  A    between atoms: C_19  and  C_21
REMARK   13  A    between atoms: C_19  and  C_28
REMARK   14  A    between atoms: C_21  and  C_22
REMARK   15  A    between atoms: N_30  and  C_31
REMARK   16  A    between atoms: C_33  and  O_42
REMARK   17  A    between atoms: C_44  and  C_45
REMARK                            x       y       z     vdW  Elec       q    Type
REMARK                         _______ _______ _______ _____ _____    ______ ____
ROOT
ATOM      1  C   UNL     1       7.847  -0.661  27.245  0.00  0.00    +0.129 C 
ENDROOT
BRANCH   1   2
ATOM      2  O   UNL     1       9.228  -0.428  27.560  0.00  0.00    -0.391 OA
ATOM      3  H   UNL     1       9.740  -0.568  26.742  0.00  0.00    +0.210 HD
ENDBRANCH   1   2
BRANCH   1   4
ATOM      4  C   UNL     1       7.780  -1.983  26.410  0.00  0.00    +0.116 C 
BRANCH   4   6
ATOM      5  C   UNL     1       9.357  -2.321  24.429  0.00  0.00    +0.157 C 
ATOM      6  N   UNL     1       8.988  -2.644  25.850  0.00  0.00    -0.287 NA
ATOM      7  C   UNL     1       8.786  -4.131  25.856  0.00  0.00    +0.100 C 
ATOM      8  C   UNL     1       7.897  -4.731  24.716  0.00  0.00    +0.100 C 
ATOM      9  N   UNL     1       8.289  -4.316  23.348  0.00  0.00    -0.295 NA
ATOM     10  C   UNL     1       8.397  -2.842  23.325  0.00  0.00    +0.113 C 
BRANCH   5  13
ATOM     11  N   UNL     1       8.690  -0.238  23.339  0.00  0.00    -0.309 N 
ATOM     12  H   UNL     1       8.031  -0.842  22.856  0.00  0.00    +0.149 HD
ATOM     13  C   UNL     1       9.609  -0.841  24.175  0.00  0.00    +0.232 C 
ATOM     14  O   UNL     1      10.540  -0.242  24.713  0.00  0.00    -0.274 OA
BRANCH  11  16
ATOM     15  C   UNL     1       9.083   2.058  24.118  0.00  0.00    +0.031 C 
ATOM     16  C   UNL     1       8.764   1.164  22.913  0.00  0.00    +0.026 C 
ATOM     17  C   UNL     1       9.903   1.308  21.888  0.00  0.00    +0.031 C 
ATOM     18  C   UNL     1       7.458   1.618  22.237  0.00  0.00    +0.031 C 
ENDBRANCH  11  16
ENDBRANCH   5  13
BRANCH   9  19
ATOM     19  C   UNL     1       7.317  -4.823  22.355  0.00  0.00    +0.121 C 
BRANCH  19  20
ATOM     20  C   UNL     1       5.905  -5.032  22.856  0.00  0.00    -0.015 A 
ATOM     21  C   UNL     1       5.489  -6.276  23.348  0.00  0.00    +0.008 A 
ATOM     22  C   UNL     1       4.180  -6.450  23.797  0.00  0.00    +0.020 A 
ATOM     23  C   UNL     1       3.316  -5.370  23.734  0.00  0.00    +0.111 A 
ATOM     24  N   UNL     1       3.670  -4.158  23.250  0.00  0.00    -0.263 NA
ATOM     25  C   UNL     1       4.951  -4.020  22.825  0.00  0.00    +0.115 A 
ENDBRANCH  19  20
ENDBRANCH   9  19
ENDBRANCH   4   6
ENDBRANCH   1   4
BRANCH   1  26
ATOM     26  C   UNL     1       7.199   0.640  26.696  0.00  0.00    +0.045 C 
BRANCH  26  27
ATOM     27  C   UNL     1       5.759   1.061  27.106  0.00  0.00    +0.082 C 
BRANCH  27  28
ATOM     28  C   UNL     1       5.536   2.572  26.791  0.00  0.00    +0.217 C 
ATOM     29  N   UNL     1       5.386   2.863  25.456  0.00  0.00    -0.306 N 
ATOM     30  H   UNL     1       5.062   2.102  24.866  0.00  0.00    +0.149 HD
ATOM     31  O   UNL     1       5.468   3.439  27.659  0.00  0.00    -0.275 OA
BRANCH  29  32
ATOM     32  C   UNL     1       5.108   4.202  24.920  0.00  0.00    +0.132 C 
ATOM     33  C   UNL     1       6.291   4.897  24.262  0.00  0.00    -0.022 A 
ATOM     34  C   UNL     1       5.957   5.372  22.981  0.00  0.00    -0.040 A 
ATOM     35  C   UNL     1       6.871   6.061  22.187  0.00  0.00    +0.004 A 
ATOM     36  C   UNL     1       8.133   6.331  22.711  0.00  0.00    +0.000 A 
ATOM     37  C   UNL     1       8.450   5.931  24.016  0.00  0.00    +0.000 A 
ATOM     38  C   UNL     1       4.514   5.147  22.669  0.00  0.00    +0.069 C 
ATOM     39  C   UNL     1       7.533   5.210  24.799  0.00  0.00    +0.006 A 
ATOM     40  C   UNL     1       4.148   4.063  23.694  0.00  0.00    +0.143 C 
BRANCH  40  41
ATOM     41  O   UNL     1       4.330   2.764  23.074  0.00  0.00    -0.389 OA
ATOM     42  H   UNL     1       5.027   2.316  23.593  0.00  0.00    +0.210 HD
ENDBRANCH  40  41
ENDBRANCH  29  32
ENDBRANCH  27  28
BRANCH  27  43
ATOM     43  C   UNL     1       4.661   0.271  26.377  0.00  0.00    +0.048 C 
BRANCH  43  44
ATOM     44  C   UNL     1       4.292  -1.042  27.035  0.00  0.00    -0.047 A 
ATOM     45  C   UNL     1       4.188  -1.124  28.430  0.00  0.00    +0.003 A 
ATOM     46  C   UNL     1       3.953  -2.349  29.052  0.00  0.00    +0.000 A 
ATOM     47  C   UNL     1       3.824  -3.507  28.288  0.00  0.00    +0.000 A 
ATOM     48  C   UNL     1       3.899  -3.434  26.898  0.00  0.00    +0.000 A 
ATOM     49  C   UNL     1       4.123  -2.206  26.272  0.00  0.00    +0.003 A 
ENDBRANCH  43  44
ENDBRANCH  27  43
ENDBRANCH  26  27
ENDBRANCH   1  26
TORSDOF 14
ENDMDL
MODEL 5
REMARK VINA RESULT:      -6.2      2.772      7.726
REMARK  Name = 
REMARK  17 active torsions:
REMARK  status: ('A' for Active; 'I' for Inactive)
REMARK    1  A    between atoms: C_1  and  C_2
REMARK    2  A    between atoms: C_2  and  C_3
REMARK    3  A    between atoms: C_2  and  C_4
REMARK    4  A    between atoms: C_2  and  N_5
REMARK    5  A    between atoms: C_6  and  C_8
REMARK    6  A    between atoms: N_11  and  C_44
REMARK    7  A    between atoms: N_14  and  C_15
REMARK    8  A    between atoms: C_15  and  C_16
REMARK    9  A    between atoms: C_16  and  C_18
REMARK   10  A    between atoms: C_16  and  O_43
REMARK   11  A    between atoms: C_18  and  C_19
REMARK   12  A    between atoms: C_19  and  C_21
REMARK   13  A    between atoms: C_19  and  C_28
REMARK   14  A    between atoms: C_21  and  C_22
REMARK   15  A    between atoms: N_30  and  C_31
REMARK   16  A    between atoms: C_33  and  O_42
REMARK   17  A    between atoms: C_44  and  C_45
REMARK                            x       y       z     vdW  Elec       q    Type
REMARK                         _______ _______ _______ _____ _____    ______ ____
ROOT
ATOM      1  C   UNL     1       8.767   1.365  22.495  0.00  0.00    +0.129 C 
ENDROOT
BRANCH   1   2
ATOM      2  O   UNL     1       9.067   1.157  21.107  0.00  0.00    -0.391 OA
ATOM      3  H   UNL     1       8.776   0.254  20.880  0.00  0.00    +0.210 HD
ENDBRANCH   1   2
BRANCH   1   4
ATOM      4  C   UNL     1       8.478  -0.039  23.122  0.00  0.00    +0.116 C 
BRANCH   4   6
ATOM      5  C   UNL     1       6.412  -1.176  24.105  0.00  0.00    +0.157 C 
ATOM      6  N   UNL     1       7.209  -0.778  22.893  0.00  0.00    -0.287 NA
ATOM      7  C   UNL     1       7.509  -2.075  22.200  0.00  0.00    +0.100 C 
ATOM      8  C   UNL     1       8.060  -3.242  23.085  0.00  0.00    +0.100 C 
ATOM      9  N   UNL     1       7.250  -3.532  24.292  0.00  0.00    -0.295 NA
ATOM     10  C   UNL     1       7.035  -2.265  25.021  0.00  0.00    +0.113 C 
BRANCH   5  13
ATOM     11  N   UNL     1       6.594   0.027  26.224  0.00  0.00    -0.309 N 
ATOM     12  H   UNL     1       7.135  -0.787  26.501  0.00  0.00    +0.149 HD
ATOM     13  C   UNL     1       5.991  -0.006  24.982  0.00  0.00    +0.232 C 
ATOM     14  O   UNL     1       5.204   0.853  24.582  0.00  0.00    -0.274 OA
BRANCH  11  16
ATOM     15  C   UNL     1       4.851   0.876  27.731  0.00  0.00    +0.031 C 
ATOM     16  C   UNL     1       6.300   1.031  27.253  0.00  0.00    +0.026 C 
ATOM     17  C   UNL     1       7.234   0.796  28.453  0.00  0.00    +0.031 C 
ATOM     18  C   UNL     1       6.546   2.458  26.733  0.00  0.00    +0.031 C 
ENDBRANCH  11  16
ENDBRANCH   5  13
BRANCH   9  19
ATOM     19  C   UNL     1       7.917  -4.554  25.129  0.00  0.00    +0.121 C 
BRANCH  19  20
ATOM     20  C   UNL     1       7.031  -5.286  26.112  0.00  0.00    -0.015 A 
ATOM     21  C   UNL     1       5.792  -5.810  25.719  0.00  0.00    +0.008 A 
ATOM     22  C   UNL     1       4.986  -6.473  26.644  0.00  0.00    +0.020 A 
ATOM     23  C   UNL     1       5.440  -6.589  27.946  0.00  0.00    +0.111 A 
ATOM     24  N   UNL     1       6.620  -6.083  28.372  0.00  0.00    -0.263 NA
ATOM     25  C   UNL     1       7.383  -5.446  27.449  0.00  0.00    +0.115 A 
ENDBRANCH  19  20
ENDBRANCH   9  19
ENDBRANCH   4   6
ENDBRANCH   1   4
BRANCH   1  26
ATOM     26  C   UNL     1       7.732   2.515  22.650  0.00  0.00    +0.045 C 
BRANCH  26  27
ATOM     27  C   UNL     1       8.185   3.989  22.844  0.00  0.00    +0.082 C 
BRANCH  27  28
ATOM     28  C   UNL     1       7.036   4.958  22.427  0.00  0.00    +0.217 C 
ATOM     29  N   UNL     1       5.786   4.583  22.861  0.00  0.00    -0.306 N 
ATOM     30  H   UNL     1       5.758   3.980  23.678  0.00  0.00    +0.149 HD
ATOM     31  O   UNL     1       7.222   5.991  21.790  0.00  0.00    -0.275 OA
BRANCH  29  32
ATOM     32  C   UNL     1       4.559   5.363  22.644  0.00  0.00    +0.132 C 
ATOM     33  C   UNL     1       3.271   4.554  22.621  0.00  0.00    -0.022 A 
ATOM     34  C   UNL     1       2.310   5.100  23.491  0.00  0.00    -0.040 A 
ATOM     35  C   UNL     1       1.040   4.545  23.631  0.00  0.00    +0.004 A 
ATOM     36  C   UNL     1       0.705   3.450  22.838  0.00  0.00    +0.000 A 
ATOM     37  C   UNL     1       1.628   2.947  21.912  0.00  0.00    +0.000 A 
ATOM     38  C   UNL     1       2.789   6.370  24.115  0.00  0.00    +0.069 C 
ATOM     39  C   UNL     1       2.917   3.493  21.799  0.00  0.00    +0.006 A 
ATOM     40  C   UNL     1       4.305   6.259  23.899  0.00  0.00    +0.143 C 
BRANCH  40  41
ATOM     41  O   UNL     1       4.893   5.638  25.072  0.00  0.00    -0.389 OA
ATOM     42  H   UNL     1       5.448   6.326  25.488  0.00  0.00    +0.210 HD
ENDBRANCH  40  41
ENDBRANCH  29  32
ENDBRANCH  27  28
BRANCH  27  43
ATOM     43  C   UNL     1       8.568   4.324  24.293  0.00  0.00    +0.048 C 
BRANCH  43  44
ATOM     44  C   UNL     1       9.774   5.230  24.428  0.00  0.00    -0.047 A 
ATOM     45  C   UNL     1      10.929   4.982  23.674  0.00  0.00    +0.003 A 
ATOM     46  C   UNL     1      12.079   5.745  23.867  0.00  0.00    +0.000 A 
ATOM     47  C   UNL     1      12.091   6.761  24.819  0.00  0.00    +0.000 A 
ATOM     48  C   UNL     1      10.942   7.036  25.557  0.00  0.00    +0.000 A 
ATOM     49  C   UNL     1       9.784   6.280  25.358  0.00  0.00    +0.003 A 
ENDBRANCH  43  44
ENDBRANCH  27  43
ENDBRANCH  26  27
ENDBRANCH   1  26
TORSDOF 14
ENDMDL
MODEL 6
REMARK VINA RESULT:      -6.1      2.150      8.770
REMARK  Name = 
REMARK  17 active torsions:
REMARK  status: ('A' for Active; 'I' for Inactive)
REMARK    1  A    between atoms: C_1  and  C_2
REMARK    2  A    between atoms: C_2  and  C_3
REMARK    3  A    between atoms: C_2  and  C_4
REMARK    4  A    between atoms: C_2  and  N_5
REMARK    5  A    between atoms: C_6  and  C_8
REMARK    6  A    between atoms: N_11  and  C_44
REMARK    7  A    between atoms: N_14  and  C_15
REMARK    8  A    between atoms: C_15  and  C_16
REMARK    9  A    between atoms: C_16  and  C_18
REMARK   10  A    between atoms: C_16  and  O_43
REMARK   11  A    between atoms: C_18  and  C_19
REMARK   12  A    between atoms: C_19  and  C_21
REMARK   13  A    between atoms: C_19  and  C_28
REMARK   14  A    between atoms: C_21  and  C_22
REMARK   15  A    between atoms: N_30  and  C_31
REMARK   16  A    between atoms: C_33  and  O_42
REMARK   17  A    between atoms: C_44  and  C_45
REMARK                            x       y       z     vdW  Elec       q    Type
REMARK                         _______ _______ _______ _____ _____    ______ ____
ROOT
ATOM      1  C   UNL     1       7.224   0.550  27.706  0.00  0.00    +0.129 C 
ENDROOT
BRANCH   1   2
ATOM      2  O   UNL     1       7.569   1.453  28.767  0.00  0.00    -0.391 OA
ATOM      3  H   UNL     1       6.741   1.858  29.084  0.00  0.00    +0.210 HD
ENDBRANCH   1   2
BRANCH   1   4
ATOM      4  C   UNL     1       7.631   1.239  26.361  0.00  0.00    +0.116 C 
BRANCH   4   6
ATOM      5  C   UNL     1       8.410   0.854  23.959  0.00  0.00    +0.157 C 
ATOM      6  N   UNL     1       8.638   0.662  25.433  0.00  0.00    -0.287 NA
ATOM      7  C   UNL     1       8.682  -0.827  25.614  0.00  0.00    +0.100 C 
ATOM      8  C   UNL     1       7.542  -1.659  24.937  0.00  0.00    +0.100 C 
ATOM      9  N   UNL     1       7.341  -1.367  23.498  0.00  0.00    -0.295 NA
ATOM     10  C   UNL     1       7.206   0.096  23.336  0.00  0.00    +0.113 C 
BRANCH   5  13
ATOM     11  N   UNL     1       9.048   3.186  24.314  0.00  0.00    -0.309 N 
ATOM     12  H   UNL     1       9.444   2.820  25.176  0.00  0.00    +0.149 HD
ATOM     13  C   UNL     1       8.322   2.312  23.529  0.00  0.00    +0.232 C 
ATOM     14  O   UNL     1       7.682   2.656  22.535  0.00  0.00    -0.274 OA
BRANCH  11  16
ATOM     15  C   UNL     1       8.689   5.344  25.429  0.00  0.00    +0.031 C 
ATOM     16  C   UNL     1       9.068   4.640  24.120  0.00  0.00    +0.026 C 
ATOM     17  C   UNL     1      10.495   5.067  23.735  0.00  0.00    +0.031 C 
ATOM     18  C   UNL     1       8.122   5.070  22.985  0.00  0.00    +0.031 C 
ENDBRANCH  11  16
ENDBRANCH   5  13
BRANCH   9  19
ATOM     19  C   UNL     1       6.164  -2.100  22.981  0.00  0.00    +0.121 C 
BRANCH  19  20
ATOM     20  C   UNL     1       6.428  -3.495  22.460  0.00  0.00    -0.015 A 
ATOM     21  C   UNL     1       7.296  -4.366  23.132  0.00  0.00    +0.008 A 
ATOM     22  C   UNL     1       7.534  -5.644  22.630  0.00  0.00    +0.020 A 
ATOM     23  C   UNL     1       6.899  -6.018  21.458  0.00  0.00    +0.111 A 
ATOM     24  N   UNL     1       6.068  -5.203  20.767  0.00  0.00    -0.263 NA
ATOM     25  C   UNL     1       5.855  -3.967  21.283  0.00  0.00    +0.115 A 
ENDBRANCH  19  20
ENDBRANCH   9  19
ENDBRANCH   4   6
ENDBRANCH   1   4
BRANCH   1  26
ATOM     26  C   UNL     1       5.776   0.022  27.904  0.00  0.00    +0.045 C 
BRANCH  26  27
ATOM     27  C   UNL     1       4.767  -0.032  26.723  0.00  0.00    +0.082 C 
BRANCH  27  28
ATOM     28  C   UNL     1       3.988  -1.383  26.749  0.00  0.00    +0.217 C 
ATOM     29  N   UNL     1       4.784  -2.500  26.855  0.00  0.00    -0.306 N 
ATOM     30  H   UNL     1       5.700  -2.358  27.271  0.00  0.00    +0.149 HD
ATOM     31  O   UNL     1       2.763  -1.457  26.709  0.00  0.00    -0.275 OA
BRANCH  29  32
ATOM     32  C   UNL     1       4.281  -3.876  26.957  0.00  0.00    +0.132 C 
ATOM     33  C   UNL     1       4.048  -4.582  25.630  0.00  0.00    -0.022 A 
ATOM     34  C   UNL     1       4.674  -5.842  25.605  0.00  0.00    -0.040 A 
ATOM     35  C   UNL     1       4.588  -6.687  24.501  0.00  0.00    +0.004 A 
ATOM     36  C   UNL     1       3.809  -6.286  23.418  0.00  0.00    +0.000 A 
ATOM     37  C   UNL     1       3.118  -5.069  23.465  0.00  0.00    +0.000 A 
ATOM     38  C   UNL     1       5.306  -6.170  26.917  0.00  0.00    +0.069 C 
ATOM     39  C   UNL     1       3.234  -4.208  24.569  0.00  0.00    +0.006 A 
ATOM     40  C   UNL     1       5.405  -4.779  27.561  0.00  0.00    +0.143 C 
BRANCH  40  41
ATOM     41  O   UNL     1       6.706  -4.218  27.245  0.00  0.00    -0.389 OA
ATOM     42  H   UNL     1       6.785  -3.408  27.786  0.00  0.00    +0.210 HD
ENDBRANCH  40  41
ENDBRANCH  29  32
ENDBRANCH  27  28
BRANCH  27  43
ATOM     43  C   UNL     1       3.728   1.100  26.755  0.00  0.00    +0.048 C 
BRANCH  43  44
ATOM     44  C   UNL     1       4.212   2.410  26.170  0.00  0.00    -0.047 A 
ATOM     45  C   UNL     1       4.243   3.565  26.963  0.00  0.00    +0.003 A 
ATOM     46  C   UNL     1       4.586   4.797  26.408  0.00  0.00    +0.000 A 
ATOM     47  C   UNL     1       4.896   4.890  25.053  0.00  0.00    +0.000 A 
ATOM     48  C   UNL     1       4.895   3.744  24.260  0.00  0.00    +0.000 A 
ATOM     49  C   UNL     1       4.562   2.507  24.816  0.00  0.00    +0.003 A 
ENDBRANCH  43  44
ENDBRANCH  27  43
ENDBRANCH  26  27
ENDBRANCH   1  26
TORSDOF 14
ENDMDL
MODEL 7
REMARK VINA RESULT:      -6.1      2.820      6.313
REMARK  Name = 
REMARK  17 active torsions:
REMARK  status: ('A' for Active; 'I' for Inactive)
REMARK    1  A    between atoms: C_1  and  C_2
REMARK    2  A    between atoms: C_2  and  C_3
REMARK    3  A    between atoms: C_2  and  C_4
REMARK    4  A    between atoms: C_2  and  N_5
REMARK    5  A    between atoms: C_6  and  C_8
REMARK    6  A    between atoms: N_11  and  C_44
REMARK    7  A    between atoms: N_14  and  C_15
REMARK    8  A    between atoms: C_15  and  C_16
REMARK    9  A    between atoms: C_16  and  C_18
REMARK   10  A    between atoms: C_16  and  O_43
REMARK   11  A    between atoms: C_18  and  C_19
REMARK   12  A    between atoms: C_19  and  C_21
REMARK   13  A    between atoms: C_19  and  C_28
REMARK   14  A    between atoms: C_21  and  C_22
REMARK   15  A    between atoms: N_30  and  C_31
REMARK   16  A    between atoms: C_33  and  O_42
REMARK   17  A    between atoms: C_44  and  C_45
REMARK                            x       y       z     vdW  Elec       q    Type
REMARK                         _______ _______ _______ _____ _____    ______ ____
ROOT
ATOM      1  C   UNL     1       6.342  -5.071  27.010  0.00  0.00    +0.129 C 
ENDROOT
BRANCH   1   2
ATOM      2  O   UNL     1       7.389  -6.052  27.040  0.00  0.00    -0.391 OA
ATOM      3  H   UNL     1       7.715  -6.156  26.127  0.00  0.00    +0.210 HD
ENDBRANCH   1   2
BRANCH   1   4
ATOM      4  C   UNL     1       5.391  -5.447  25.825  0.00  0.00    +0.116 C 
BRANCH   4   6
ATOM      5  C   UNL     1       3.969  -3.807  24.478  0.00  0.00    +0.157 C 
ATOM      6  N   UNL     1       5.240  -4.599  24.614  0.00  0.00    -0.287 NA
ATOM      7  C   UNL     1       5.272  -5.470  23.392  0.00  0.00    +0.100 C 
ATOM      8  C   UNL     1       3.960  -6.249  23.042  0.00  0.00    +0.100 C 
ATOM      9  N   UNL     1       2.742  -5.407  22.987  0.00  0.00    -0.295 NA
ATOM     10  C   UNL     1       2.667  -4.618  24.234  0.00  0.00    +0.113 C 
BRANCH   5  13
ATOM     11  N   UNL     1       2.956  -3.359  26.655  0.00  0.00    -0.309 N 
ATOM     12  H   UNL     1       2.515  -4.262  26.502  0.00  0.00    +0.149 HD
ATOM     13  C   UNL     1       3.714  -2.840  25.625  0.00  0.00    +0.232 C 
ATOM     14  O   UNL     1       4.189  -1.704  25.631  0.00  0.00    -0.274 OA
BRANCH  11  16
ATOM     15  C   UNL     1       1.702  -1.385  27.404  0.00  0.00    +0.031 C 
ATOM     16  C   UNL     1       2.542  -2.593  27.837  0.00  0.00    +0.026 C 
ATOM     17  C   UNL     1       1.671  -3.494  28.729  0.00  0.00    +0.031 C 
ATOM     18  C   UNL     1       3.755  -2.136  28.665  0.00  0.00    +0.031 C 
ENDBRANCH  11  16
ENDBRANCH   5  13
BRANCH   9  19
ATOM     19  C   UNL     1       1.541  -6.247  22.781  0.00  0.00    +0.121 C 
BRANCH  19  20
ATOM     20  C   UNL     1       1.247  -7.260  23.865  0.00  0.00    -0.015 A 
ATOM     21  C   UNL     1       1.453  -8.629  23.651  0.00  0.00    +0.008 A 
ATOM     22  C   UNL     1       1.167  -9.547  24.660  0.00  0.00    +0.020 A 
ATOM     23  C   UNL     1       0.673  -9.069  25.861  0.00  0.00    +0.111 A 
ATOM     24  N   UNL     1       0.443  -7.759  26.105  0.00  0.00    -0.263 NA
ATOM     25  C   UNL     1       0.734  -6.890  25.104  0.00  0.00    +0.115 A 
ENDBRANCH  19  20
ENDBRANCH   9  19
ENDBRANCH   4   6
ENDBRANCH   1   4
BRANCH   1  26
ATOM     26  C   UNL     1       6.946  -3.643  27.101  0.00  0.00    +0.045 C 
BRANCH  26  27
ATOM     27  C   UNL     1       7.343  -2.850  25.824  0.00  0.00    +0.082 C 
BRANCH  27  28
ATOM     28  C   UNL     1       7.776  -1.402  26.209  0.00  0.00    +0.217 C 
ATOM     29  N   UNL     1       7.032  -0.406  25.621  0.00  0.00    -0.306 N 
ATOM     30  H   UNL     1       6.095  -0.663  25.326  0.00  0.00    +0.149 HD
ATOM     31  O   UNL     1       8.687  -1.157  26.996  0.00  0.00    -0.275 OA
BRANCH  29  32
ATOM     32  C   UNL     1       7.212   1.030  25.875  0.00  0.00    +0.132 C 
ATOM     33  C   UNL     1       8.193   1.734  24.950  0.00  0.00    -0.022 A 
ATOM     34  C   UNL     1       7.623   2.891  24.387  0.00  0.00    -0.040 A 
ATOM     35  C   UNL     1       8.334   3.717  23.519  0.00  0.00    +0.004 A 
ATOM     36  C   UNL     1       9.666   3.409  23.253  0.00  0.00    +0.000 A 
ATOM     37  C   UNL     1      10.266   2.304  23.870  0.00  0.00    +0.000 A 
ATOM     38  C   UNL     1       6.257   3.153  24.930  0.00  0.00    +0.069 C 
ATOM     39  C   UNL     1       9.534   1.458  24.720  0.00  0.00    +0.006 A 
ATOM     40  C   UNL     1       5.889   1.776  25.501  0.00  0.00    +0.143 C 
BRANCH  40  41
ATOM     41  O   UNL     1       5.177   1.029  24.480  0.00  0.00    -0.389 OA
ATOM     42  H   UNL     1       4.403   1.576  24.242  0.00  0.00    +0.210 HD
ENDBRANCH  40  41
ENDBRANCH  29  32
ENDBRANCH  27  28
BRANCH  27  43
ATOM     43  C   UNL     1       8.503  -3.487  25.045  0.00  0.00    +0.048 C 
BRANCH  43  44
ATOM     44  C   UNL     1       8.918  -2.725  23.804  0.00  0.00    -0.047 A 
ATOM     45  C   UNL     1      10.210  -2.194  23.704  0.00  0.00    +0.003 A 
ATOM     46  C   UNL     1      10.569  -1.402  22.614  0.00  0.00    +0.000 A 
ATOM     47  C   UNL     1       9.638  -1.128  21.614  0.00  0.00    +0.000 A 
ATOM     48  C   UNL     1       8.358  -1.672  21.689  0.00  0.00    +0.000 A 
ATOM     49  C   UNL     1       8.000  -2.475  22.774  0.00  0.00    +0.003 A 
ENDBRANCH  43  44
ENDBRANCH  27  43
ENDBRANCH  26  27
ENDBRANCH   1  26
TORSDOF 14
ENDMDL
MODEL 8
REMARK VINA RESULT:      -6.0      2.062      6.427
REMARK  Name = 
REMARK  17 active torsions:
REMARK  status: ('A' for Active; 'I' for Inactive)
REMARK    1  A    between atoms: C_1  and  C_2
REMARK    2  A    between atoms: C_2  and  C_3
REMARK    3  A    between atoms: C_2  and  C_4
REMARK    4  A    between atoms: C_2  and  N_5
REMARK    5  A    between atoms: C_6  and  C_8
REMARK    6  A    between atoms: N_11  and  C_44
REMARK    7  A    between atoms: N_14  and  C_15
REMARK    8  A    between atoms: C_15  and  C_16
REMARK    9  A    between atoms: C_16  and  C_18
REMARK   10  A    between atoms: C_16  and  O_43
REMARK   11  A    between atoms: C_18  and  C_19
REMARK   12  A    between atoms: C_19  and  C_21
REMARK   13  A    between atoms: C_19  and  C_28
REMARK   14  A    between atoms: C_21  and  C_22
REMARK   15  A    between atoms: N_30  and  C_31
REMARK   16  A    between atoms: C_33  and  O_42
REMARK   17  A    between atoms: C_44  and  C_45
REMARK                            x       y       z     vdW  Elec       q    Type
REMARK                         _______ _______ _______ _____ _____    ______ ____
ROOT
ATOM      1  C   UNL     1       8.312   0.675  26.581  0.00  0.00    +0.129 C 
ENDROOT
BRANCH   1   2
ATOM      2  O   UNL     1       9.301  -0.320  26.882  0.00  0.00    -0.391 OA
ATOM      3  H   UNL     1       9.875  -0.405  26.098  0.00  0.00    +0.210 HD
ENDBRANCH   1   2
BRANCH   1   4
ATOM      4  C   UNL     1       6.950   0.163  27.157  0.00  0.00    +0.116 C 
BRANCH   4   6
ATOM      5  C   UNL     1       4.632   0.927  27.912  0.00  0.00    +0.157 C 
ATOM      6  N   UNL     1       6.123   0.963  28.099  0.00  0.00    -0.287 NA
ATOM      7  C   UNL     1       6.483   2.413  27.966  0.00  0.00    +0.100 C 
ATOM      8  C   UNL     1       5.882   3.185  26.744  0.00  0.00    +0.100 C 
ATOM      9  N   UNL     1       4.414   3.049  26.594  0.00  0.00    -0.295 NA
ATOM     10  C   UNL     1       4.074   1.612  26.634  0.00  0.00    +0.113 C 
BRANCH   5  13
ATOM     11  N   UNL     1       4.060  -1.183  26.820  0.00  0.00    -0.309 N 
ATOM     12  H   UNL     1       4.334  -0.684  25.979  0.00  0.00    +0.149 HD
ATOM     13  C   UNL     1       4.028  -0.467  28.001  0.00  0.00    +0.232 C 
ATOM     14  O   UNL     1       3.589  -0.916  29.060  0.00  0.00    -0.274 OA
BRANCH  11  16
ATOM     15  C   UNL     1       1.965  -2.465  26.834  0.00  0.00    +0.031 C 
ATOM     16  C   UNL     1       3.488  -2.525  26.658  0.00  0.00    +0.026 C 
ATOM     17  C   UNL     1       3.793  -3.022  25.234  0.00  0.00    +0.031 C 
ATOM     18  C   UNL     1       4.106  -3.524  27.652  0.00  0.00    +0.031 C 
ENDBRANCH  11  16
ENDBRANCH   5  13
BRANCH   9  19
ATOM     19  C   UNL     1       3.960   3.699  25.345  0.00  0.00    +0.121 C 
BRANCH  19  20
ATOM     20  C   UNL     1       4.931   3.658  24.186  0.00  0.00    -0.015 A 
ATOM     21  C   UNL     1       5.509   4.832  23.685  0.00  0.00    +0.008 A 
ATOM     22  C   UNL     1       6.395   4.774  22.610  0.00  0.00    +0.020 A 
ATOM     23  C   UNL     1       6.674   3.537  22.056  0.00  0.00    +0.111 A 
ATOM     24  N   UNL     1       6.125   2.382  22.496  0.00  0.00    -0.263 NA
ATOM     25  C   UNL     1       5.270   2.471  23.545  0.00  0.00    +0.115 A 
ENDBRANCH  19  20
ENDBRANCH   9  19
ENDBRANCH   4   6
ENDBRANCH   1   4
BRANCH   1  26
ATOM     26  C   UNL     1       8.417   1.097  25.089  0.00  0.00    +0.045 C 
BRANCH  26  27
ATOM     27  C   UNL     1       9.756   0.979  24.308  0.00  0.00    +0.082 C 
BRANCH  27  28
ATOM     28  C   UNL     1       9.900  -0.456  23.713  0.00  0.00    +0.217 C 
ATOM     29  N   UNL     1       9.011  -1.376  24.217  0.00  0.00    -0.306 N 
ATOM     30  H   UNL     1       8.150  -1.001  24.604  0.00  0.00    +0.149 HD
ATOM     31  O   UNL     1      10.717  -0.747  22.843  0.00  0.00    -0.275 OA
BRANCH  29  32
ATOM     32  C   UNL     1       8.914  -2.773  23.772  0.00  0.00    +0.132 C 
ATOM     33  C   UNL     1       8.210  -3.715  24.736  0.00  0.00    -0.022 A 
ATOM     34  C   UNL     1       7.203  -4.451  24.086  0.00  0.00    -0.040 A 
ATOM     35  C   UNL     1       6.429  -5.395  24.758  0.00  0.00    +0.004 A 
ATOM     36  C   UNL     1       6.708  -5.649  26.099  0.00  0.00    +0.000 A 
ATOM     37  C   UNL     1       7.761  -4.978  26.734  0.00  0.00    +0.000 A 
ATOM     38  C   UNL     1       7.175  -4.173  22.620  0.00  0.00    +0.069 C 
ATOM     39  C   UNL     1       8.517  -4.005  26.059  0.00  0.00    +0.006 A 
ATOM     40  C   UNL     1       7.941  -2.844  22.550  0.00  0.00    +0.143 C 
BRANCH  40  41
ATOM     41  O   UNL     1       6.983  -1.756  22.623  0.00  0.00    -0.389 OA
ATOM     42  H   UNL     1       6.626  -1.776  23.532  0.00  0.00    +0.210 HD
ENDBRANCH  40  41
ENDBRANCH  29  32
ENDBRANCH  27  28
BRANCH  27  43
ATOM     43  C   UNL     1       9.874   1.975  23.144  0.00  0.00    +0.048 C 
BRANCH  43  44
ATOM     44  C   UNL     1      10.351   3.354  23.547  0.00  0.00    -0.047 A 
ATOM     45  C   UNL     1       9.452   4.277  24.098  0.00  0.00    +0.003 A 
ATOM     46  C   UNL     1       9.856   5.582  24.374  0.00  0.00    +0.000 A 
ATOM     47  C   UNL     1      11.162   5.982  24.098  0.00  0.00    +0.000 A 
ATOM     48  C   UNL     1      12.073   5.067  23.575  0.00  0.00    +0.000 A 
ATOM     49  C   UNL     1      11.673   3.755  23.308  0.00  0.00    +0.003 A 
ENDBRANCH  43  44
ENDBRANCH  27  43
ENDBRANCH  26  27
ENDBRANCH   1  26
TORSDOF 14
ENDMDL
MODEL 9
REMARK VINA RESULT:      -5.8      2.518      8.277
REMARK  Name = 
REMARK  17 active torsions:
REMARK  status: ('A' for Active; 'I' for Inactive)
REMARK    1  A    between atoms: C_1  and  C_2
REMARK    2  A    between atoms: C_2  and  C_3
REMARK    3  A    between atoms: C_2  and  C_4
REMARK    4  A    between atoms: C_2  and  N_5
REMARK    5  A    between atoms: C_6  and  C_8
REMARK    6  A    between atoms: N_11  and  C_44
REMARK    7  A    between atoms: N_14  and  C_15
REMARK    8  A    between atoms: C_15  and  C_16
REMARK    9  A    between atoms: C_16  and  C_18
REMARK   10  A    between atoms: C_16  and  O_43
REMARK   11  A    between atoms: C_18  and  C_19
REMARK   12  A    between atoms: C_19  and  C_21
REMARK   13  A    between atoms: C_19  and  C_28
REMARK   14  A    between atoms: C_21  and  C_22
REMARK   15  A    between atoms: N_30  and  C_31
REMARK   16  A    between atoms: C_33  and  O_42
REMARK   17  A    between atoms: C_44  and  C_45
REMARK                            x       y       z     vdW  Elec       q    Type
REMARK                         _______ _______ _______ _____ _____    ______ ____
ROOT
ATOM      1  C   UNL     1       7.240   2.110  26.367  0.00  0.00    +0.129 C 
ENDROOT
BRANCH   1   2
ATOM      2  O   UNL     1       7.490   2.601  27.693  0.00  0.00    -0.391 OA
ATOM      3  H   UNL     1       7.955   1.896  28.180  0.00  0.00    +0.210 HD
ENDBRANCH   1   2
BRANCH   1   4
ATOM      4  C   UNL     1       6.454   3.226  25.601  0.00  0.00    +0.116 C 
BRANCH   4   6
ATOM      5  C   UNL     1       6.551   4.295  23.283  0.00  0.00    +0.157 C 
ATOM      6  N   UNL     1       7.113   4.182  24.673  0.00  0.00    -0.287 NA
ATOM      7  C   UNL     1       8.541   3.768  24.467  0.00  0.00    +0.100 C 
ATOM      8  C   UNL     1       8.801   2.585  23.475  0.00  0.00    +0.100 C 
ATOM      9  N   UNL     1       8.162   2.745  22.147  0.00  0.00    -0.295 NA
ATOM     10  C   UNL     1       6.734   3.063  22.355  0.00  0.00    +0.113 C 
BRANCH   5  13
ATOM     11  N   UNL     1       4.301   3.940  22.398  0.00  0.00    -0.309 N 
ATOM     12  H   UNL     1       4.776   3.285  21.782  0.00  0.00    +0.149 HD
ATOM     13  C   UNL     1       5.085   4.705  23.238  0.00  0.00    +0.232 C 
ATOM     14  O   UNL     1       4.649   5.622  23.933  0.00  0.00    -0.274 OA
BRANCH  11  16
ATOM     15  C   UNL     1       2.083   3.973  23.452  0.00  0.00    +0.031 C 
ATOM     16  C   UNL     1       2.874   4.186  22.156  0.00  0.00    +0.026 C 
ATOM     17  C   UNL     1       2.694   5.648  21.712  0.00  0.00    +0.031 C 
ATOM     18  C   UNL     1       2.329   3.281  21.037  0.00  0.00    +0.031 C 
ENDBRANCH  11  16
ENDBRANCH   5  13
BRANCH   9  19
ATOM     19  C   UNL     1       8.353   1.526  21.331  0.00  0.00    +0.121 C 
BRANCH  19  20
ATOM     20  C   UNL     1       8.769   0.283  22.085  0.00  0.00    -0.015 A 
ATOM     21  C   UNL     1       9.989  -0.352  21.817  0.00  0.00    +0.008 A 
ATOM     22  C   UNL     1      10.349  -1.503  22.517  0.00  0.00    +0.020 A 
ATOM     23  C   UNL     1       9.471  -1.995  23.467  0.00  0.00    +0.111 A 
ATOM     24  N   UNL     1       8.277  -1.425  23.745  0.00  0.00    -0.263 NA
ATOM     25  C   UNL     1       7.956  -0.305  23.050  0.00  0.00    +0.115 A 
ENDBRANCH  19  20
ENDBRANCH   9  19
ENDBRANCH   4   6
ENDBRANCH   1   4
BRANCH   1  26
ATOM     26  C   UNL     1       6.676   0.664  26.432  0.00  0.00    +0.045 C 
BRANCH  26  27
ATOM     27  C   UNL     1       5.145   0.392  26.422  0.00  0.00    +0.082 C 
BRANCH  27  28
ATOM     28  C   UNL     1       4.874  -1.116  26.129  0.00  0.00    +0.217 C 
ATOM     29  N   UNL     1       6.003  -1.899  26.071  0.00  0.00    -0.306 N 
ATOM     30  H   UNL     1       6.816  -1.550  26.570  0.00  0.00    +0.149 HD
ATOM     31  O   UNL     1       3.747  -1.584  25.990  0.00  0.00    -0.275 OA
BRANCH  29  32
ATOM     32  C   UNL     1       5.999  -3.354  25.867  0.00  0.00    +0.132 C 
ATOM     33  C   UNL     1       6.204  -3.809  24.430  0.00  0.00    -0.022 A 
ATOM     34  C   UNL     1       7.225  -4.773  24.341  0.00  0.00    -0.040 A 
ATOM     35  C   UNL     1       7.586  -5.356  23.128  0.00  0.00    +0.004 A 
ATOM     36  C   UNL     1       6.868  -5.008  21.986  0.00  0.00    +0.000 A 
ATOM     37  C   UNL     1       5.798  -4.109  22.078  0.00  0.00    +0.000 A 
ATOM     38  C   UNL     1       7.750  -5.146  25.688  0.00  0.00    +0.069 C 
ATOM     39  C   UNL     1       5.460  -3.502  23.299  0.00  0.00    +0.006 A 
ATOM     40  C   UNL     1       7.275  -3.959  26.538  0.00  0.00    +0.143 C 
BRANCH  40  41
ATOM     41  O   UNL     1       8.331  -2.963  26.568  0.00  0.00    -0.389 OA
ATOM     42  H   UNL     1       8.990  -3.254  25.907  0.00  0.00    +0.210 HD
ENDBRANCH  40  41
ENDBRANCH  29  32
ENDBRANCH  27  28
BRANCH  27  43
ATOM     43  C   UNL     1       4.455   0.736  27.750  0.00  0.00    +0.048 C 
BRANCH  43  44
ATOM     44  C   UNL     1       3.375   1.792  27.640  0.00  0.00    -0.047 A 
ATOM     45  C   UNL     1       2.121   1.463  27.108  0.00  0.00    +0.003 A 
ATOM     46  C   UNL     1       1.156   2.448  26.905  0.00  0.00    +0.000 A 
ATOM     47  C   UNL     1       1.435   3.774  27.225  0.00  0.00    +0.000 A 
ATOM     48  C   UNL     1       2.668   4.111  27.780  0.00  0.00    +0.000 A 
ATOM     49  C   UNL     1       3.632   3.123  27.995  0.00  0.00    +0.003 A 
ENDBRANCH  43  44
ENDBRANCH  27  43
ENDBRANCH  26  27
ENDBRANCH   1  26
TORSDOF 14
ENDMDL
