MODEL 1
REMARK VINA RESULT:      -5.9      0.000      0.000
REMARK  Name = 
REMARK  3 active torsions:
REMARK  status: ('A' for Active; 'I' for Inactive)
REMARK    1  A    between atoms: C_2  and  N_8
REMARK    2  A    between atoms: C_4  and  C_6
REMARK    3  A    between atoms: C_6  and  O_7
REMARK                            x       y       z     vdW  Elec       q    Type
REMARK                         _______ _______ _______ _____ _____    ______ ____
ROOT
ATOM      1  N   UNL     1       8.362  -1.510  22.525  0.00  0.00    -0.269 N 
ATOM      2  C   UNL     1       9.648  -1.082  22.152  0.00  0.00    +0.352 A 
ATOM      3  O   UNL     1      10.574  -1.884  22.066  0.00  0.00    -0.244 OA
ATOM      4  N   UNL     1       9.852   0.256  21.887  0.00  0.00    -0.175 NA
ATOM      5  C   UNL     1       8.893   1.112  22.079  0.00  0.00    +0.159 A 
ATOM      6  N   UNL     1       9.148   2.427  21.790  0.00  0.00    -0.341 N 
ATOM      7  H   UNL     1      10.135   2.652  21.733  0.00  0.00    +0.144 HD
ATOM      8  H   UNL     1       8.580   3.122  22.265  0.00  0.00    +0.144 HD
ATOM      9  C   UNL     1       7.579   0.712  22.610  0.00  0.00    +0.179 A 
ATOM     10  F   UNL     1       6.666   1.663  22.858  0.00  0.00    -0.200 F 
ATOM     11  C   UNL     1       7.380  -0.583  22.827  0.00  0.00    +0.135 A 
ENDROOT
BRANCH   1  16
ATOM     12  C   UNL     1       6.813  -3.361  23.371  0.00  0.00    +0.126 C 
ATOM     13  S   UNL     1       7.025  -3.066  25.135  0.00  0.00    -0.123 S 
ATOM     14  C   UNL     1       8.819  -3.264  25.004  0.00  0.00    +0.203 C 
ATOM     15  O   UNL     1       9.185  -3.480  23.627  0.00  0.00    -0.340 OA
ATOM     16  C   UNL     1       8.162  -2.950  22.757  0.00  0.00    +0.235 C 
BRANCH  14  17
ATOM     17  C   UNL     1       9.319  -4.433  25.863  0.00  0.00    +0.198 C 
BRANCH  17  18
ATOM     18  O   UNL     1      10.273  -5.244  25.173  0.00  0.00    -0.392 OA
ATOM     19  H   UNL     1      10.501  -5.973  25.779  0.00  0.00    +0.210 HD
ENDBRANCH  17  18
ENDBRANCH  14  17
ENDBRANCH   1  16
TORSDOF 3
ENDMDL
MODEL 2
REMARK VINA RESULT:      -5.8      2.773      5.097
REMARK  Name = 
REMARK  3 active torsions:
REMARK  status: ('A' for Active; 'I' for Inactive)
REMARK    1  A    between atoms: C_2  and  N_8
REMARK    2  A    between atoms: C_4  and  C_6
REMARK    3  A    between atoms: C_6  and  O_7
REMARK                            x       y       z     vdW  Elec       q    Type
REMARK                         _______ _______ _______ _____ _____    ______ ____
ROOT
ATOM      1  N   UNL     1       8.710  -2.902  23.350  0.00  0.00    -0.269 N 
ATOM      2  C   UNL     1       8.714  -4.128  24.037  0.00  0.00    +0.352 A 
ATOM      3  O   UNL     1       9.650  -4.429  24.774  0.00  0.00    -0.244 OA
ATOM      4  N   UNL     1       7.649  -4.988  23.870  0.00  0.00    -0.175 NA
ATOM      5  C   UNL     1       6.713  -4.707  23.012  0.00  0.00    +0.159 A 
ATOM      6  N   UNL     1       5.674  -5.591  22.893  0.00  0.00    -0.341 N 
ATOM      7  H   UNL     1       5.874  -6.514  23.266  0.00  0.00    +0.144 HD
ATOM      8  H   UNL     1       5.165  -5.589  22.015  0.00  0.00    +0.144 HD
ATOM      9  C   UNL     1       6.758  -3.500  22.170  0.00  0.00    +0.179 A 
ATOM     10  F   UNL     1       5.799  -3.318  21.251  0.00  0.00    -0.200 F 
ATOM     11  C   UNL     1       7.768  -2.660  22.365  0.00  0.00    +0.135 A 
ENDROOT
BRANCH   1  16
ATOM     12  C   UNL     1       9.699  -1.028  24.781  0.00  0.00    +0.126 C 
ATOM     13  S   UNL     1       8.681   0.319  24.153  0.00  0.00    -0.123 S 
ATOM     14  C   UNL     1       9.209  -0.008  22.454  0.00  0.00    +0.203 C 
ATOM     15  O   UNL     1      10.078  -1.156  22.426  0.00  0.00    -0.340 OA
ATOM     16  C   UNL     1       9.836  -1.984  23.584  0.00  0.00    +0.235 C 
BRANCH  14  17
ATOM     17  C   UNL     1       9.929   1.203  21.847  0.00  0.00    +0.198 C 
BRANCH  17  18
ATOM     18  O   UNL     1       9.018   2.212  21.405  0.00  0.00    -0.392 OA
ATOM     19  H   UNL     1       8.726   1.946  20.514  0.00  0.00    +0.210 HD
ENDBRANCH  17  18
ENDBRANCH  14  17
ENDBRANCH   1  16
TORSDOF 3
ENDMDL
MODEL 3
REMARK VINA RESULT:      -5.8      3.784      5.910
REMARK  Name = 
REMARK  3 active torsions:
REMARK  status: ('A' for Active; 'I' for Inactive)
REMARK    1  A    between atoms: C_2  and  N_8
REMARK    2  A    between atoms: C_4  and  C_6
REMARK    3  A    between atoms: C_6  and  O_7
REMARK                            x       y       z     vdW  Elec       q    Type
REMARK                         _______ _______ _______ _____ _____    ______ ____
ROOT
ATOM      1  N   UNL     1       7.437  -4.911  24.786  0.00  0.00    -0.269 N 
ATOM      2  C   UNL     1       6.713  -5.643  25.744  0.00  0.00    +0.352 A 
ATOM      3  O   UNL     1       7.112  -5.721  26.904  0.00  0.00    -0.244 OA
ATOM      4  N   UNL     1       5.549  -6.274  25.359  0.00  0.00    -0.175 NA
ATOM      5  C   UNL     1       5.189  -6.270  24.110  0.00  0.00    +0.159 A 
ATOM      6  N   UNL     1       4.019  -6.903  23.784  0.00  0.00    -0.341 N 
ATOM      7  H   UNL     1       3.695  -7.558  24.489  0.00  0.00    +0.144 HD
ATOM      8  H   UNL     1       3.920  -7.226  22.827  0.00  0.00    +0.144 HD
ATOM      9  C   UNL     1       6.005  -5.637  23.060  0.00  0.00    +0.179 A 
ATOM     10  F   UNL     1       5.610  -5.744  21.783  0.00  0.00    -0.200 F 
ATOM     11  C   UNL     1       7.104  -5.000  23.446  0.00  0.00    +0.135 A 
ENDROOT
BRANCH   1  16
ATOM     12  C   UNL     1       8.432  -2.924  26.051  0.00  0.00    +0.126 C 
ATOM     13  S   UNL     1       8.118  -1.661  24.805  0.00  0.00    -0.123 S 
ATOM     14  C   UNL     1       9.035  -2.595  23.556  0.00  0.00    +0.203 C 
ATOM     15  O   UNL     1       9.483  -3.846  24.115  0.00  0.00    -0.340 OA
ATOM     16  C   UNL     1       8.650  -4.210  25.237  0.00  0.00    +0.235 C 
BRANCH  14  17
ATOM     17  C   UNL     1      10.238  -1.800  23.033  0.00  0.00    +0.198 C 
BRANCH  17  18
ATOM     18  O   UNL     1      10.195  -1.621  21.615  0.00  0.00    -0.392 OA
ATOM     19  H   UNL     1      10.477  -2.468  21.223  0.00  0.00    +0.210 HD
ENDBRANCH  17  18
ENDBRANCH  14  17
ENDBRANCH   1  16
TORSDOF 3
ENDMDL
MODEL 4
REMARK VINA RESULT:      -5.5      3.077      5.279
REMARK  Name = 
REMARK  3 active torsions:
REMARK  status: ('A' for Active; 'I' for Inactive)
REMARK    1  A    between atoms: C_2  and  N_8
REMARK    2  A    between atoms: C_4  and  C_6
REMARK    3  A    between atoms: C_6  and  O_7
REMARK                            x       y       z     vdW  Elec       q    Type
REMARK                         _______ _______ _______ _____ _____    ______ ____
ROOT
ATOM      1  N   UNL     1       9.439  -1.563  24.747  0.00  0.00    -0.269 N 
ATOM      2  C   UNL     1       9.885  -2.665  23.998  0.00  0.00    +0.352 A 
ATOM      3  O   UNL     1      10.597  -2.502  23.009  0.00  0.00    -0.244 OA
ATOM      4  N   UNL     1       9.508  -3.932  24.389  0.00  0.00    -0.175 NA
ATOM      5  C   UNL     1       8.674  -4.088  25.374  0.00  0.00    +0.159 A 
ATOM      6  N   UNL     1       8.341  -5.369  25.727  0.00  0.00    -0.341 N 
ATOM      7  H   UNL     1       8.543  -6.060  25.012  0.00  0.00    +0.144 HD
ATOM      8  H   UNL     1       7.455  -5.501  26.205  0.00  0.00    +0.144 HD
ATOM      9  C   UNL     1       8.075  -2.946  26.084  0.00  0.00    +0.179 A 
ATOM     10  F   UNL     1       7.160  -3.183  27.035  0.00  0.00    -0.200 F 
ATOM     11  C   UNL     1       8.473  -1.731  25.723  0.00  0.00    +0.135 A 
ENDROOT
BRANCH   1  16
ATOM     12  C   UNL     1       9.353   0.961  25.147  0.00  0.00    +0.126 C 
ATOM     13  S   UNL     1       7.718   1.261  24.452  0.00  0.00    -0.123 S 
ATOM     14  C   UNL     1       8.203   0.529  22.870  0.00  0.00    +0.203 C 
ATOM     15  O   UNL     1       9.553   0.033  22.955  0.00  0.00    -0.340 OA
ATOM     16  C   UNL     1       9.895  -0.226  24.334  0.00  0.00    +0.235 C 
BRANCH  14  17
ATOM     17  C   UNL     1       8.094   1.544  21.725  0.00  0.00    +0.198 C 
BRANCH  17  18
ATOM     18  O   UNL     1       9.374   2.009  21.288  0.00  0.00    -0.392 OA
ATOM     19  H   UNL     1       9.370   1.947  20.315  0.00  0.00    +0.210 HD
ENDBRANCH  17  18
ENDBRANCH  14  17
ENDBRANCH   1  16
TORSDOF 3
ENDMDL
MODEL 5
REMARK VINA RESULT:      -5.5      2.023      2.709
REMARK  Name = 
REMARK  3 active torsions:
REMARK  status: ('A' for Active; 'I' for Inactive)
REMARK    1  A    between atoms: C_2  and  N_8
REMARK    2  A    between atoms: C_4  and  C_6
REMARK    3  A    between atoms: C_6  and  O_7
REMARK                            x       y       z     vdW  Elec       q    Type
REMARK                         _______ _______ _______ _____ _____    ______ ____
ROOT
ATOM      1  N   UNL     1       8.242  -1.639  23.037  0.00  0.00    -0.269 N 
ATOM      2  C   UNL     1       9.575  -1.476  22.622  0.00  0.00    +0.352 A 
ATOM      3  O   UNL     1      10.396  -2.377  22.784  0.00  0.00    -0.244 OA
ATOM      4  N   UNL     1       9.948  -0.287  22.032  0.00  0.00    -0.175 NA
ATOM      5  C   UNL     1       9.100   0.696  21.956  0.00  0.00    +0.159 A 
ATOM      6  N   UNL     1       9.520   1.851  21.351  0.00  0.00    -0.341 N 
ATOM      7  H   UNL     1      10.528   1.936  21.280  0.00  0.00    +0.144 HD
ATOM      8  H   UNL     1       9.038   2.707  21.607  0.00  0.00    +0.144 HD
ATOM      9  C   UNL     1       7.741   0.605  22.515  0.00  0.00    +0.179 A 
ATOM     10  F   UNL     1       6.951   1.687  22.472  0.00  0.00    -0.200 F 
ATOM     11  C   UNL     1       7.380  -0.556  23.048  0.00  0.00    +0.135 A 
ENDROOT
BRANCH   1  16
ATOM     12  C   UNL     1       7.842  -4.137  22.661  0.00  0.00    +0.126 C 
ATOM     13  S   UNL     1       6.252  -4.004  21.825  0.00  0.00    -0.123 S 
ATOM     14  C   UNL     1       5.541  -3.089  23.214  0.00  0.00    +0.203 C 
ATOM     15  O   UNL     1       6.550  -2.868  24.219  0.00  0.00    -0.340 OA
ATOM     16  C   UNL     1       7.862  -2.936  23.621  0.00  0.00    +0.235 C 
BRANCH  14  17
ATOM     17  C   UNL     1       4.351  -3.837  23.829  0.00  0.00    +0.198 C 
BRANCH  17  18
ATOM     18  O   UNL     1       3.735  -4.734  22.901  0.00  0.00    -0.392 OA
ATOM     19  H   UNL     1       4.243  -4.661  22.071  0.00  0.00    +0.210 HD
ENDBRANCH  17  18
ENDBRANCH  14  17
ENDBRANCH   1  16
TORSDOF 3
ENDMDL
MODEL 6
REMARK VINA RESULT:      -5.5      3.111      3.709
REMARK  Name = 
REMARK  3 active torsions:
REMARK  status: ('A' for Active; 'I' for Inactive)
REMARK    1  A    between atoms: C_2  and  N_8
REMARK    2  A    between atoms: C_4  and  C_6
REMARK    3  A    between atoms: C_6  and  O_7
REMARK                            x       y       z     vdW  Elec       q    Type
REMARK                         _______ _______ _______ _____ _____    ______ ____
ROOT
ATOM      1  N   UNL     1       7.387  -1.843  23.097  0.00  0.00    -0.269 N 
ATOM      2  C   UNL     1       7.264  -0.661  23.849  0.00  0.00    +0.352 A 
ATOM      3  O   UNL     1       6.156  -0.229  24.160  0.00  0.00    -0.244 OA
ATOM      4  N   UNL     1       8.409   0.008  24.229  0.00  0.00    -0.175 NA
ATOM      5  C   UNL     1       9.570  -0.399  23.810  0.00  0.00    +0.159 A 
ATOM      6  N   UNL     1      10.675   0.296  24.226  0.00  0.00    -0.341 N 
ATOM      7  H   UNL     1      10.468   1.224  24.579  0.00  0.00    +0.144 HD
ATOM      8  H   UNL     1      11.503   0.238  23.642  0.00  0.00    +0.144 HD
ATOM      9  C   UNL     1       9.718  -1.548  22.900  0.00  0.00    +0.179 A 
ATOM     10  F   UNL     1      10.940  -1.859  22.446  0.00  0.00    -0.200 F 
ATOM     11  C   UNL     1       8.613  -2.207  22.570  0.00  0.00    +0.135 A 
ENDROOT
BRANCH   1  16
ATOM     12  C   UNL     1       5.473  -3.347  23.880  0.00  0.00    +0.126 C 
ATOM     13  S   UNL     1       6.394  -4.893  23.954  0.00  0.00    -0.123 S 
ATOM     14  C   UNL     1       6.884  -4.742  22.219  0.00  0.00    +0.203 C 
ATOM     15  O   UNL     1       6.386  -3.503  21.678  0.00  0.00    -0.340 OA
ATOM     16  C   UNL     1       6.150  -2.559  22.746  0.00  0.00    +0.235 C 
BRANCH  14  17
ATOM     17  C   UNL     1       6.364  -5.919  21.384  0.00  0.00    +0.198 C 
BRANCH  17  18
ATOM     18  O   UNL     1       5.965  -5.519  20.071  0.00  0.00    -0.392 OA
ATOM     19  H   UNL     1       4.992  -5.450  20.089  0.00  0.00    +0.210 HD
ENDBRANCH  17  18
ENDBRANCH  14  17
ENDBRANCH   1  16
TORSDOF 3
ENDMDL
MODEL 7
REMARK VINA RESULT:      -5.5      3.863      5.751
REMARK  Name = 
REMARK  3 active torsions:
REMARK  status: ('A' for Active; 'I' for Inactive)
REMARK    1  A    between atoms: C_2  and  N_8
REMARK    2  A    between atoms: C_4  and  C_6
REMARK    3  A    between atoms: C_6  and  O_7
REMARK                            x       y       z     vdW  Elec       q    Type
REMARK                         _______ _______ _______ _____ _____    ______ ____
ROOT
ATOM      1  N   UNL     1       7.930  -2.658  24.887  0.00  0.00    -0.269 N 
ATOM      2  C   UNL     1       7.278  -2.643  26.132  0.00  0.00    +0.352 A 
ATOM      3  O   UNL     1       6.743  -1.617  26.546  0.00  0.00    -0.244 OA
ATOM      4  N   UNL     1       7.250  -3.800  26.882  0.00  0.00    -0.175 NA
ATOM      5  C   UNL     1       7.904  -4.851  26.483  0.00  0.00    +0.159 A 
ATOM      6  N   UNL     1       7.834  -5.976  27.261  0.00  0.00    -0.341 N 
ATOM      7  H   UNL     1       7.523  -5.800  28.211  0.00  0.00    +0.144 HD
ATOM      8  H   UNL     1       8.595  -6.642  27.179  0.00  0.00    +0.144 HD
ATOM      9  C   UNL     1       8.717  -4.849  25.255  0.00  0.00    +0.179 A 
ATOM     10  F   UNL     1       9.429  -5.944  24.951  0.00  0.00    -0.200 F 
ATOM     11  C   UNL     1       8.708  -3.743  24.522  0.00  0.00    +0.135 A 
ENDROOT
BRANCH   1  16
ATOM     12  C   UNL     1       8.392  -1.539  22.634  0.00  0.00    +0.126 C 
ATOM     13  S   UNL     1      10.187  -1.462  22.766  0.00  0.00    -0.123 S 
ATOM     14  C   UNL     1      10.083  -0.543  24.321  0.00  0.00    +0.203 C 
ATOM     15  O   UNL     1       8.703  -0.390  24.705  0.00  0.00    -0.340 OA
ATOM     16  C   UNL     1       7.904  -1.422  24.088  0.00  0.00    +0.235 C 
BRANCH  14  17
ATOM     17  C   UNL     1      10.745   0.836  24.203  0.00  0.00    +0.198 C 
BRANCH  17  18
ATOM     18  O   UNL     1       9.850   1.898  24.540  0.00  0.00    -0.392 OA
ATOM     19  H   UNL     1       9.271   1.555  25.247  0.00  0.00    +0.210 HD
ENDBRANCH  17  18
ENDBRANCH  14  17
ENDBRANCH   1  16
TORSDOF 3
ENDMDL
MODEL 8
REMARK VINA RESULT:      -5.4      3.257      5.406
REMARK  Name = 
REMARK  3 active torsions:
REMARK  status: ('A' for Active; 'I' for Inactive)
REMARK    1  A    between atoms: C_2  and  N_8
REMARK    2  A    between atoms: C_4  and  C_6
REMARK    3  A    between atoms: C_6  and  O_7
REMARK                            x       y       z     vdW  Elec       q    Type
REMARK                         _______ _______ _______ _____ _____    ______ ____
ROOT
ATOM      1  N   UNL     1       8.574  -2.838  23.283  0.00  0.00    -0.269 N 
ATOM      2  C   UNL     1       7.350  -3.469  23.004  0.00  0.00    +0.352 A 
ATOM      3  O   UNL     1       6.758  -3.249  21.949  0.00  0.00    -0.244 OA
ATOM      4  N   UNL     1       6.821  -4.338  23.935  0.00  0.00    -0.175 NA
ATOM      5  C   UNL     1       7.401  -4.487  25.089  0.00  0.00    +0.159 A 
ATOM      6  N   UNL     1       6.840  -5.370  25.973  0.00  0.00    -0.341 N 
ATOM      7  H   UNL     1       5.875  -5.604  25.763  0.00  0.00    +0.144 HD
ATOM      8  H   UNL     1       7.038  -5.226  26.958  0.00  0.00    +0.144 HD
ATOM      9  C   UNL     1       8.605  -3.727  25.466  0.00  0.00    +0.179 A 
ATOM     10  F   UNL     1       9.100  -3.873  26.704  0.00  0.00    -0.200 F 
ATOM     11  C   UNL     1       9.126  -2.921  24.549  0.00  0.00    +0.135 A 
ENDROOT
BRANCH   1  16
ATOM     12  C   UNL     1      10.558  -1.423  22.507  0.00  0.00    +0.126 C 
ATOM     13  S   UNL     1      10.315  -0.032  23.625  0.00  0.00    -0.123 S 
ATOM     14  C   UNL     1       8.628   0.221  23.024  0.00  0.00    +0.203 C 
ATOM     15  O   UNL     1       8.299  -0.792  22.054  0.00  0.00    -0.340 OA
ATOM     16  C   UNL     1       9.136  -1.952  22.251  0.00  0.00    +0.235 C 
BRANCH  14  17
ATOM     17  C   UNL     1       8.458   1.612  22.399  0.00  0.00    +0.198 C 
BRANCH  17  18
ATOM     18  O   UNL     1       9.496   1.919  21.465  0.00  0.00    -0.392 OA
ATOM     19  H   UNL     1       9.339   2.835  21.172  0.00  0.00    +0.210 HD
ENDBRANCH  17  18
ENDBRANCH  14  17
ENDBRANCH   1  16
TORSDOF 3
ENDMDL
MODEL 9
REMARK VINA RESULT:      -5.4      4.725      6.150
REMARK  Name = 
REMARK  3 active torsions:
REMARK  status: ('A' for Active; 'I' for Inactive)
REMARK    1  A    between atoms: C_2  and  N_8
REMARK    2  A    between atoms: C_4  and  C_6
REMARK    3  A    between atoms: C_6  and  O_7
REMARK                            x       y       z     vdW  Elec       q    Type
REMARK                         _______ _______ _______ _____ _____    ______ ____
ROOT
ATOM      1  N   UNL     1       6.359  -4.437  24.234  0.00  0.00    -0.269 N 
ATOM      2  C   UNL     1       7.435  -4.652  23.355  0.00  0.00    +0.352 A 
ATOM      3  O   UNL     1       7.294  -4.498  22.144  0.00  0.00    -0.244 OA
ATOM      4  N   UNL     1       8.652  -5.040  23.876  0.00  0.00    -0.175 NA
ATOM      5  C   UNL     1       8.765  -5.298  25.145  0.00  0.00    +0.159 A 
ATOM      6  N   UNL     1       9.998  -5.670  25.610  0.00  0.00    -0.341 N 
ATOM      7  H   UNL     1      10.632  -5.990  24.885  0.00  0.00    +0.144 HD
ATOM      8  H   UNL     1      10.024  -6.214  26.466  0.00  0.00    +0.144 HD
ATOM      9  C   UNL     1       7.618  -5.225  26.066  0.00  0.00    +0.179 A 
ATOM     10  F   UNL     1       7.793  -5.584  27.346  0.00  0.00    -0.200 F 
ATOM     11  C   UNL     1       6.460  -4.815  25.561  0.00  0.00    +0.135 A 
ENDROOT
BRANCH   1  16
ATOM     12  C   UNL     1       4.007  -3.525  24.654  0.00  0.00    +0.126 C 
ATOM     13  S   UNL     1       3.247  -5.062  25.208  0.00  0.00    -0.123 S 
ATOM     14  C   UNL     1       3.720  -5.905  23.679  0.00  0.00    +0.203 C 
ATOM     15  O   UNL     1       4.484  -5.012  22.846  0.00  0.00    -0.340 OA
ATOM     16  C   UNL     1       5.086  -3.979  23.655  0.00  0.00    +0.235 C 
BRANCH  14  17
ATOM     17  C   UNL     1       2.490  -6.406  22.911  0.00  0.00    +0.198 C 
BRANCH  17  18
ATOM     18  O   UNL     1       1.539  -5.365  22.671  0.00  0.00    -0.392 OA
ATOM     19  H   UNL     1       0.896  -5.408  23.403  0.00  0.00    +0.210 HD
ENDBRANCH  17  18
ENDBRANCH  14  17
ENDBRANCH   1  16
TORSDOF 3
ENDMDL
