MODEL 1
REMARK VINA RESULT:      -5.9      0.000      0.000
REMARK  Name = 
REMARK  4 active torsions:
REMARK  status: ('A' for Active; 'I' for Inactive)
REMARK    1  A    between atoms: C3*_2  and  O3*_20
REMARK    2  A    between atoms: C4*_4  and  C5*_18
REMARK    3  A    between atoms: C1*_7  and  N_9
REMARK    4  A    between atoms: C5*_18  and  O5*_19
REMARK                            x       y       z     vdW  Elec       q    Type
REMARK                         _______ _______ _______ _____ _____    ______ ____
ROOT
ATOM      1  C2* UNL     1       9.445  -1.443  24.742  0.00  0.00    +0.088 C 
ATOM      2  C1* UNL     1       9.225  -2.814  24.108  0.00  0.00    +0.226 C 
ATOM      3  O4* UNL     1       8.451  -2.615  22.910  0.00  0.00    -0.348 OA
ATOM      4  C4* UNL     1       8.255  -1.199  22.710  0.00  0.00    +0.175 C 
ATOM      5  C3* UNL     1       9.325  -0.516  23.556  0.00  0.00    +0.150 C 
ENDROOT
BRANCH   2   6
ATOM      6  N   UNL     1       8.549  -3.735  25.020  0.00  0.00    -0.273 N 
ATOM      7  C   UNL     1       9.262  -4.853  25.430  0.00  0.00    +0.331 A 
ATOM      8  O   UNL     1      10.394  -5.128  25.037  0.00  0.00    -0.246 OA
ATOM      9  N   UNL     1       8.640  -5.642  26.360  0.00  0.00    -0.274 N 
ATOM     10  H   UNL     1       9.175  -6.420  26.714  0.00  0.00    +0.173 HD
ATOM     11  C   UNL     1       7.517  -5.308  27.069  0.00  0.00    +0.267 A 
ATOM     12  O   UNL     1       7.193  -5.940  28.069  0.00  0.00    -0.267 OA
ATOM     13  C   UNL     1       6.763  -4.132  26.563  0.00  0.00    +0.094 A 
ATOM     14  I   UNL     1       4.994  -3.591  27.428  0.00  0.00    -0.037 I 
ATOM     15  C   UNL     1       7.317  -3.424  25.570  0.00  0.00    +0.113 A 
ENDBRANCH   2   6
BRANCH   5  16
ATOM     16  O3* UNL     1       9.030   0.820  23.916  0.00  0.00    -0.389 OA
ATOM     17  H3* UNL     1       8.594   0.840  24.785  0.00  0.00    +0.210 HD
ENDBRANCH   5  16
BRANCH   4  18
ATOM     18  C5* UNL     1       6.818  -0.811  23.093  0.00  0.00    +0.190 C 
BRANCH  18  19
ATOM     19  O5* UNL     1       6.478   0.488  22.610  0.00  0.00    -0.392 OA
ATOM     20  H5* UNL     1       6.275   0.409  21.662  0.00  0.00    +0.210 HD
ENDBRANCH  18  19
ENDBRANCH   4  18
TORSDOF 4
ENDMDL
MODEL 2
REMARK VINA RESULT:      -5.9      2.415      5.337
REMARK  Name = 
REMARK  4 active torsions:
REMARK  status: ('A' for Active; 'I' for Inactive)
REMARK    1  A    between atoms: C3*_2  and  O3*_20
REMARK    2  A    between atoms: C4*_4  and  C5*_18
REMARK    3  A    between atoms: C1*_7  and  N_9
REMARK    4  A    between atoms: C5*_18  and  O5*_19
REMARK                            x       y       z     vdW  Elec       q    Type
REMARK                         _______ _______ _______ _____ _____    ______ ____
ROOT
ATOM      1  C2* UNL     1       7.308  -3.628  23.963  0.00  0.00    +0.088 C 
ATOM      2  C1* UNL     1       8.772  -3.282  23.706  0.00  0.00    +0.226 C 
ATOM      3  O4* UNL     1       9.572  -4.184  24.495  0.00  0.00    -0.348 OA
ATOM      4  C4* UNL     1       8.700  -5.127  25.155  0.00  0.00    +0.175 C 
ATOM      5  C3* UNL     1       7.386  -5.077  24.381  0.00  0.00    +0.150 C 
ENDROOT
BRANCH   2   6
ATOM      6  N   UNL     1       9.072  -1.892  24.038  0.00  0.00    -0.273 N 
ATOM      7  C   UNL     1      10.073  -1.269  23.304  0.00  0.00    +0.331 A 
ATOM      8  O   UNL     1      10.738  -1.831  22.437  0.00  0.00    -0.246 OA
ATOM      9  N   UNL     1      10.261   0.060  23.570  0.00  0.00    -0.274 N 
ATOM     10  H   UNL     1      10.939   0.538  22.996  0.00  0.00    +0.173 HD
ATOM     11  C   UNL     1       9.420   0.856  24.301  0.00  0.00    +0.267 A 
ATOM     12  O   UNL     1       9.512   2.079  24.255  0.00  0.00    -0.267 OA
ATOM     13  C   UNL     1       8.396   0.142  25.106  0.00  0.00    +0.094 A 
ATOM     14  I   UNL     1       7.157   1.178  26.356  0.00  0.00    -0.037 I 
ATOM     15  C   UNL     1       8.289  -1.183  24.933  0.00  0.00    +0.113 A 
ENDBRANCH   2   6
BRANCH   5  16
ATOM     16  O3* UNL     1       6.254  -5.512  25.110  0.00  0.00    -0.389 OA
ATOM     17  H3* UNL     1       5.771  -4.744  25.462  0.00  0.00    +0.210 HD
ENDBRANCH   5  16
BRANCH   4  18
ATOM     18  C5* UNL     1       8.561  -4.759  26.641  0.00  0.00    +0.190 C 
BRANCH  18  19
ATOM     19  O5* UNL     1       8.025  -5.840  27.401  0.00  0.00    -0.392 OA
ATOM     20  H5* UNL     1       7.398  -5.469  28.046  0.00  0.00    +0.210 HD
ENDBRANCH  18  19
ENDBRANCH   4  18
TORSDOF 4
ENDMDL
MODEL 3
REMARK VINA RESULT:      -5.6      2.507      2.778
REMARK  Name = 
REMARK  4 active torsions:
REMARK  status: ('A' for Active; 'I' for Inactive)
REMARK    1  A    between atoms: C3*_2  and  O3*_20
REMARK    2  A    between atoms: C4*_4  and  C5*_18
REMARK    3  A    between atoms: C1*_7  and  N_9
REMARK    4  A    between atoms: C5*_18  and  O5*_19
REMARK                            x       y       z     vdW  Elec       q    Type
REMARK                         _______ _______ _______ _____ _____    ______ ____
ROOT
ATOM      1  C2* UNL     1       8.691  -1.594  25.029  0.00  0.00    +0.088 C 
ATOM      2  C1* UNL     1       9.333  -2.975  24.927  0.00  0.00    +0.226 C 
ATOM      3  O4* UNL     1      10.211  -2.957  23.785  0.00  0.00    -0.348 OA
ATOM      4  C4* UNL     1      10.225  -1.626  23.226  0.00  0.00    +0.175 C 
ATOM      5  C3* UNL     1       9.702  -0.715  24.332  0.00  0.00    +0.150 C 
ENDROOT
BRANCH   2   6
ATOM      6  N   UNL     1       8.334  -4.034  24.802  0.00  0.00    -0.273 N 
ATOM      7  C   UNL     1       7.756  -4.498  25.975  0.00  0.00    +0.331 A 
ATOM      8  O   UNL     1       8.068  -4.104  27.097  0.00  0.00    -0.246 OA
ATOM      9  N   UNL     1       6.754  -5.417  25.818  0.00  0.00    -0.274 N 
ATOM     10  H   UNL     1       6.282  -5.711  26.659  0.00  0.00    +0.173 HD
ATOM     11  C   UNL     1       6.136  -5.731  24.637  0.00  0.00    +0.267 A 
ATOM     12  O   UNL     1       5.074  -6.345  24.626  0.00  0.00    -0.267 OA
ATOM     13  C   UNL     1       6.817  -5.253  23.406  0.00  0.00    +0.094 A 
ATOM     14  I   UNL     1       6.095  -5.756  21.564  0.00  0.00    -0.037 I 
ATOM     15  C   UNL     1       7.874  -4.443  23.562  0.00  0.00    +0.113 A 
ENDBRANCH   2   6
BRANCH   5  16
ATOM     16  O3* UNL     1       9.161   0.512  23.880  0.00  0.00    -0.389 OA
ATOM     17  H3* UNL     1       9.193   0.550  22.908  0.00  0.00    +0.210 HD
ENDBRANCH   5  16
BRANCH   4  18
ATOM     18  C5* UNL     1       9.383  -1.590  21.940  0.00  0.00    +0.190 C 
BRANCH  18  19
ATOM     19  O5* UNL     1       9.674  -0.436  21.155  0.00  0.00    -0.392 OA
ATOM     20  H5* UNL     1       9.771   0.320  21.760  0.00  0.00    +0.210 HD
ENDBRANCH  18  19
ENDBRANCH   4  18
TORSDOF 4
ENDMDL
MODEL 4
REMARK VINA RESULT:      -5.5      2.161      2.554
REMARK  Name = 
REMARK  4 active torsions:
REMARK  status: ('A' for Active; 'I' for Inactive)
REMARK    1  A    between atoms: C3*_2  and  O3*_20
REMARK    2  A    between atoms: C4*_4  and  C5*_18
REMARK    3  A    between atoms: C1*_7  and  N_9
REMARK    4  A    between atoms: C5*_18  and  O5*_19
REMARK                            x       y       z     vdW  Elec       q    Type
REMARK                         _______ _______ _______ _____ _____    ______ ____
ROOT
ATOM      1  C2* UNL     1       7.257  -2.291  24.627  0.00  0.00    +0.088 C 
ATOM      2  C1* UNL     1       7.979  -3.624  24.446  0.00  0.00    +0.226 C 
ATOM      3  O4* UNL     1       7.889  -3.975  23.052  0.00  0.00    -0.348 OA
ATOM      4  C4* UNL     1       7.238  -2.902  22.339  0.00  0.00    +0.175 C 
ATOM      5  C3* UNL     1       7.352  -1.682  23.248  0.00  0.00    +0.150 C 
ENDROOT
BRANCH   2   6
ATOM      6  N   UNL     1       7.407  -4.673  25.287  0.00  0.00    -0.273 N 
ATOM      7  C   UNL     1       8.040  -4.928  26.496  0.00  0.00    +0.331 A 
ATOM      8  O   UNL     1       9.065  -4.358  26.867  0.00  0.00    -0.246 OA
ATOM      9  N   UNL     1       7.425  -5.844  27.304  0.00  0.00    -0.274 N 
ATOM     10  H   UNL     1       7.839  -5.988  28.212  0.00  0.00    +0.173 HD
ATOM     11  C   UNL     1       6.160  -6.339  27.133  0.00  0.00    +0.267 A 
ATOM     12  O   UNL     1       5.586  -6.930  28.043  0.00  0.00    -0.267 OA
ATOM     13  C   UNL     1       5.542  -6.081  25.807  0.00  0.00    +0.094 A 
ATOM     14  I   UNL     1       3.716  -6.871  25.347  0.00  0.00    -0.037 I 
ATOM     15  C   UNL     1       6.202  -5.274  24.965  0.00  0.00    +0.113 A 
ENDBRANCH   2   6
BRANCH   5  16
ATOM     16  O3* UNL     1       6.386  -0.676  23.012  0.00  0.00    -0.389 OA
ATOM     17  H3* UNL     1       6.447  -0.367  22.091  0.00  0.00    +0.210 HD
ENDBRANCH   5  16
BRANCH   4  18
ATOM     18  C5* UNL     1       5.790  -3.297  22.008  0.00  0.00    +0.190 C 
BRANCH  18  19
ATOM     19  O5* UNL     1       5.736  -4.267  20.964  0.00  0.00    -0.392 OA
ATOM     20  H5* UNL     1       6.641  -4.396  20.631  0.00  0.00    +0.210 HD
ENDBRANCH  18  19
ENDBRANCH   4  18
TORSDOF 4
ENDMDL
MODEL 5
REMARK VINA RESULT:      -5.5      3.561      5.091
REMARK  Name = 
REMARK  4 active torsions:
REMARK  status: ('A' for Active; 'I' for Inactive)
REMARK    1  A    between atoms: C3*_2  and  O3*_20
REMARK    2  A    between atoms: C4*_4  and  C5*_18
REMARK    3  A    between atoms: C1*_7  and  N_9
REMARK    4  A    between atoms: C5*_18  and  O5*_19
REMARK                            x       y       z     vdW  Elec       q    Type
REMARK                         _______ _______ _______ _____ _____    ______ ____
ROOT
ATOM      1  C2* UNL     1       7.354  -5.171  22.420  0.00  0.00    +0.088 C 
ATOM      2  C1* UNL     1       7.608  -4.950  23.909  0.00  0.00    +0.226 C 
ATOM      3  O4* UNL     1       6.378  -5.234  24.601  0.00  0.00    -0.348 OA
ATOM      4  C4* UNL     1       5.402  -5.705  23.647  0.00  0.00    +0.175 C 
ATOM      5  C3* UNL     1       6.205  -6.150  22.429  0.00  0.00    +0.150 C 
ENDROOT
BRANCH   2   6
ATOM      6  N   UNL     1       8.064  -3.591  24.190  0.00  0.00    -0.273 N 
ATOM      7  C   UNL     1       8.380  -3.291  25.508  0.00  0.00    +0.331 A 
ATOM      8  O   UNL     1       8.255  -4.082  26.440  0.00  0.00    -0.246 OA
ATOM      9  N   UNL     1       8.898  -2.042  25.722  0.00  0.00    -0.274 N 
ATOM     10  H   UNL     1       9.193  -1.838  26.665  0.00  0.00    +0.173 HD
ATOM     11  C   UNL     1       9.335  -1.181  24.752  0.00  0.00    +0.267 A 
ATOM     12  O   UNL     1      10.036  -0.215  25.037  0.00  0.00    -0.267 OA
ATOM     13  C   UNL     1       8.933  -1.519  23.362  0.00  0.00    +0.094 A 
ATOM     14  I   UNL     1       9.389  -0.260  21.820  0.00  0.00    -0.037 I 
ATOM     15  C   UNL     1       8.318  -2.694  23.166  0.00  0.00    +0.113 A 
ENDBRANCH   2   6
BRANCH   5  16
ATOM     16  O3* UNL     1       5.477  -6.172  21.216  0.00  0.00    -0.389 OA
ATOM     17  H3* UNL     1       6.030  -6.538  20.504  0.00  0.00    +0.210 HD
ENDBRANCH   5  16
BRANCH   4  18
ATOM     18  C5* UNL     1       4.384  -4.593  23.348  0.00  0.00    +0.190 C 
BRANCH  18  19
ATOM     19  O5* UNL     1       3.166  -5.123  22.827  0.00  0.00    -0.392 OA
ATOM     20  H5* UNL     1       2.932  -5.906  23.354  0.00  0.00    +0.210 HD
ENDBRANCH  18  19
ENDBRANCH   4  18
TORSDOF 4
ENDMDL
MODEL 6
REMARK VINA RESULT:      -5.4      2.918      5.774
REMARK  Name = 
REMARK  4 active torsions:
REMARK  status: ('A' for Active; 'I' for Inactive)
REMARK    1  A    between atoms: C3*_2  and  O3*_20
REMARK    2  A    between atoms: C4*_4  and  C5*_18
REMARK    3  A    between atoms: C1*_7  and  N_9
REMARK    4  A    between atoms: C5*_18  and  O5*_19
REMARK                            x       y       z     vdW  Elec       q    Type
REMARK                         _______ _______ _______ _____ _____    ______ ____
ROOT
ATOM      1  C2* UNL     1       7.851  -2.960  26.506  0.00  0.00    +0.088 C 
ATOM      2  C1* UNL     1       6.599  -2.879  25.636  0.00  0.00    +0.226 C 
ATOM      3  O4* UNL     1       6.493  -4.124  24.920  0.00  0.00    -0.348 OA
ATOM      4  C4* UNL     1       7.547  -5.008  25.357  0.00  0.00    +0.175 C 
ATOM      5  C3* UNL     1       8.017  -4.449  26.696  0.00  0.00    +0.150 C 
ENDROOT
BRANCH   2   6
ATOM      6  N   UNL     1       6.647  -1.747  24.714  0.00  0.00    -0.273 N 
ATOM      7  C   UNL     1       5.688  -0.758  24.878  0.00  0.00    +0.331 A 
ATOM      8  O   UNL     1       4.788  -0.806  25.715  0.00  0.00    -0.246 OA
ATOM      9  N   UNL     1       5.820   0.335  24.065  0.00  0.00    -0.274 N 
ATOM     10  H   UNL     1       5.169   1.089  24.222  0.00  0.00    +0.173 HD
ATOM     11  C   UNL     1       6.913   0.631  23.296  0.00  0.00    +0.267 A 
ATOM     12  O   UNL     1       7.066   1.754  22.824  0.00  0.00    -0.267 OA
ATOM     13  C   UNL     1       7.889  -0.474  23.111  0.00  0.00    +0.094 A 
ATOM     14  I   UNL     1       9.501  -0.233  21.880  0.00  0.00    -0.037 I 
ATOM     15  C   UNL     1       7.695  -1.594  23.821  0.00  0.00    +0.113 A 
ENDBRANCH   2   6
BRANCH   5  16
ATOM     16  O3* UNL     1       9.330  -4.825  27.066  0.00  0.00    -0.389 OA
ATOM     17  H3* UNL     1       9.516  -4.530  27.974  0.00  0.00    +0.210 HD
ENDBRANCH   5  16
BRANCH   4  18
ATOM     18  C5* UNL     1       8.651  -5.074  24.289  0.00  0.00    +0.190 C 
BRANCH  18  19
ATOM     19  O5* UNL     1       9.680  -5.992  24.654  0.00  0.00    -0.392 OA
ATOM     20  H5* UNL     1      10.209  -5.581  25.360  0.00  0.00    +0.210 HD
ENDBRANCH  18  19
ENDBRANCH   4  18
TORSDOF 4
ENDMDL
MODEL 7
REMARK VINA RESULT:      -5.4      2.909      3.208
REMARK  Name = 
REMARK  4 active torsions:
REMARK  status: ('A' for Active; 'I' for Inactive)
REMARK    1  A    between atoms: C3*_2  and  O3*_20
REMARK    2  A    between atoms: C4*_4  and  C5*_18
REMARK    3  A    between atoms: C1*_7  and  N_9
REMARK    4  A    between atoms: C5*_18  and  O5*_19
REMARK                            x       y       z     vdW  Elec       q    Type
REMARK                         _______ _______ _______ _____ _____    ______ ____
ROOT
ATOM      1  C2* UNL     1       8.594  -3.542  23.886  0.00  0.00    +0.088 C 
ATOM      2  C1* UNL     1       7.660  -3.960  22.753  0.00  0.00    +0.226 C 
ATOM      3  O4* UNL     1       7.169  -2.755  22.134  0.00  0.00    -0.348 OA
ATOM      4  C4* UNL     1       7.810  -1.618  22.752  0.00  0.00    +0.175 C 
ATOM      5  C3* UNL     1       9.052  -2.174  23.440  0.00  0.00    +0.150 C 
ENDROOT
BRANCH   2   6
ATOM      6  N   UNL     1       6.556  -4.788  23.232  0.00  0.00    -0.273 N 
ATOM      7  C   UNL     1       5.905  -5.577  22.293  0.00  0.00    +0.331 A 
ATOM      8  O   UNL     1       6.175  -5.580  21.094  0.00  0.00    -0.246 OA
ATOM      9  N   UNL     1       4.943  -6.414  22.789  0.00  0.00    -0.274 N 
ATOM     10  H   UNL     1       4.511  -7.039  22.127  0.00  0.00    +0.173 HD
ATOM     11  C   UNL     1       4.738  -6.701  24.112  0.00  0.00    +0.267 A 
ATOM     12  O   UNL     1       4.054  -7.662  24.450  0.00  0.00    -0.267 OA
ATOM     13  C   UNL     1       5.417  -5.800  25.079  0.00  0.00    +0.094 A 
ATOM     14  I   UNL     1       5.101  -6.012  27.085  0.00  0.00    -0.037 I 
ATOM     15  C   UNL     1       6.276  -4.898  24.583  0.00  0.00    +0.113 A 
ENDBRANCH   2   6
BRANCH   5  16
ATOM     16  O3* UNL     1       9.549  -1.377  24.498  0.00  0.00    -0.389 OA
ATOM     17  H3* UNL     1       9.577  -0.443  24.224  0.00  0.00    +0.210 HD
ENDBRANCH   5  16
BRANCH   4  18
ATOM     18  C5* UNL     1       6.829  -0.920  23.708  0.00  0.00    +0.190 C 
BRANCH  18  19
ATOM     19  O5* UNL     1       6.193   0.195  23.086  0.00  0.00    -0.392 OA
ATOM     20  H5* UNL     1       6.889   0.801  22.778  0.00  0.00    +0.210 HD
ENDBRANCH  18  19
ENDBRANCH   4  18
TORSDOF 4
ENDMDL
MODEL 8
REMARK VINA RESULT:      -5.2      2.306      3.047
REMARK  Name = 
REMARK  4 active torsions:
REMARK  status: ('A' for Active; 'I' for Inactive)
REMARK    1  A    between atoms: C3*_2  and  O3*_20
REMARK    2  A    between atoms: C4*_4  and  C5*_18
REMARK    3  A    between atoms: C1*_7  and  N_9
REMARK    4  A    between atoms: C5*_18  and  O5*_19
REMARK                            x       y       z     vdW  Elec       q    Type
REMARK                         _______ _______ _______ _____ _____    ______ ____
ROOT
ATOM      1  C2* UNL     1       7.475   0.234  23.712  0.00  0.00    +0.088 C 
ATOM      2  C1* UNL     1       8.631  -0.375  24.503  0.00  0.00    +0.226 C 
ATOM      3  O4* UNL     1       9.831  -0.178  23.730  0.00  0.00    -0.348 OA
ATOM      4  C4* UNL     1       9.508   0.594  22.553  0.00  0.00    +0.175 C 
ATOM      5  C3* UNL     1       8.175   1.266  22.861  0.00  0.00    +0.150 C 
ENDROOT
BRANCH   2   6
ATOM      6  N   UNL     1       8.416  -1.793  24.782  0.00  0.00    -0.273 N 
ATOM      7  C   UNL     1       8.476  -2.191  26.110  0.00  0.00    +0.331 A 
ATOM      8  O   UNL     1       8.742  -1.434  27.042  0.00  0.00    -0.246 OA
ATOM      9  N   UNL     1       8.171  -3.504  26.348  0.00  0.00    -0.274 N 
ATOM     10  H   UNL     1       8.147  -3.787  27.316  0.00  0.00    +0.173 HD
ATOM     11  C   UNL     1       7.604  -4.368  25.451  0.00  0.00    +0.267 A 
ATOM     12  O   UNL     1       7.110  -5.428  25.823  0.00  0.00    -0.267 OA
ATOM     13  C   UNL     1       7.605  -3.918  24.035  0.00  0.00    +0.094 A 
ATOM     14  I   UNL     1       6.920  -5.152  22.559  0.00  0.00    -0.037 I 
ATOM     15  C   UNL     1       8.015  -2.667  23.785  0.00  0.00    +0.113 A 
ENDBRANCH   2   6
BRANCH   5  16
ATOM     16  O3* UNL     1       7.430   1.651  21.721  0.00  0.00    -0.389 OA
ATOM     17  H3* UNL     1       8.016   2.075  21.070  0.00  0.00    +0.210 HD
ENDBRANCH   5  16
BRANCH   4  18
ATOM     18  C5* UNL     1       9.472  -0.323  21.320  0.00  0.00    +0.190 C 
BRANCH  18  19
ATOM     19  O5* UNL     1      10.285  -1.481  21.503  0.00  0.00    -0.392 OA
ATOM     20  H5* UNL     1      10.890  -1.543  20.743  0.00  0.00    +0.210 HD
ENDBRANCH  18  19
ENDBRANCH   4  18
TORSDOF 4
ENDMDL
MODEL 9
REMARK VINA RESULT:      -5.1      4.357      7.098
REMARK  Name = 
REMARK  4 active torsions:
REMARK  status: ('A' for Active; 'I' for Inactive)
REMARK    1  A    between atoms: C3*_2  and  O3*_20
REMARK    2  A    between atoms: C4*_4  and  C5*_18
REMARK    3  A    between atoms: C1*_7  and  N_9
REMARK    4  A    between atoms: C5*_18  and  O5*_19
REMARK                            x       y       z     vdW  Elec       q    Type
REMARK                         _______ _______ _______ _____ _____    ______ ____
ROOT
ATOM      1  C2* UNL     1       9.911   0.387  21.885  0.00  0.00    +0.088 C 
ATOM      2  C1* UNL     1      10.345   1.188  23.110  0.00  0.00    +0.226 C 
ATOM      3  O4* UNL     1      10.240   0.316  24.252  0.00  0.00    -0.348 OA
ATOM      4  C4* UNL     1       9.855  -1.001  23.802  0.00  0.00    +0.175 C 
ATOM      5  C3* UNL     1      10.186  -1.034  22.314  0.00  0.00    +0.150 C 
ENDROOT
BRANCH   2   6
ATOM      6  N   UNL     1       9.534   2.389  23.293  0.00  0.00    -0.273 N 
ATOM      7  C   UNL     1      10.212   3.592  23.436  0.00  0.00    +0.331 A 
ATOM      8  O   UNL     1      11.437   3.690  23.464  0.00  0.00    -0.246 OA
ATOM      9  N   UNL     1       9.426   4.710  23.505  0.00  0.00    -0.274 N 
ATOM     10  H   UNL     1       9.909   5.594  23.542  0.00  0.00    +0.173 HD
ATOM     11  C   UNL     1       8.088   4.764  23.218  0.00  0.00    +0.267 A 
ATOM     12  O   UNL     1       7.527   5.840  23.032  0.00  0.00    -0.267 OA
ATOM     13  C   UNL     1       7.396   3.453  23.120  0.00  0.00    +0.094 A 
ATOM     14  I   UNL     1       5.376   3.370  22.834  0.00  0.00    -0.037 I 
ATOM     15  C   UNL     1       8.156   2.350  23.170  0.00  0.00    +0.113 A 
ENDBRANCH   2   6
BRANCH   5  16
ATOM     16  O3* UNL     1       9.461  -1.995  21.569  0.00  0.00    -0.389 OA
ATOM     17  H3* UNL     1       9.505  -2.860  22.013  0.00  0.00    +0.210 HD
ENDBRANCH   5  16
BRANCH   4  18
ATOM     18  C5* UNL     1       8.371  -1.248  24.116  0.00  0.00    +0.190 C 
BRANCH  18  19
ATOM     19  O5* UNL     1       8.039  -2.632  24.025  0.00  0.00    -0.392 OA
ATOM     20  H5* UNL     1       8.843  -3.115  23.768  0.00  0.00    +0.210 HD
ENDBRANCH  18  19
ENDBRANCH   4  18
TORSDOF 4
ENDMDL
