MODEL 1
REMARK VINA RESULT:      -6.3      0.000      0.000
REMARK  Name = 
REMARK  11 active torsions:
REMARK  status: ('A' for Active; 'I' for Inactive)
REMARK    1  A    between atoms: C_1  and  C_2
REMARK    2  A    between atoms: N_4  and  C_5
REMARK    3  A    between atoms: C_6  and  N_21
REMARK    4  A    between atoms: C_9  and  C_18
REMARK    5  A    between atoms: C_11  and  C_12
REMARK    6  A    between atoms: C_12  and  C_13
REMARK    7  A    between atoms: C_12  and  O_17
REMARK    8  A    between atoms: C_13  and  C_14
REMARK    9  A    between atoms: C_13  and  O_16
REMARK   10  A    between atoms: C_14  and  O_15
REMARK   11  A    between atoms: C_18  and  O_20
REMARK                            x       y       z     vdW  Elec       q    Type
REMARK                         _______ _______ _______ _____ _____    ______ ____
ROOT
ATOM      1  C   UNL     1       8.600  -2.435  23.917  0.00  0.00    +0.160 C 
ATOM      2  C   UNL     1       8.275  -1.796  22.534  0.00  0.00    +0.229 C 
ATOM      3  O   UNL     1       7.506  -2.568  21.604  0.00  0.00    -0.477 OA
ATOM      4  C   UNL     1       7.007  -3.792  21.952  0.00  0.00    +0.204 C 
ATOM      5  C   UNL     1       7.385  -4.470  23.043  0.00  0.00    +0.071 C 
ATOM      6  C   UNL     1       8.417  -3.973  23.981  0.00  0.00    +0.238 C 
ENDROOT
BRANCH   6   7
ATOM      7  N   UNL     1       8.019  -4.370  25.335  0.00  0.00    -0.104 NA
ATOM      8  C   UNL     1       8.638  -5.318  25.932  0.00  0.00    +0.377 C 
ATOM      9  N   UNL     1       8.257  -5.655  27.183  0.00  0.00    -0.289 N 
ATOM     10  H   UNL     1       9.002  -5.850  27.838  0.00  0.00    +0.255 HD
ATOM     11  H   UNL     1       7.580  -5.000  27.559  0.00  0.00    +0.255 HD
ATOM     12  N   UNL     1       9.663  -6.079  25.516  0.00  0.00    -0.289 N 
ATOM     13  H   UNL     1      10.102  -6.741  26.138  0.00  0.00    +0.255 HD
ATOM     14  H   UNL     1      10.051  -6.009  24.588  0.00  0.00    +0.255 HD
ENDBRANCH   6   7
BRANCH   1  17
ATOM     15  C   UNL     1       7.615  -0.380  26.979  0.00  0.00    +0.109 C 
ATOM     16  C   UNL     1       8.443  -0.826  25.810  0.00  0.00    +0.210 C 
ATOM     17  N   UNL     1       7.842  -1.748  24.986  0.00  0.00    -0.305 N 
ATOM     18  H   UNL     1       6.999  -2.233  25.284  0.00  0.00    +0.149 HD
ATOM     19  O   UNL     1       9.581  -0.399  25.616  0.00  0.00    -0.276 OA
ENDBRANCH   1  17
BRANCH   4  20
ATOM     20  C   UNL     1       6.040  -4.414  21.000  0.00  0.00    +0.372 C 
ATOM     21  O   UNL     1       5.758  -3.992  19.893  0.00  0.00    -0.242 OA
BRANCH  20  22
ATOM     22  O   UNL     1       5.480  -5.518  21.552  0.00  0.00    -0.475 OA
ATOM     23  H   UNL     1       6.146  -6.025  22.067  0.00  0.00    +0.296 HD
ENDBRANCH  20  22
ENDBRANCH   4  20
BRANCH   2  24
ATOM     24  C   UNL     1       9.547  -1.272  21.818  0.00  0.00    +0.187 C 
BRANCH  24  25
ATOM     25  O   UNL     1      10.727  -1.959  22.242  0.00  0.00    -0.385 OA
ATOM     26  H   UNL     1      10.829  -2.769  21.685  0.00  0.00    +0.210 HD
ENDBRANCH  24  25
BRANCH  24  27
ATOM     27  C   UNL     1       9.751   0.250  22.016  0.00  0.00    +0.172 C 
BRANCH  27  28
ATOM     28  O   UNL     1      10.456   0.550  23.233  0.00  0.00    -0.387 OA
ATOM     29  H   UNL     1       9.871   1.102  23.783  0.00  0.00    +0.210 HD
ENDBRANCH  27  28
BRANCH  27  30
ATOM     30  C   UNL     1       8.408   0.993  22.042  0.00  0.00    +0.189 C 
BRANCH  30  31
ATOM     31  O   UNL     1       8.546   2.278  21.437  0.00  0.00    -0.392 OA
ATOM     32  H   UNL     1       9.500   2.401  21.271  0.00  0.00    +0.210 HD
ENDBRANCH  30  31
ENDBRANCH  27  30
ENDBRANCH  24  27
ENDBRANCH   2  24
TORSDOF 10
ENDMDL
MODEL 2
REMARK VINA RESULT:      -6.1      1.464      1.870
REMARK  Name = 
REMARK  11 active torsions:
REMARK  status: ('A' for Active; 'I' for Inactive)
REMARK    1  A    between atoms: C_1  and  C_2
REMARK    2  A    between atoms: N_4  and  C_5
REMARK    3  A    between atoms: C_6  and  N_21
REMARK    4  A    between atoms: C_9  and  C_18
REMARK    5  A    between atoms: C_11  and  C_12
REMARK    6  A    between atoms: C_12  and  C_13
REMARK    7  A    between atoms: C_12  and  O_17
REMARK    8  A    between atoms: C_13  and  C_14
REMARK    9  A    between atoms: C_13  and  O_16
REMARK   10  A    between atoms: C_14  and  O_15
REMARK   11  A    between atoms: C_18  and  O_20
REMARK                            x       y       z     vdW  Elec       q    Type
REMARK                         _______ _______ _______ _____ _____    ______ ____
ROOT
ATOM      1  C   UNL     1       7.587  -2.627  24.319  0.00  0.00    +0.160 C 
ATOM      2  C   UNL     1       7.732  -2.439  22.779  0.00  0.00    +0.229 C 
ATOM      3  O   UNL     1       7.389  -3.544  21.935  0.00  0.00    -0.477 OA
ATOM      4  C   UNL     1       6.876  -4.697  22.461  0.00  0.00    +0.204 C 
ATOM      5  C   UNL     1       6.886  -4.991  23.767  0.00  0.00    +0.071 C 
ATOM      6  C   UNL     1       7.488  -4.103  24.787  0.00  0.00    +0.238 C 
ENDROOT
BRANCH   6   7
ATOM      7  N   UNL     1       6.664  -4.186  25.996  0.00  0.00    -0.104 NA
ATOM      8  C   UNL     1       7.005  -4.968  26.951  0.00  0.00    +0.377 C 
ATOM      9  N   UNL     1       6.233  -5.016  28.057  0.00  0.00    -0.289 N 
ATOM     10  H   UNL     1       6.722  -5.050  28.940  0.00  0.00    +0.255 HD
ATOM     11  H   UNL     1       5.515  -4.300  28.046  0.00  0.00    +0.255 HD
ATOM     12  N   UNL     1       8.059  -5.794  27.058  0.00  0.00    -0.289 N 
ATOM     13  H   UNL     1       8.239  -6.293  27.916  0.00  0.00    +0.255 HD
ATOM     14  H   UNL     1       8.720  -5.932  26.310  0.00  0.00    +0.255 HD
ENDBRANCH   6   7
BRANCH   1  17
ATOM     15  C   UNL     1       5.444  -0.109  26.225  0.00  0.00    +0.109 C 
ATOM     16  C   UNL     1       6.675  -0.699  25.603  0.00  0.00    +0.210 C 
ATOM     17  N   UNL     1       6.461  -1.815  24.828  0.00  0.00    -0.305 N 
ATOM     18  H   UNL     1       5.570  -2.306  24.866  0.00  0.00    +0.149 HD
ATOM     19  O   UNL     1       7.794  -0.219  25.785  0.00  0.00    -0.276 OA
ENDBRANCH   1  17
BRANCH   4  20
ATOM     20  C   UNL     1       6.346  -5.697  21.487  0.00  0.00    +0.372 C 
ATOM     21  O   UNL     1       5.970  -5.458  20.354  0.00  0.00    -0.242 OA
BRANCH  20  22
ATOM     22  O   UNL     1       6.310  -6.928  22.051  0.00  0.00    -0.475 OA
ATOM     23  H   UNL     1       5.674  -6.951  22.800  0.00  0.00    +0.296 HD
ENDBRANCH  20  22
ENDBRANCH   4  20
BRANCH   2  24
ATOM     24  C   UNL     1       9.140  -1.924  22.383  0.00  0.00    +0.187 C 
BRANCH  24  25
ATOM     25  O   UNL     1      10.181  -2.583  23.108  0.00  0.00    -0.385 OA
ATOM     26  H   UNL     1      10.863  -2.887  22.460  0.00  0.00    +0.210 HD
ENDBRANCH  24  25
BRANCH  24  27
ATOM     27  C   UNL     1       9.284  -0.394  22.575  0.00  0.00    +0.172 C 
BRANCH  27  28
ATOM     28  O   UNL     1       9.343   0.308  21.322  0.00  0.00    -0.387 OA
ATOM     29  H   UNL     1       8.430   0.409  20.997  0.00  0.00    +0.210 HD
ENDBRANCH  27  28
BRANCH  27  30
ATOM     30  C   UNL     1      10.546  -0.050  23.379  0.00  0.00    +0.189 C 
BRANCH  30  31
ATOM     31  O   UNL     1      10.307  -0.236  24.773  0.00  0.00    -0.392 OA
ATOM     32  H   UNL     1       9.735   0.504  25.053  0.00  0.00    +0.210 HD
ENDBRANCH  30  31
ENDBRANCH  27  30
ENDBRANCH  24  27
ENDBRANCH   2  24
TORSDOF 10
ENDMDL
MODEL 3
REMARK VINA RESULT:      -6.0      1.467      1.849
REMARK  Name = 
REMARK  11 active torsions:
REMARK  status: ('A' for Active; 'I' for Inactive)
REMARK    1  A    between atoms: C_1  and  C_2
REMARK    2  A    between atoms: N_4  and  C_5
REMARK    3  A    between atoms: C_6  and  N_21
REMARK    4  A    between atoms: C_9  and  C_18
REMARK    5  A    between atoms: C_11  and  C_12
REMARK    6  A    between atoms: C_12  and  C_13
REMARK    7  A    between atoms: C_12  and  O_17
REMARK    8  A    between atoms: C_13  and  C_14
REMARK    9  A    between atoms: C_13  and  O_16
REMARK   10  A    between atoms: C_14  and  O_15
REMARK   11  A    between atoms: C_18  and  O_20
REMARK                            x       y       z     vdW  Elec       q    Type
REMARK                         _______ _______ _______ _____ _____    ______ ____
ROOT
ATOM      1  C   UNL     1       7.567  -2.223  25.099  0.00  0.00    +0.160 C 
ATOM      2  C   UNL     1       7.717  -1.678  23.647  0.00  0.00    +0.229 C 
ATOM      3  O   UNL     1       7.425  -2.569  22.564  0.00  0.00    -0.477 OA
ATOM      4  C   UNL     1       6.953  -3.830  22.801  0.00  0.00    +0.204 C 
ATOM      5  C   UNL     1       6.964  -4.418  24.003  0.00  0.00    +0.071 C 
ATOM      6  C   UNL     1       7.522  -3.769  25.211  0.00  0.00    +0.238 C 
ENDROOT
BRANCH   6   7
ATOM      7  N   UNL     1       6.692  -4.161  26.354  0.00  0.00    -0.104 NA
ATOM      8  C   UNL     1       7.063  -5.121  27.114  0.00  0.00    +0.377 C 
ATOM      9  N   UNL     1       6.283  -5.454  28.166  0.00  0.00    -0.289 N 
ATOM     10  H   UNL     1       6.766  -5.664  29.028  0.00  0.00    +0.255 HD
ATOM     11  H   UNL     1       5.531  -4.786  28.302  0.00  0.00    +0.255 HD
ATOM     12  N   UNL     1       8.154  -5.901  27.055  0.00  0.00    -0.289 N 
ATOM     13  H   UNL     1       8.351  -6.573  27.781  0.00  0.00    +0.255 HD
ATOM     14  H   UNL     1       8.828  -5.837  26.308  0.00  0.00    +0.255 HD
ENDBRANCH   6   7
BRANCH   1  17
ATOM     15  C   UNL     1       5.327  -0.173  27.411  0.00  0.00    +0.109 C 
ATOM     16  C   UNL     1       6.565  -0.561  26.658  0.00  0.00    +0.210 C 
ATOM     17  N   UNL     1       6.405  -1.592  25.762  0.00  0.00    -0.305 N 
ATOM     18  H   UNL     1       5.568  -2.170  25.786  0.00  0.00    +0.149 HD
ATOM     19  O   UNL     1       7.644   0.004  26.839  0.00  0.00    -0.276 OA
ENDBRANCH   1  17
BRANCH   4  20
ATOM     20  C   UNL     1       6.472  -4.595  21.613  0.00  0.00    +0.372 C 
ATOM     21  O   UNL     1       6.804  -5.727  21.311  0.00  0.00    -0.242 OA
BRANCH  20  22
ATOM     22  O   UNL     1       5.618  -3.839  20.881  0.00  0.00    -0.475 OA
ATOM     23  H   UNL     1       5.475  -2.964  21.305  0.00  0.00    +0.296 HD
ENDBRANCH  20  22
ENDBRANCH   4  20
BRANCH   2  24
ATOM     24  C   UNL     1       9.107  -1.034  23.405  0.00  0.00    +0.187 C 
BRANCH  24  25
ATOM     25  O   UNL     1       9.555  -0.276  24.531  0.00  0.00    -0.385 OA
ATOM     26  H   UNL     1       9.554  -0.869  25.322  0.00  0.00    +0.210 HD
ENDBRANCH  24  25
BRANCH  24  27
ATOM     27  C   UNL     1       9.127  -0.128  22.149  0.00  0.00    +0.172 C 
BRANCH  27  28
ATOM     28  O   UNL     1       9.509  -0.848  20.965  0.00  0.00    -0.387 OA
ATOM     29  H   UNL     1       8.907  -0.579  20.249  0.00  0.00    +0.210 HD
ENDBRANCH  27  28
BRANCH  27  30
ATOM     30  C   UNL     1      10.093   1.052  22.328  0.00  0.00    +0.189 C 
BRANCH  30  31
ATOM     31  O   UNL     1       9.773   2.093  21.406  0.00  0.00    -0.392 OA
ATOM     32  H   UNL     1       8.800   2.164  21.402  0.00  0.00    +0.210 HD
ENDBRANCH  30  31
ENDBRANCH  27  30
ENDBRANCH  24  27
ENDBRANCH   2  24
TORSDOF 10
ENDMDL
MODEL 4
REMARK VINA RESULT:      -5.9      2.671      4.920
REMARK  Name = 
REMARK  11 active torsions:
REMARK  status: ('A' for Active; 'I' for Inactive)
REMARK    1  A    between atoms: C_1  and  C_2
REMARK    2  A    between atoms: N_4  and  C_5
REMARK    3  A    between atoms: C_6  and  N_21
REMARK    4  A    between atoms: C_9  and  C_18
REMARK    5  A    between atoms: C_11  and  C_12
REMARK    6  A    between atoms: C_12  and  C_13
REMARK    7  A    between atoms: C_12  and  O_17
REMARK    8  A    between atoms: C_13  and  C_14
REMARK    9  A    between atoms: C_13  and  O_16
REMARK   10  A    between atoms: C_14  and  O_15
REMARK   11  A    between atoms: C_18  and  O_20
REMARK                            x       y       z     vdW  Elec       q    Type
REMARK                         _______ _______ _______ _____ _____    ______ ____
ROOT
ATOM      1  C   UNL     1       7.998  -2.531  23.926  0.00  0.00    +0.160 C 
ATOM      2  C   UNL     1       8.385  -4.006  23.605  0.00  0.00    +0.229 C 
ATOM      3  O   UNL     1       7.331  -4.919  23.279  0.00  0.00    -0.477 OA
ATOM      4  C   UNL     1       6.037  -4.488  23.176  0.00  0.00    +0.204 C 
ATOM      5  C   UNL     1       5.611  -3.292  23.601  0.00  0.00    +0.071 C 
ATOM      6  C   UNL     1       6.500  -2.312  24.263  0.00  0.00    +0.238 C 
ENDROOT
BRANCH   6   7
ATOM      7  N   UNL     1       6.086  -0.972  23.834  0.00  0.00    -0.104 NA
ATOM      8  C   UNL     1       5.900  -0.051  24.703  0.00  0.00    +0.377 C 
ATOM      9  N   UNL     1       5.529   1.176  24.279  0.00  0.00    -0.289 N 
ATOM     10  H   UNL     1       5.974   1.959  24.738  0.00  0.00    +0.255 HD
ATOM     11  H   UNL     1       5.571   1.253  23.268  0.00  0.00    +0.255 HD
ATOM     12  N   UNL     1       6.018  -0.086  26.041  0.00  0.00    -0.289 N 
ATOM     13  H   UNL     1       5.914   0.752  26.591  0.00  0.00    +0.255 HD
ATOM     14  H   UNL     1       6.237  -0.931  26.545  0.00  0.00    +0.255 HD
ENDBRANCH   6   7
BRANCH   1  17
ATOM     15  C   UNL     1       9.742   0.195  21.903  0.00  0.00    +0.109 C 
ATOM     16  C   UNL     1       9.536  -0.806  23.001  0.00  0.00    +0.210 C 
ATOM     17  N   UNL     1       8.452  -1.637  22.839  0.00  0.00    -0.305 N 
ATOM     18  H   UNL     1       7.742  -1.428  22.141  0.00  0.00    +0.149 HD
ATOM     19  O   UNL     1      10.283  -0.866  23.978  0.00  0.00    -0.276 OA
ENDBRANCH   1  17
BRANCH   4  20
ATOM     20  C   UNL     1       5.052  -5.462  22.618  0.00  0.00    +0.372 C 
ATOM     21  O   UNL     1       3.841  -5.393  22.724  0.00  0.00    -0.242 OA
BRANCH  20  22
ATOM     22  O   UNL     1       5.697  -6.473  21.987  0.00  0.00    -0.475 OA
ATOM     23  H   UNL     1       5.708  -6.328  21.015  0.00  0.00    +0.296 HD
ENDBRANCH  20  22
ENDBRANCH   4  20
BRANCH   2  24
ATOM     24  C   UNL     1       9.267  -4.635  24.715  0.00  0.00    +0.187 C 
BRANCH  24  25
ATOM     25  O   UNL     1       9.478  -6.034  24.509  0.00  0.00    -0.385 OA
ATOM     26  H   UNL     1       9.806  -6.163  23.586  0.00  0.00    +0.210 HD
ENDBRANCH  24  25
BRANCH  24  27
ATOM     27  C   UNL     1       8.677  -4.417  26.130  0.00  0.00    +0.172 C 
BRANCH  27  28
ATOM     28  O   UNL     1       9.658  -4.611  27.164  0.00  0.00    -0.387 OA
ATOM     29  H   UNL     1      10.424  -4.049  26.952  0.00  0.00    +0.210 HD
ENDBRANCH  27  28
BRANCH  27  30
ATOM     30  C   UNL     1       7.503  -5.370  26.397  0.00  0.00    +0.189 C 
BRANCH  30  31
ATOM     31  O   UNL     1       7.642  -5.974  27.682  0.00  0.00    -0.392 OA
ATOM     32  H   UNL     1       8.102  -6.823  27.537  0.00  0.00    +0.210 HD
ENDBRANCH  30  31
ENDBRANCH  27  30
ENDBRANCH  24  27
ENDBRANCH   2  24
TORSDOF 10
ENDMDL
MODEL 5
REMARK VINA RESULT:      -5.9      2.751      5.298
REMARK  Name = 
REMARK  11 active torsions:
REMARK  status: ('A' for Active; 'I' for Inactive)
REMARK    1  A    between atoms: C_1  and  C_2
REMARK    2  A    between atoms: N_4  and  C_5
REMARK    3  A    between atoms: C_6  and  N_21
REMARK    4  A    between atoms: C_9  and  C_18
REMARK    5  A    between atoms: C_11  and  C_12
REMARK    6  A    between atoms: C_12  and  C_13
REMARK    7  A    between atoms: C_12  and  O_17
REMARK    8  A    between atoms: C_13  and  C_14
REMARK    9  A    between atoms: C_13  and  O_16
REMARK   10  A    between atoms: C_14  and  O_15
REMARK   11  A    between atoms: C_18  and  O_20
REMARK                            x       y       z     vdW  Elec       q    Type
REMARK                         _______ _______ _______ _____ _____    ______ ____
ROOT
ATOM      1  C   UNL     1       7.631  -1.896  23.800  0.00  0.00    +0.160 C 
ATOM      2  C   UNL     1       6.610  -3.073  23.772  0.00  0.00    +0.229 C 
ATOM      3  O   UNL     1       6.693  -4.056  24.810  0.00  0.00    -0.477 OA
ATOM      4  C   UNL     1       7.587  -3.919  25.836  0.00  0.00    +0.204 C 
ATOM      5  C   UNL     1       8.597  -3.040  25.835  0.00  0.00    +0.071 C 
ATOM      6  C   UNL     1       8.873  -2.135  24.697  0.00  0.00    +0.238 C 
ENDROOT
BRANCH   6   7
ATOM      7  N   UNL     1       9.344  -0.859  25.244  0.00  0.00    -0.104 NA
ATOM      8  C   UNL     1      10.120  -0.113  24.552  0.00  0.00    +0.377 C 
ATOM      9  N   UNL     1      10.529   1.062  25.077  0.00  0.00    -0.289 N 
ATOM     10  H   UNL     1      10.544   1.850  24.445  0.00  0.00    +0.255 HD
ATOM     11  H   UNL     1      10.045   1.275  25.943  0.00  0.00    +0.255 HD
ATOM     12  N   UNL     1      10.627  -0.297  23.322  0.00  0.00    -0.289 N 
ATOM     13  H   UNL     1      11.167   0.426  22.872  0.00  0.00    +0.255 HD
ATOM     14  H   UNL     1      10.475  -1.141  22.792  0.00  0.00    +0.255 HD
ENDBRANCH   6   7
BRANCH   1  17
ATOM     15  C   UNL     1       6.474   1.739  23.921  0.00  0.00    +0.109 C 
ATOM     16  C   UNL     1       7.037   0.477  23.337  0.00  0.00    +0.210 C 
ATOM     17  N   UNL     1       6.942  -0.633  24.144  0.00  0.00    -0.305 N 
ATOM     18  H   UNL     1       6.707  -0.536  25.129  0.00  0.00    +0.149 HD
ATOM     19  O   UNL     1       7.553   0.447  22.220  0.00  0.00    -0.276 OA
ENDBRANCH   1  17
BRANCH   4  20
ATOM     20  C   UNL     1       7.443  -4.871  26.977  0.00  0.00    +0.372 C 
ATOM     21  O   UNL     1       6.715  -4.724  27.942  0.00  0.00    -0.242 OA
BRANCH  20  22
ATOM     22  O   UNL     1       8.268  -5.933  26.810  0.00  0.00    -0.475 OA
ATOM     23  H   UNL     1       9.036  -5.693  26.244  0.00  0.00    +0.296 HD
ENDBRANCH  20  22
ENDBRANCH   4  20
BRANCH   2  24
ATOM     24  C   UNL     1       6.588  -3.795  22.399  0.00  0.00    +0.187 C 
BRANCH  24  25
ATOM     25  O   UNL     1       5.370  -3.566  21.687  0.00  0.00    -0.385 OA
ATOM     26  H   UNL     1       5.120  -4.404  21.226  0.00  0.00    +0.210 HD
ENDBRANCH  24  25
BRANCH  24  27
ATOM     27  C   UNL     1       6.814  -5.321  22.532  0.00  0.00    +0.172 C 
BRANCH  27  28
ATOM     28  O   UNL     1       8.153  -5.639  22.950  0.00  0.00    -0.387 OA
ATOM     29  H   UNL     1       8.135  -5.780  23.914  0.00  0.00    +0.210 HD
ENDBRANCH  27  28
BRANCH  27  30
ATOM     30  C   UNL     1       6.541  -6.043  21.204  0.00  0.00    +0.189 C 
BRANCH  30  31
ATOM     31  O   UNL     1       5.167  -6.417  21.122  0.00  0.00    -0.392 OA
ATOM     32  H   UNL     1       4.865  -6.550  22.040  0.00  0.00    +0.210 HD
ENDBRANCH  30  31
ENDBRANCH  27  30
ENDBRANCH  24  27
ENDBRANCH   2  24
TORSDOF 10
ENDMDL
MODEL 6
REMARK VINA RESULT:      -5.7      1.996      5.579
REMARK  Name = 
REMARK  11 active torsions:
REMARK  status: ('A' for Active; 'I' for Inactive)
REMARK    1  A    between atoms: C_1  and  C_2
REMARK    2  A    between atoms: N_4  and  C_5
REMARK    3  A    between atoms: C_6  and  N_21
REMARK    4  A    between atoms: C_9  and  C_18
REMARK    5  A    between atoms: C_11  and  C_12
REMARK    6  A    between atoms: C_12  and  C_13
REMARK    7  A    between atoms: C_12  and  O_17
REMARK    8  A    between atoms: C_13  and  C_14
REMARK    9  A    between atoms: C_13  and  O_16
REMARK   10  A    between atoms: C_14  and  O_15
REMARK   11  A    between atoms: C_18  and  O_20
REMARK                            x       y       z     vdW  Elec       q    Type
REMARK                         _______ _______ _______ _____ _____    ______ ____
ROOT
ATOM      1  C   UNL     1       6.576  -2.800  24.054  0.00  0.00    +0.160 C 
ATOM      2  C   UNL     1       7.263  -3.377  22.780  0.00  0.00    +0.229 C 
ATOM      3  O   UNL     1       8.191  -2.538  22.081  0.00  0.00    -0.477 OA
ATOM      4  C   UNL     1       8.520  -1.303  22.565  0.00  0.00    +0.204 C 
ATOM      5  C   UNL     1       7.851  -0.680  23.543  0.00  0.00    +0.071 C 
ATOM      6  C   UNL     1       6.652  -1.257  24.190  0.00  0.00    +0.238 C 
ENDROOT
BRANCH   6   7
ATOM      7  N   UNL     1       6.686  -0.885  25.608  0.00  0.00    -0.104 NA
ATOM      8  C   UNL     1       5.999   0.111  26.024  0.00  0.00    +0.377 C 
ATOM      9  N   UNL     1       6.041   0.425  27.337  0.00  0.00    -0.289 N 
ATOM     10  H   UNL     1       5.160   0.681  27.761  0.00  0.00    +0.255 HD
ATOM     11  H   UNL     1       6.533  -0.279  27.876  0.00  0.00    +0.255 HD
ATOM     12  N   UNL     1       5.192   0.948  25.351  0.00  0.00    -0.289 N 
ATOM     13  H   UNL     1       4.650   1.647  25.838  0.00  0.00    +0.255 HD
ATOM     14  H   UNL     1       5.075   0.904  24.351  0.00  0.00    +0.255 HD
ENDBRANCH   6   7
BRANCH   1  17
ATOM     15  C   UNL     1       6.951  -5.027  27.130  0.00  0.00    +0.109 C 
ATOM     16  C   UNL     1       6.448  -4.580  25.790  0.00  0.00    +0.210 C 
ATOM     17  N   UNL     1       7.088  -3.483  25.262  0.00  0.00    -0.305 N 
ATOM     18  H   UNL     1       7.695  -2.911  25.844  0.00  0.00    +0.149 HD
ATOM     19  O   UNL     1       5.524  -5.154  25.214  0.00  0.00    -0.276 OA
ENDBRANCH   1  17
BRANCH   4  20
ATOM     20  C   UNL     1       9.654  -0.604  21.890  0.00  0.00    +0.372 C 
ATOM     21  O   UNL     1       9.717   0.589  21.654  0.00  0.00    -0.242 OA
BRANCH  20  22
ATOM     22  O   UNL     1      10.615  -1.494  21.541  0.00  0.00    -0.475 OA
ATOM     23  H   UNL     1      10.445  -2.369  21.955  0.00  0.00    +0.296 HD
ENDBRANCH  20  22
ENDBRANCH   4  20
BRANCH   2  24
ATOM     24  C   UNL     1       6.234  -3.940  21.764  0.00  0.00    +0.187 C 
BRANCH  24  25
ATOM     25  O   UNL     1       4.938  -4.106  22.344  0.00  0.00    -0.385 OA
ATOM     26  H   UNL     1       4.907  -3.586  23.183  0.00  0.00    +0.210 HD
ENDBRANCH  24  25
BRANCH  24  27
ATOM     27  C   UNL     1       6.688  -5.287  21.150  0.00  0.00    +0.172 C 
BRANCH  27  28
ATOM     28  O   UNL     1       5.811  -5.730  20.100  0.00  0.00    -0.387 OA
ATOM     29  H   UNL     1       4.898  -5.669  20.434  0.00  0.00    +0.210 HD
ENDBRANCH  27  28
BRANCH  27  30
ATOM     30  C   UNL     1       6.757  -6.390  22.216  0.00  0.00    +0.189 C 
BRANCH  30  31
ATOM     31  O   UNL     1       5.442  -6.743  22.644  0.00  0.00    -0.392 OA
ATOM     32  H   UNL     1       4.897  -5.940  22.542  0.00  0.00    +0.210 HD
ENDBRANCH  30  31
ENDBRANCH  27  30
ENDBRANCH  24  27
ENDBRANCH   2  24
TORSDOF 10
ENDMDL
MODEL 7
REMARK VINA RESULT:      -5.7      2.478      5.133
REMARK  Name = 
REMARK  11 active torsions:
REMARK  status: ('A' for Active; 'I' for Inactive)
REMARK    1  A    between atoms: C_1  and  C_2
REMARK    2  A    between atoms: N_4  and  C_5
REMARK    3  A    between atoms: C_6  and  N_21
REMARK    4  A    between atoms: C_9  and  C_18
REMARK    5  A    between atoms: C_11  and  C_12
REMARK    6  A    between atoms: C_12  and  C_13
REMARK    7  A    between atoms: C_12  and  O_17
REMARK    8  A    between atoms: C_13  and  C_14
REMARK    9  A    between atoms: C_13  and  O_16
REMARK   10  A    between atoms: C_14  and  O_15
REMARK   11  A    between atoms: C_18  and  O_20
REMARK                            x       y       z     vdW  Elec       q    Type
REMARK                         _______ _______ _______ _____ _____    ______ ____
ROOT
ATOM      1  C   UNL     1       7.525  -2.789  24.093  0.00  0.00    +0.160 C 
ATOM      2  C   UNL     1       7.046  -1.423  23.516  0.00  0.00    +0.229 C 
ATOM      3  O   UNL     1       8.013  -0.374  23.389  0.00  0.00    -0.477 OA
ATOM      4  C   UNL     1       9.329  -0.592  23.689  0.00  0.00    +0.204 C 
ATOM      5  C   UNL     1       9.776  -1.670  24.344  0.00  0.00    +0.071 C 
ATOM      6  C   UNL     1       8.880  -2.736  24.845  0.00  0.00    +0.238 C 
ENDROOT
BRANCH   6   7
ATOM      7  N   UNL     1       9.580  -4.016  24.697  0.00  0.00    -0.104 NA
ATOM      8  C   UNL     1       9.467  -4.915  25.601  0.00  0.00    +0.377 C 
ATOM      9  N   UNL     1      10.115  -6.088  25.434  0.00  0.00    -0.289 N 
ATOM     10  H   UNL     1       9.601  -6.920  25.689  0.00  0.00    +0.255 HD
ATOM     11  H   UNL     1      10.525  -6.162  24.509  0.00  0.00    +0.255 HD
ATOM     12  N   UNL     1       8.776  -4.903  26.753  0.00  0.00    -0.289 N 
ATOM     13  H   UNL     1       8.721  -5.728  27.331  0.00  0.00    +0.255 HD
ATOM     14  H   UNL     1       8.271  -4.093  27.075  0.00  0.00    +0.255 HD
ENDBRANCH   6   7
BRANCH   1  17
ATOM     15  C   UNL     1       6.939  -5.961  22.054  0.00  0.00    +0.109 C 
ATOM     16  C   UNL     1       6.672  -4.893  23.074  0.00  0.00    +0.210 C 
ATOM     17  N   UNL     1       7.528  -3.817  23.030  0.00  0.00    -0.305 N 
ATOM     18  H   UNL     1       8.390  -3.866  22.493  0.00  0.00    +0.149 HD
ATOM     19  O   UNL     1       5.757  -4.985  23.891  0.00  0.00    -0.276 OA
ENDBRANCH   1  17
BRANCH   4  20
ATOM     20  C   UNL     1      10.287   0.489  23.313  0.00  0.00    +0.372 C 
ATOM     21  O   UNL     1      10.293   1.104  22.262  0.00  0.00    -0.242 OA
BRANCH  20  22
ATOM     22  O   UNL     1      11.188   0.685  24.306  0.00  0.00    -0.475 OA
ATOM     23  H   UNL     1      10.739   0.955  25.137  0.00  0.00    +0.296 HD
ENDBRANCH  20  22
ENDBRANCH   4  20
BRANCH   2  24
ATOM     24  C   UNL     1       5.806  -0.872  24.269  0.00  0.00    +0.187 C 
BRANCH  24  25
ATOM     25  O   UNL     1       6.054   0.408  24.854  0.00  0.00    -0.385 OA
ATOM     26  H   UNL     1       5.283   0.639  25.428  0.00  0.00    +0.210 HD
ENDBRANCH  24  25
BRANCH  24  27
ATOM     27  C   UNL     1       5.305  -1.841  25.368  0.00  0.00    +0.172 C 
BRANCH  27  28
ATOM     28  O   UNL     1       4.169  -2.610  24.938  0.00  0.00    -0.387 OA
ATOM     29  H   UNL     1       4.052  -3.341  25.572  0.00  0.00    +0.210 HD
ENDBRANCH  27  28
BRANCH  27  30
ATOM     30  C   UNL     1       4.917  -1.081  26.645  0.00  0.00    +0.189 C 
BRANCH  30  31
ATOM     31  O   UNL     1       3.715  -0.342  26.431  0.00  0.00    -0.392 OA
ATOM     32  H   UNL     1       3.489  -0.455  25.488  0.00  0.00    +0.210 HD
ENDBRANCH  30  31
ENDBRANCH  27  30
ENDBRANCH  24  27
ENDBRANCH   2  24
TORSDOF 10
ENDMDL
MODEL 8
REMARK VINA RESULT:      -5.7      2.835      5.130
REMARK  Name = 
REMARK  11 active torsions:
REMARK  status: ('A' for Active; 'I' for Inactive)
REMARK    1  A    between atoms: C_1  and  C_2
REMARK    2  A    between atoms: N_4  and  C_5
REMARK    3  A    between atoms: C_6  and  N_21
REMARK    4  A    between atoms: C_9  and  C_18
REMARK    5  A    between atoms: C_11  and  C_12
REMARK    6  A    between atoms: C_12  and  C_13
REMARK    7  A    between atoms: C_12  and  O_17
REMARK    8  A    between atoms: C_13  and  C_14
REMARK    9  A    between atoms: C_13  and  O_16
REMARK   10  A    between atoms: C_14  and  O_15
REMARK   11  A    between atoms: C_18  and  O_20
REMARK                            x       y       z     vdW  Elec       q    Type
REMARK                         _______ _______ _______ _____ _____    ______ ____
ROOT
ATOM      1  C   UNL     1       7.582  -1.910  24.458  0.00  0.00    +0.160 C 
ATOM      2  C   UNL     1       7.805  -3.450  24.554  0.00  0.00    +0.229 C 
ATOM      3  O   UNL     1       7.265  -4.270  23.511  0.00  0.00    -0.477 OA
ATOM      4  C   UNL     1       6.644  -3.711  22.429  0.00  0.00    +0.204 C 
ATOM      5  C   UNL     1       6.268  -2.428  22.364  0.00  0.00    +0.071 C 
ATOM      6  C   UNL     1       6.459  -1.476  23.481  0.00  0.00    +0.238 C 
ENDROOT
BRANCH   6   7
ATOM      7  N   UNL     1       6.781  -0.167  22.905  0.00  0.00    -0.104 NA
ATOM      8  C   UNL     1       6.282   0.896  23.413  0.00  0.00    +0.377 C 
ATOM      9  N   UNL     1       6.604   2.088  22.868  0.00  0.00    -0.289 N 
ATOM     10  H   UNL     1       6.789   2.839  23.518  0.00  0.00    +0.255 HD
ATOM     11  H   UNL     1       7.336   1.998  22.171  0.00  0.00    +0.255 HD
ATOM     12  N   UNL     1       5.450   1.049  24.457  0.00  0.00    -0.289 N 
ATOM     13  H   UNL     1       5.204   1.968  24.792  0.00  0.00    +0.255 HD
ATOM     14  H   UNL     1       5.059   0.267  24.959  0.00  0.00    +0.255 HD
ENDBRANCH   6   7
BRANCH   1  17
ATOM     15  C   UNL     1      10.695   0.291  24.633  0.00  0.00    +0.109 C 
ATOM     16  C   UNL     1       9.539  -0.526  25.130  0.00  0.00    +0.210 C 
ATOM     17  N   UNL     1       8.861  -1.229  24.161  0.00  0.00    -0.305 N 
ATOM     18  H   UNL     1       9.010  -1.023  23.176  0.00  0.00    +0.149 HD
ATOM     19  O   UNL     1       9.223  -0.555  26.319  0.00  0.00    -0.276 OA
ENDBRANCH   1  17
BRANCH   4  20
ATOM     20  C   UNL     1       6.316  -4.631  21.299  0.00  0.00    +0.372 C 
ATOM     21  O   UNL     1       6.531  -5.829  21.270  0.00  0.00    -0.242 OA
BRANCH  20  22
ATOM     22  O   UNL     1       5.760  -3.939  20.276  0.00  0.00    -0.475 OA
ATOM     23  H   UNL     1       4.789  -3.851  20.400  0.00  0.00    +0.296 HD
ENDBRANCH  20  22
ENDBRANCH   4  20
BRANCH   2  24
ATOM     24  C   UNL     1       7.358  -4.022  25.924  0.00  0.00    +0.187 C 
BRANCH  24  25
ATOM     25  O   UNL     1       7.583  -3.101  26.994  0.00  0.00    -0.385 OA
ATOM     26  H   UNL     1       7.720  -2.203  26.604  0.00  0.00    +0.210 HD
ENDBRANCH  24  25
BRANCH  24  27
ATOM     27  C   UNL     1       8.056  -5.363  26.259  0.00  0.00    +0.172 C 
BRANCH  27  28
ATOM     28  O   UNL     1       7.874  -5.742  27.634  0.00  0.00    -0.387 OA
ATOM     29  H   UNL     1       8.263  -6.628  27.749  0.00  0.00    +0.210 HD
ENDBRANCH  27  28
BRANCH  27  30
ATOM     30  C   UNL     1       9.563  -5.293  25.974  0.00  0.00    +0.189 C 
BRANCH  30  31
ATOM     31  O   UNL     1       9.856  -5.909  24.721  0.00  0.00    -0.392 OA
ATOM     32  H   UNL     1       9.872  -5.189  24.061  0.00  0.00    +0.210 HD
ENDBRANCH  30  31
ENDBRANCH  27  30
ENDBRANCH  24  27
ENDBRANCH   2  24
TORSDOF 10
ENDMDL
MODEL 9
REMARK VINA RESULT:      -5.7      2.572      4.290
REMARK  Name = 
REMARK  11 active torsions:
REMARK  status: ('A' for Active; 'I' for Inactive)
REMARK    1  A    between atoms: C_1  and  C_2
REMARK    2  A    between atoms: N_4  and  C_5
REMARK    3  A    between atoms: C_6  and  N_21
REMARK    4  A    between atoms: C_9  and  C_18
REMARK    5  A    between atoms: C_11  and  C_12
REMARK    6  A    between atoms: C_12  and  C_13
REMARK    7  A    between atoms: C_12  and  O_17
REMARK    8  A    between atoms: C_13  and  C_14
REMARK    9  A    between atoms: C_13  and  O_16
REMARK   10  A    between atoms: C_14  and  O_15
REMARK   11  A    between atoms: C_18  and  O_20
REMARK                            x       y       z     vdW  Elec       q    Type
REMARK                         _______ _______ _______ _____ _____    ______ ____
ROOT
ATOM      1  C   UNL     1       7.134  -2.806  24.616  0.00  0.00    +0.160 C 
ATOM      2  C   UNL     1       6.721  -1.436  23.999  0.00  0.00    +0.229 C 
ATOM      3  O   UNL     1       7.691  -0.737  23.210  0.00  0.00    -0.477 OA
ATOM      4  C   UNL     1       8.911  -1.295  22.942  0.00  0.00    +0.204 C 
ATOM      5  C   UNL     1       9.393  -2.374  23.571  0.00  0.00    +0.071 C 
ATOM      6  C   UNL     1       8.663  -3.066  24.656  0.00  0.00    +0.238 C 
ENDROOT
BRANCH   6   7
ATOM      7  N   UNL     1       8.926  -4.503  24.527  0.00  0.00    -0.104 NA
ATOM      8  C   UNL     1       9.332  -5.172  25.540  0.00  0.00    +0.377 C 
ATOM      9  N   UNL     1       9.556  -6.495  25.395  0.00  0.00    -0.289 N 
ATOM     10  H   UNL     1       9.245  -7.085  26.154  0.00  0.00    +0.255 HD
ATOM     11  H   UNL     1       9.237  -6.834  24.493  0.00  0.00    +0.255 HD
ATOM     12  N   UNL     1       9.586  -4.772  26.796  0.00  0.00    -0.289 N 
ATOM     13  H   UNL     1       9.827  -5.440  27.513  0.00  0.00    +0.255 HD
ATOM     14  H   UNL     1       9.525  -3.807  27.083  0.00  0.00    +0.255 HD
ENDBRANCH   6   7
BRANCH   1  17
ATOM     15  C   UNL     1       4.692  -5.613  23.768  0.00  0.00    +0.109 C 
ATOM     16  C   UNL     1       5.198  -4.357  24.413  0.00  0.00    +0.210 C 
ATOM     17  N   UNL     1       6.409  -3.906  23.943  0.00  0.00    -0.305 N 
ATOM     18  H   UNL     1       6.994  -4.506  23.367  0.00  0.00    +0.149 HD
ATOM     19  O   UNL     1       4.572  -3.782  25.304  0.00  0.00    -0.276 OA
ENDBRANCH   1  17
BRANCH   4  20
ATOM     20  C   UNL     1       9.759  -0.591  21.934  0.00  0.00    +0.372 C 
ATOM     21  O   UNL     1       9.562   0.526  21.493  0.00  0.00    -0.242 OA
BRANCH  20  22
ATOM     22  O   UNL     1      10.783  -1.388  21.544  0.00  0.00    -0.475 OA
ATOM     23  H   UNL     1      10.683  -1.647  20.601  0.00  0.00    +0.296 HD
ENDBRANCH  20  22
ENDBRANCH   4  20
BRANCH   2  24
ATOM     24  C   UNL     1       6.149  -0.464  25.064  0.00  0.00    +0.187 C 
BRANCH  24  25
ATOM     25  O   UNL     1       4.769  -0.717  25.340  0.00  0.00    -0.385 OA
ATOM     26  H   UNL     1       4.248  -0.501  24.528  0.00  0.00    +0.210 HD
ENDBRANCH  24  25
BRANCH  24  27
ATOM     27  C   UNL     1       6.318   1.021  24.660  0.00  0.00    +0.172 C 
BRANCH  27  28
ATOM     28  O   UNL     1       7.560   1.574  25.126  0.00  0.00    -0.387 OA
ATOM     29  H   UNL     1       7.347   2.282  25.760  0.00  0.00    +0.210 HD
ENDBRANCH  27  28
BRANCH  27  30
ATOM     30  C   UNL     1       5.171   1.882  25.209  0.00  0.00    +0.189 C 
BRANCH  30  31
ATOM     31  O   UNL     1       4.150   2.028  24.222  0.00  0.00    -0.392 OA
ATOM     32  H   UNL     1       3.771   2.918  24.353  0.00  0.00    +0.210 HD
ENDBRANCH  30  31
ENDBRANCH  27  30
ENDBRANCH  24  27
ENDBRANCH   2  24
TORSDOF 10
ENDMDL
