MODEL 1
REMARK VINA RESULT:      -5.5      0.000      0.000
REMARK  Name = 
REMARK  3 active torsions:
REMARK  status: ('A' for Active; 'I' for Inactive)
REMARK    1  A    between atoms: C_2  and  N_10
REMARK    2  A    between atoms: C_5  and  C_8
REMARK    3  A    between atoms: C_8  and  O_9
REMARK                            x       y       z     vdW  Elec       q    Type
REMARK                         _______ _______ _______ _____ _____    ______ ____
ROOT
ATOM      1  N   UNL     1       8.220  -2.408  23.967  0.00  0.00    -0.269 N 
ATOM      2  C   UNL     1       8.757  -3.712  23.932  0.00  0.00    +0.352 A 
ATOM      3  O   UNL     1       9.780  -3.994  24.552  0.00  0.00    -0.244 OA
ATOM      4  N   UNL     1       8.118  -4.677  23.180  0.00  0.00    -0.175 NA
ATOM      5  C   UNL     1       7.004  -4.402  22.571  0.00  0.00    +0.159 A 
ATOM      6  N   UNL     1       6.415  -5.405  21.847  0.00  0.00    -0.341 N 
ATOM      7  H   UNL     1       7.044  -6.170  21.624  0.00  0.00    +0.144 HD
ATOM      8  H   UNL     1       5.798  -5.133  21.091  0.00  0.00    +0.144 HD
ATOM      9  C   UNL     1       6.387  -3.063  22.633  0.00  0.00    +0.179 A 
ATOM     10  F   UNL     1       5.233  -2.859  21.977  0.00  0.00    -0.200 F 
ATOM     11  C   UNL     1       7.026  -2.127  23.326  0.00  0.00    +0.135 A 
ENDROOT
BRANCH   1  16
ATOM     12  C   UNL     1       8.225  -0.143  25.218  0.00  0.00    +0.126 C 
ATOM     13  S   UNL     1       8.324   0.952  23.785  0.00  0.00    -0.123 S 
ATOM     14  C   UNL     1       9.818   0.124  23.191  0.00  0.00    +0.203 C 
ATOM     15  O   UNL     1      10.123  -0.989  24.048  0.00  0.00    -0.340 OA
ATOM     16  C   UNL     1       8.950  -1.417  24.768  0.00  0.00    +0.235 C 
BRANCH  14  17
ATOM     17  C   UNL     1       9.704  -0.387  21.748  0.00  0.00    +0.198 C 
BRANCH  17  18
ATOM     18  O   UNL     1      10.447  -1.603  21.603  0.00  0.00    -0.392 OA
ATOM     19  H   UNL     1      11.377  -1.337  21.444  0.00  0.00    +0.210 HD
ENDBRANCH  17  18
ENDBRANCH  14  17
ENDBRANCH   1  16
TORSDOF 3
ENDMDL
MODEL 2
REMARK VINA RESULT:      -5.5      2.874      4.866
REMARK  Name = 
REMARK  3 active torsions:
REMARK  status: ('A' for Active; 'I' for Inactive)
REMARK    1  A    between atoms: C_2  and  N_10
REMARK    2  A    between atoms: C_5  and  C_8
REMARK    3  A    between atoms: C_8  and  O_9
REMARK                            x       y       z     vdW  Elec       q    Type
REMARK                         _______ _______ _______ _____ _____    ______ ____
ROOT
ATOM      1  N   UNL     1       8.408  -2.365  23.898  0.00  0.00    -0.269 N 
ATOM      2  C   UNL     1       9.398  -1.801  23.065  0.00  0.00    +0.352 A 
ATOM      3  O   UNL     1       9.573  -2.211  21.920  0.00  0.00    -0.244 OA
ATOM      4  N   UNL     1      10.180  -0.776  23.558  0.00  0.00    -0.175 NA
ATOM      5  C   UNL     1       9.961  -0.297  24.746  0.00  0.00    +0.159 A 
ATOM      6  N   UNL     1      10.767   0.725  25.174  0.00  0.00    -0.341 N 
ATOM      7  H   UNL     1      11.628   0.813  24.645  0.00  0.00    +0.144 HD
ATOM      8  H   UNL     1      10.871   0.846  26.174  0.00  0.00    +0.144 HD
ATOM      9  C   UNL     1       8.897  -0.829  25.620  0.00  0.00    +0.179 A 
ATOM     10  F   UNL     1       8.732  -0.278  26.833  0.00  0.00    -0.200 F 
ATOM     11  C   UNL     1       8.172  -1.840  25.156  0.00  0.00    +0.135 A 
ENDROOT
BRANCH   1  16
ATOM     12  C   UNL     1       6.210  -3.729  23.875  0.00  0.00    +0.126 C 
ATOM     13  S   UNL     1       6.493  -4.713  25.364  0.00  0.00    -0.123 S 
ATOM     14  C   UNL     1       8.068  -5.327  24.721  0.00  0.00    +0.203 C 
ATOM     15  O   UNL     1       8.349  -4.699  23.459  0.00  0.00    -0.340 OA
ATOM     16  C   UNL     1       7.618  -3.463  23.328  0.00  0.00    +0.235 C 
BRANCH  14  17
ATOM     17  C   UNL     1       9.253  -5.080  25.664  0.00  0.00    +0.198 C 
BRANCH  17  18
ATOM     18  O   UNL     1      10.485  -5.228  24.947  0.00  0.00    -0.392 OA
ATOM     19  H   UNL     1      11.096  -4.555  25.313  0.00  0.00    +0.210 HD
ENDBRANCH  17  18
ENDBRANCH  14  17
ENDBRANCH   1  16
TORSDOF 3
ENDMDL
MODEL 3
REMARK VINA RESULT:      -5.4      2.791      3.672
REMARK  Name = 
REMARK  3 active torsions:
REMARK  status: ('A' for Active; 'I' for Inactive)
REMARK    1  A    between atoms: C_2  and  N_10
REMARK    2  A    between atoms: C_5  and  C_8
REMARK    3  A    between atoms: C_8  and  O_9
REMARK                            x       y       z     vdW  Elec       q    Type
REMARK                         _______ _______ _______ _____ _____    ______ ____
ROOT
ATOM      1  N   UNL     1       8.109  -3.115  23.980  0.00  0.00    -0.269 N 
ATOM      2  C   UNL     1       6.887  -3.552  24.536  0.00  0.00    +0.352 A 
ATOM      3  O   UNL     1       5.812  -3.128  24.118  0.00  0.00    -0.244 OA
ATOM      4  N   UNL     1       6.913  -4.466  25.569  0.00  0.00    -0.175 NA
ATOM      5  C   UNL     1       8.042  -4.964  25.975  0.00  0.00    +0.159 A 
ATOM      6  N   UNL     1       8.000  -5.873  27.000  0.00  0.00    -0.341 N 
ATOM      7  H   UNL     1       7.133  -5.853  27.527  0.00  0.00    +0.144 HD
ATOM      8  H   UNL     1       8.835  -5.976  27.564  0.00  0.00    +0.144 HD
ATOM      9  C   UNL     1       9.332  -4.569  25.377  0.00  0.00    +0.179 A 
ATOM     10  F   UNL     1      10.456  -5.132  25.851  0.00  0.00    -0.200 F 
ATOM     11  C   UNL     1       9.306  -3.660  24.409  0.00  0.00    +0.135 A 
ENDROOT
BRANCH   1  16
ATOM     12  C   UNL     1       9.291  -1.769  22.114  0.00  0.00    +0.126 C 
ATOM     13  S   UNL     1      10.118  -0.544  23.154  0.00  0.00    -0.123 S 
ATOM     14  C   UNL     1       8.550  -0.055  23.912  0.00  0.00    +0.203 C 
ATOM     15  O   UNL     1       7.494  -0.892  23.413  0.00  0.00    -0.340 OA
ATOM     16  C   UNL     1       8.022  -2.130  22.896  0.00  0.00    +0.235 C 
BRANCH  14  17
ATOM     17  C   UNL     1       8.558  -0.139  25.444  0.00  0.00    +0.198 C 
BRANCH  17  18
ATOM     18  O   UNL     1       9.885   0.084  25.936  0.00  0.00    -0.392 OA
ATOM     19  H   UNL     1       9.783   0.465  26.833  0.00  0.00    +0.210 HD
ENDBRANCH  17  18
ENDBRANCH  14  17
ENDBRANCH   1  16
TORSDOF 3
ENDMDL
MODEL 4
REMARK VINA RESULT:      -5.4      3.082      4.636
REMARK  Name = 
REMARK  3 active torsions:
REMARK  status: ('A' for Active; 'I' for Inactive)
REMARK    1  A    between atoms: C_2  and  N_10
REMARK    2  A    between atoms: C_5  and  C_8
REMARK    3  A    between atoms: C_8  and  O_9
REMARK                            x       y       z     vdW  Elec       q    Type
REMARK                         _______ _______ _______ _____ _____    ______ ____
ROOT
ATOM      1  N   UNL     1       9.476  -1.108  23.832  0.00  0.00    -0.269 N 
ATOM      2  C   UNL     1      10.004   0.076  24.390  0.00  0.00    +0.352 A 
ATOM      3  O   UNL     1      10.300   0.139  25.581  0.00  0.00    -0.244 OA
ATOM      4  N   UNL     1      10.179   1.176  23.576  0.00  0.00    -0.175 NA
ATOM      5  C   UNL     1       9.925   1.099  22.305  0.00  0.00    +0.159 A 
ATOM      6  N   UNL     1      10.127   2.224  21.550  0.00  0.00    -0.341 N 
ATOM      7  H   UNL     1      10.179   3.077  22.096  0.00  0.00    +0.144 HD
ATOM      8  H   UNL     1       9.600   2.307  20.688  0.00  0.00    +0.144 HD
ATOM      9  C   UNL     1       9.425  -0.142  21.681  0.00  0.00    +0.179 A 
ATOM     10  F   UNL     1       9.187  -0.142  20.359  0.00  0.00    -0.200 F 
ATOM     11  C   UNL     1       9.221  -1.187  22.475  0.00  0.00    +0.135 A 
ENDROOT
BRANCH   1  16
ATOM     12  C   UNL     1       9.004  -3.630  24.164  0.00  0.00    +0.126 C 
ATOM     13  S   UNL     1       7.226  -3.611  23.844  0.00  0.00    -0.123 S 
ATOM     14  C   UNL     1       6.957  -2.357  25.120  0.00  0.00    +0.203 C 
ATOM     15  O   UNL     1       8.222  -1.950  25.666  0.00  0.00    -0.340 OA
ATOM     16  C   UNL     1       9.295  -2.241  24.747  0.00  0.00    +0.235 C 
BRANCH  14  17
ATOM     17  C   UNL     1       6.220  -1.112  24.610  0.00  0.00    +0.198 C 
BRANCH  17  18
ATOM     18  O   UNL     1       5.943  -1.250  23.211  0.00  0.00    -0.392 OA
ATOM     19  H   UNL     1       6.067  -0.360  22.819  0.00  0.00    +0.210 HD
ENDBRANCH  17  18
ENDBRANCH  14  17
ENDBRANCH   1  16
TORSDOF 3
ENDMDL
MODEL 5
REMARK VINA RESULT:      -5.4      3.821      5.185
REMARK  Name = 
REMARK  3 active torsions:
REMARK  status: ('A' for Active; 'I' for Inactive)
REMARK    1  A    between atoms: C_2  and  N_10
REMARK    2  A    between atoms: C_5  and  C_8
REMARK    3  A    between atoms: C_8  and  O_9
REMARK                            x       y       z     vdW  Elec       q    Type
REMARK                         _______ _______ _______ _____ _____    ______ ____
ROOT
ATOM      1  N   UNL     1       6.653  -3.882  24.512  0.00  0.00    -0.269 N 
ATOM      2  C   UNL     1       7.775  -3.930  23.656  0.00  0.00    +0.352 A 
ATOM      3  O   UNL     1       7.759  -3.378  22.558  0.00  0.00    -0.244 OA
ATOM      4  N   UNL     1       8.899  -4.616  24.067  0.00  0.00    -0.175 NA
ATOM      5  C   UNL     1       8.945  -5.151  25.250  0.00  0.00    +0.159 A 
ATOM      6  N   UNL     1      10.092  -5.812  25.602  0.00  0.00    -0.341 N 
ATOM      7  H   UNL     1      10.675  -6.064  24.810  0.00  0.00    +0.144 HD
ATOM      8  H   UNL     1      10.016  -6.527  26.315  0.00  0.00    +0.144 HD
ATOM      9  C   UNL     1       7.809  -5.071  26.190  0.00  0.00    +0.179 A 
ATOM     10  F   UNL     1       7.935  -5.648  27.396  0.00  0.00    -0.200 F 
ATOM     11  C   UNL     1       6.715  -4.443  25.775  0.00  0.00    +0.135 A 
ENDROOT
BRANCH   1  16
ATOM     12  C   UNL     1       4.350  -2.809  24.995  0.00  0.00    +0.126 C 
ATOM     13  S   UNL     1       3.365  -4.321  25.085  0.00  0.00    -0.123 S 
ATOM     14  C   UNL     1       3.914  -4.837  23.440  0.00  0.00    +0.203 C 
ATOM     15  O   UNL     1       4.875  -3.894  22.937  0.00  0.00    -0.340 OA
ATOM     16  C   UNL     1       5.479  -3.154  24.016  0.00  0.00    +0.235 C 
BRANCH  14  17
ATOM     17  C   UNL     1       4.542  -6.237  23.415  0.00  0.00    +0.198 C 
BRANCH  17  18
ATOM     18  O   UNL     1       5.431  -6.351  22.297  0.00  0.00    -0.392 OA
ATOM     19  H   UNL     1       5.825  -7.246  22.352  0.00  0.00    +0.210 HD
ENDBRANCH  17  18
ENDBRANCH  14  17
ENDBRANCH   1  16
TORSDOF 3
ENDMDL
MODEL 6
REMARK VINA RESULT:      -5.3      2.762      3.359
REMARK  Name = 
REMARK  3 active torsions:
REMARK  status: ('A' for Active; 'I' for Inactive)
REMARK    1  A    between atoms: C_2  and  N_10
REMARK    2  A    between atoms: C_5  and  C_8
REMARK    3  A    between atoms: C_8  and  O_9
REMARK                            x       y       z     vdW  Elec       q    Type
REMARK                         _______ _______ _______ _____ _____    ______ ____
ROOT
ATOM      1  N   UNL     1       8.618  -3.121  25.261  0.00  0.00    -0.269 N 
ATOM      2  C   UNL     1       9.192  -4.408  25.338  0.00  0.00    +0.352 A 
ATOM      3  O   UNL     1      10.203  -4.692  24.699  0.00  0.00    -0.244 OA
ATOM      4  N   UNL     1       8.597  -5.357  26.143  0.00  0.00    -0.175 NA
ATOM      5  C   UNL     1       7.564  -5.047  26.868  0.00  0.00    +0.159 A 
ATOM      6  N   UNL     1       7.023  -6.032  27.652  0.00  0.00    -0.341 N 
ATOM      7  H   UNL     1       7.299  -6.969  27.377  0.00  0.00    +0.144 HD
ATOM      8  H   UNL     1       6.048  -5.938  27.910  0.00  0.00    +0.144 HD
ATOM      9  C   UNL     1       6.974  -3.694  26.852  0.00  0.00    +0.179 A 
ATOM     10  F   UNL     1       5.907  -3.452  27.631  0.00  0.00    -0.200 F 
ATOM     11  C   UNL     1       7.527  -2.795  26.046  0.00  0.00    +0.135 A 
ENDROOT
BRANCH   1  16
ATOM     12  C   UNL     1       8.885  -0.678  24.452  0.00  0.00    +0.126 C 
ATOM     13  S   UNL     1       7.392  -0.569  23.440  0.00  0.00    -0.123 S 
ATOM     14  C   UNL     1       7.884  -2.013  22.468  0.00  0.00    +0.203 C 
ATOM     15  O   UNL     1       9.100  -2.560  23.003  0.00  0.00    -0.340 OA
ATOM     16  C   UNL     1       9.283  -2.157  24.375  0.00  0.00    +0.235 C 
BRANCH  14  17
ATOM     17  C   UNL     1       6.822  -3.120  22.436  0.00  0.00    +0.198 C 
BRANCH  17  18
ATOM     18  O   UNL     1       7.452  -4.393  22.247  0.00  0.00    -0.392 OA
ATOM     19  H   UNL     1       6.836  -5.060  22.616  0.00  0.00    +0.210 HD
ENDBRANCH  17  18
ENDBRANCH  14  17
ENDBRANCH   1  16
TORSDOF 3
ENDMDL
MODEL 7
REMARK VINA RESULT:      -5.3      2.063      2.484
REMARK  Name = 
REMARK  3 active torsions:
REMARK  status: ('A' for Active; 'I' for Inactive)
REMARK    1  A    between atoms: C_2  and  N_10
REMARK    2  A    between atoms: C_5  and  C_8
REMARK    3  A    between atoms: C_8  and  O_9
REMARK                            x       y       z     vdW  Elec       q    Type
REMARK                         _______ _______ _______ _____ _____    ______ ____
ROOT
ATOM      1  N   UNL     1       8.762  -0.785  23.423  0.00  0.00    -0.269 N 
ATOM      2  C   UNL     1       8.809  -1.773  22.416  0.00  0.00    +0.352 A 
ATOM      3  O   UNL     1       9.843  -1.993  21.791  0.00  0.00    -0.244 OA
ATOM      4  N   UNL     1       7.666  -2.492  22.134  0.00  0.00    -0.175 NA
ATOM      5  C   UNL     1       6.585  -2.307  22.830  0.00  0.00    +0.159 A 
ATOM      6  N   UNL     1       5.486  -3.057  22.505  0.00  0.00    -0.341 N 
ATOM      7  H   UNL     1       5.535  -3.472  21.580  0.00  0.00    +0.144 HD
ATOM      8  H   UNL     1       4.578  -2.683  22.752  0.00  0.00    +0.144 HD
ATOM      9  C   UNL     1       6.521  -1.321  23.927  0.00  0.00    +0.179 A 
ATOM     10  F   UNL     1       5.367  -1.190  24.602  0.00  0.00    -0.200 F 
ATOM     11  C   UNL     1       7.611  -0.604  24.170  0.00  0.00    +0.135 A 
ENDROOT
BRANCH   1  16
ATOM     12  C   UNL     1      10.103   0.843  24.921  0.00  0.00    +0.126 C 
ATOM     13  S   UNL     1       9.280   2.379  24.447  0.00  0.00    -0.123 S 
ATOM     14  C   UNL     1       9.637   2.091  22.697  0.00  0.00    +0.203 C 
ATOM     15  O   UNL     1      10.280   0.815  22.543  0.00  0.00    -0.340 OA
ATOM     16  C   UNL     1      10.002  -0.039  23.670  0.00  0.00    +0.235 C 
BRANCH  14  17
ATOM     17  C   UNL     1       8.390   2.121  21.804  0.00  0.00    +0.198 C 
BRANCH  17  18
ATOM     18  O   UNL     1       8.587   1.276  20.664  0.00  0.00    -0.392 OA
ATOM     19  H   UNL     1       8.037   0.480  20.815  0.00  0.00    +0.210 HD
ENDBRANCH  17  18
ENDBRANCH  14  17
ENDBRANCH   1  16
TORSDOF 3
ENDMDL
MODEL 8
REMARK VINA RESULT:      -5.2      2.731      4.308
REMARK  Name = 
REMARK  3 active torsions:
REMARK  status: ('A' for Active; 'I' for Inactive)
REMARK    1  A    between atoms: C_2  and  N_10
REMARK    2  A    between atoms: C_5  and  C_8
REMARK    3  A    between atoms: C_8  and  O_9
REMARK                            x       y       z     vdW  Elec       q    Type
REMARK                         _______ _______ _______ _____ _____    ______ ____
ROOT
ATOM      1  N   UNL     1       8.455  -1.551  23.170  0.00  0.00    -0.269 N 
ATOM      2  C   UNL     1       9.754  -1.358  22.654  0.00  0.00    +0.352 A 
ATOM      3  O   UNL     1      10.597  -2.251  22.705  0.00  0.00    -0.244 OA
ATOM      4  N   UNL     1      10.073  -0.140  22.089  0.00  0.00    -0.175 NA
ATOM      5  C   UNL     1       9.171   0.788  21.977  0.00  0.00    +0.159 A 
ATOM      6  N   UNL     1       9.549   1.972  21.401  0.00  0.00    -0.341 N 
ATOM      7  H   UNL     1      10.554   2.112  21.380  0.00  0.00    +0.144 HD
ATOM      8  H   UNL     1       9.012   2.797  21.640  0.00  0.00    +0.144 HD
ATOM      9  C   UNL     1       7.788   0.597  22.457  0.00  0.00    +0.179 A 
ATOM     10  F   UNL     1       6.913   1.603  22.302  0.00  0.00    -0.200 F 
ATOM     11  C   UNL     1       7.496  -0.563  23.034  0.00  0.00    +0.135 A 
ENDROOT
BRANCH   1  16
ATOM     12  C   UNL     1       6.726  -3.231  24.107  0.00  0.00    +0.126 C 
ATOM     13  S   UNL     1       6.420  -2.437  25.701  0.00  0.00    -0.123 S 
ATOM     14  C   UNL     1       8.181  -2.467  26.111  0.00  0.00    +0.203 C 
ATOM     15  O   UNL     1       8.925  -2.992  24.999  0.00  0.00    -0.340 OA
ATOM     16  C   UNL     1       8.176  -2.859  23.774  0.00  0.00    +0.235 C 
BRANCH  14  17
ATOM     17  C   UNL     1       8.750  -1.088  26.472  0.00  0.00    +0.198 C 
BRANCH  17  18
ATOM     18  O   UNL     1       7.694  -0.120  26.506  0.00  0.00    -0.392 OA
ATOM     19  H   UNL     1       7.319  -0.094  25.601  0.00  0.00    +0.210 HD
ENDBRANCH  17  18
ENDBRANCH  14  17
ENDBRANCH   1  16
TORSDOF 3
ENDMDL
MODEL 9
REMARK VINA RESULT:      -5.2      2.299      3.167
REMARK  Name = 
REMARK  3 active torsions:
REMARK  status: ('A' for Active; 'I' for Inactive)
REMARK    1  A    between atoms: C_2  and  N_10
REMARK    2  A    between atoms: C_5  and  C_8
REMARK    3  A    between atoms: C_8  and  O_9
REMARK                            x       y       z     vdW  Elec       q    Type
REMARK                         _______ _______ _______ _____ _____    ______ ____
ROOT
ATOM      1  N   UNL     1       6.629  -2.813  23.043  0.00  0.00    -0.269 N 
ATOM      2  C   UNL     1       5.397  -3.067  23.681  0.00  0.00    +0.352 A 
ATOM      3  O   UNL     1       4.880  -2.232  24.420  0.00  0.00    -0.244 OA
ATOM      4  N   UNL     1       4.774  -4.280  23.470  0.00  0.00    -0.175 NA
ATOM      5  C   UNL     1       5.284  -5.144  22.644  0.00  0.00    +0.159 A 
ATOM      6  N   UNL     1       4.613  -6.326  22.472  0.00  0.00    -0.341 N 
ATOM      7  H   UNL     1       3.948  -6.529  23.211  0.00  0.00    +0.144 HD
ATOM      8  H   UNL     1       5.152  -7.125  22.159  0.00  0.00    +0.144 HD
ATOM      9  C   UNL     1       6.543  -4.884  21.919  0.00  0.00    +0.179 A 
ATOM     10  F   UNL     1       7.003  -5.827  21.080  0.00  0.00    -0.200 F 
ATOM     11  C   UNL     1       7.159  -3.732  22.155  0.00  0.00    +0.135 A 
ENDROOT
BRANCH   1  16
ATOM     12  C   UNL     1       8.445  -1.065  22.460  0.00  0.00    +0.126 C 
ATOM     13  S   UNL     1       9.865  -1.899  23.202  0.00  0.00    -0.123 S 
ATOM     14  C   UNL     1       9.035  -1.995  24.807  0.00  0.00    +0.203 C 
ATOM     15  O   UNL     1       7.700  -1.475  24.688  0.00  0.00    -0.340 OA
ATOM     16  C   UNL     1       7.255  -1.513  23.317  0.00  0.00    +0.235 C 
BRANCH  14  17
ATOM     17  C   UNL     1       8.956  -3.420  25.372  0.00  0.00    +0.198 C 
BRANCH  17  18
ATOM     18  O   UNL     1       9.733  -4.308  24.559  0.00  0.00    -0.392 OA
ATOM     19  H   UNL     1      10.236  -4.876  25.179  0.00  0.00    +0.210 HD
ENDBRANCH  17  18
ENDBRANCH  14  17
ENDBRANCH   1  16
TORSDOF 3
ENDMDL
