MODEL 1
REMARK VINA RESULT:      -5.5      0.000      0.000
REMARK  Name = 
REMARK  5 active torsions:
REMARK  status: ('A' for Active; 'I' for Inactive)
REMARK    1  A    between atoms: C_1  and  N_2
REMARK    2  A    between atoms: C_9  and  N_12
REMARK    3  A    between atoms: C_10  and  O_11
REMARK    4  A    between atoms: N_13  and  C_14
REMARK    5  A    between atoms: C_14  and  N_16
REMARK                            x       y       z     vdW  Elec       q    Type
REMARK                         _______ _______ _______ _____ _____    ______ ____
ROOT
ATOM      1  C   UNL     1       9.510  -3.070  24.224  0.00  0.00    +0.152 C 
ATOM      2  N   UNL     1       8.441  -3.988  24.549  0.00  0.00    -0.313 N 
ATOM      3  C   UNL     1       8.265  -4.528  25.801  0.00  0.00    +0.221 A 
ATOM      4  C   UNL     1       7.154  -5.336  25.744  0.00  0.00    +0.152 A 
ATOM      5  C   UNL     1       6.619  -5.287  24.428  0.00  0.00    +0.031 A 
ATOM      6  C   UNL     1       5.504  -5.867  23.782  0.00  0.00    +0.012 A 
ATOM      7  C   UNL     1       5.258  -5.592  22.433  0.00  0.00    +0.001 A 
ATOM      8  C   UNL     1       6.098  -4.742  21.722  0.00  0.00    +0.002 A 
ATOM      9  C   UNL     1       7.204  -4.147  22.335  0.00  0.00    +0.026 A 
ATOM     10  C   UNL     1       7.451  -4.431  23.690  0.00  0.00    +0.054 A 
ENDROOT
BRANCH   3  11
ATOM     11  O   UNL     1       9.094  -4.234  26.800  0.00  0.00    -0.492 OA
ATOM     12  H   UNL     1       9.991  -4.222  26.414  0.00  0.00    +0.294 HD
ENDBRANCH   3  11
BRANCH   4  13
ATOM     13  N   UNL     1       6.658  -6.008  26.869  0.00  0.00    -0.152 NA
ATOM     14  N   UNL     1       6.644  -5.319  27.909  0.00  0.00    -0.095 NA
BRANCH  14  15
ATOM     15  C   UNL     1       6.143  -5.983  29.007  0.00  0.00    +0.172 C 
ATOM     16  S   UNL     1       5.216  -5.442  30.300  0.00  0.00    -0.015 S 
BRANCH  15  17
ATOM     17  N   UNL     1       6.501  -7.302  29.021  0.00  0.00    -0.338 N 
ATOM     18  H   UNL     1       7.418  -7.569  29.351  0.00  0.00    +0.144 HD
ATOM     19  H   UNL     1       5.871  -8.007  28.664  0.00  0.00    +0.144 HD
ENDBRANCH  15  17
ENDBRANCH  14  15
ENDBRANCH   4  13
TORSDOF 4
ENDMDL
MODEL 2
REMARK VINA RESULT:      -5.4      4.059      5.878
REMARK  Name = 
REMARK  5 active torsions:
REMARK  status: ('A' for Active; 'I' for Inactive)
REMARK    1  A    between atoms: C_1  and  N_2
REMARK    2  A    between atoms: C_9  and  N_12
REMARK    3  A    between atoms: C_10  and  O_11
REMARK    4  A    between atoms: N_13  and  C_14
REMARK    5  A    between atoms: C_14  and  N_16
REMARK                            x       y       z     vdW  Elec       q    Type
REMARK                         _______ _______ _______ _____ _____    ______ ____
ROOT
ATOM      1  C   UNL     1       9.544  -4.442  25.172  0.00  0.00    +0.152 C 
ATOM      2  N   UNL     1       8.698  -3.711  24.254  0.00  0.00    -0.313 N 
ATOM      3  C   UNL     1       8.677  -2.340  24.177  0.00  0.00    +0.221 A 
ATOM      4  C   UNL     1       7.775  -2.000  23.197  0.00  0.00    +0.152 A 
ATOM      5  C   UNL     1       7.231  -3.191  22.642  0.00  0.00    +0.031 A 
ATOM      6  C   UNL     1       6.304  -3.480  21.617  0.00  0.00    +0.012 A 
ATOM      7  C   UNL     1       5.991  -4.809  21.314  0.00  0.00    +0.001 A 
ATOM      8  C   UNL     1       6.593  -5.851  22.009  0.00  0.00    +0.002 A 
ATOM      9  C   UNL     1       7.520  -5.597  23.024  0.00  0.00    +0.026 A 
ATOM     10  C   UNL     1       7.828  -4.259  23.328  0.00  0.00    +0.054 A 
ENDROOT
BRANCH   3  11
ATOM     11  O   UNL     1       9.446  -1.594  24.968  0.00  0.00    -0.492 OA
ATOM     12  H   UNL     1       8.931  -1.442  25.783  0.00  0.00    +0.294 HD
ENDBRANCH   3  11
BRANCH   4  13
ATOM     13  N   UNL     1       7.542  -0.670  22.821  0.00  0.00    -0.152 NA
ATOM     14  N   UNL     1       8.561  -0.064  22.435  0.00  0.00    -0.095 NA
BRANCH  14  15
ATOM     15  C   UNL     1       8.322   1.238  22.055  0.00  0.00    +0.172 C 
ATOM     16  S   UNL     1       6.967   2.215  22.244  0.00  0.00    -0.015 S 
BRANCH  15  17
ATOM     17  N   UNL     1       9.386   1.789  21.397  0.00  0.00    -0.338 N 
ATOM     18  H   UNL     1       9.992   2.439  21.879  0.00  0.00    +0.144 HD
ATOM     19  H   UNL     1       9.545   1.584  20.421  0.00  0.00    +0.144 HD
ENDBRANCH  15  17
ENDBRANCH  14  15
ENDBRANCH   4  13
TORSDOF 4
ENDMDL
MODEL 3
REMARK VINA RESULT:      -5.3      4.103      6.187
REMARK  Name = 
REMARK  5 active torsions:
REMARK  status: ('A' for Active; 'I' for Inactive)
REMARK    1  A    between atoms: C_1  and  N_2
REMARK    2  A    between atoms: C_9  and  N_12
REMARK    3  A    between atoms: C_10  and  O_11
REMARK    4  A    between atoms: N_13  and  C_14
REMARK    5  A    between atoms: C_14  and  N_16
REMARK                            x       y       z     vdW  Elec       q    Type
REMARK                         _______ _______ _______ _____ _____    ______ ____
ROOT
ATOM      1  C   UNL     1       4.552  -5.451  23.276  0.00  0.00    +0.152 C 
ATOM      2  N   UNL     1       5.808  -4.753  23.436  0.00  0.00    -0.313 N 
ATOM      3  C   UNL     1       6.335  -3.920  22.479  0.00  0.00    +0.221 A 
ATOM      4  C   UNL     1       7.518  -3.425  22.976  0.00  0.00    +0.152 A 
ATOM      5  C   UNL     1       7.725  -3.954  24.279  0.00  0.00    +0.031 A 
ATOM      6  C   UNL     1       8.717  -3.800  25.272  0.00  0.00    +0.012 A 
ATOM      7  C   UNL     1       8.602  -4.486  26.486  0.00  0.00    +0.001 A 
ATOM      8  C   UNL     1       7.511  -5.313  26.728  0.00  0.00    +0.002 A 
ATOM      9  C   UNL     1       6.509  -5.479  25.768  0.00  0.00    +0.026 A 
ATOM     10  C   UNL     1       6.631  -4.792  24.548  0.00  0.00    +0.054 A 
ENDROOT
BRANCH   3  11
ATOM     11  O   UNL     1       5.707  -3.715  21.323  0.00  0.00    -0.492 OA
ATOM     12  H   UNL     1       6.119  -4.323  20.680  0.00  0.00    +0.294 HD
ENDBRANCH   3  11
BRANCH   4  13
ATOM     13  N   UNL     1       8.298  -2.499  22.271  0.00  0.00    -0.152 NA
ATOM     14  N   UNL     1       8.128  -1.315  22.626  0.00  0.00    -0.095 NA
BRANCH  14  15
ATOM     15  C   UNL     1       8.907  -0.412  21.937  0.00  0.00    +0.172 C 
ATOM     16  S   UNL     1       8.771   1.253  21.752  0.00  0.00    -0.015 S 
BRANCH  15  17
ATOM     17  N   UNL     1       9.948  -1.016  21.290  0.00  0.00    -0.338 N 
ATOM     18  H   UNL     1      10.221  -1.955  21.546  0.00  0.00    +0.144 HD
ATOM     19  H   UNL     1      10.474  -0.516  20.587  0.00  0.00    +0.144 HD
ENDBRANCH  15  17
ENDBRANCH  14  15
ENDBRANCH   4  13
TORSDOF 4
ENDMDL
MODEL 4
REMARK VINA RESULT:      -5.2      3.641      4.827
REMARK  Name = 
REMARK  5 active torsions:
REMARK  status: ('A' for Active; 'I' for Inactive)
REMARK    1  A    between atoms: C_1  and  N_2
REMARK    2  A    between atoms: C_9  and  N_12
REMARK    3  A    between atoms: C_10  and  O_11
REMARK    4  A    between atoms: N_13  and  C_14
REMARK    5  A    between atoms: C_14  and  N_16
REMARK                            x       y       z     vdW  Elec       q    Type
REMARK                         _______ _______ _______ _____ _____    ______ ____
ROOT
ATOM      1  C   UNL     1       7.943  -2.619  22.232  0.00  0.00    +0.152 C 
ATOM      2  N   UNL     1       7.190  -3.536  23.058  0.00  0.00    -0.313 N 
ATOM      3  C   UNL     1       5.990  -4.085  22.673  0.00  0.00    +0.221 A 
ATOM      4  C   UNL     1       5.575  -4.911  23.691  0.00  0.00    +0.152 A 
ATOM      5  C   UNL     1       6.547  -4.884  24.729  0.00  0.00    +0.031 A 
ATOM      6  C   UNL     1       6.688  -5.524  25.980  0.00  0.00    +0.012 A 
ATOM      7  C   UNL     1       7.812  -5.267  26.772  0.00  0.00    +0.001 A 
ATOM      8  C   UNL     1       8.798  -4.391  26.334  0.00  0.00    +0.002 A 
ATOM      9  C   UNL     1       8.690  -3.749  25.097  0.00  0.00    +0.026 A 
ATOM     10  C   UNL     1       7.557  -4.007  24.306  0.00  0.00    +0.054 A 
ENDROOT
BRANCH   3  11
ATOM     11  O   UNL     1       5.441  -3.788  21.497  0.00  0.00    -0.492 OA
ATOM     12  H   UNL     1       5.751  -2.889  21.273  0.00  0.00    +0.294 HD
ENDBRANCH   3  11
BRANCH   4  13
ATOM     13  N   UNL     1       4.402  -5.674  23.607  0.00  0.00    -0.152 NA
ATOM     14  N   UNL     1       3.444  -5.078  23.074  0.00  0.00    -0.095 NA
BRANCH  14  15
ATOM     15  C   UNL     1       2.300  -5.838  22.984  0.00  0.00    +0.172 C 
ATOM     16  S   UNL     1       0.685  -5.443  23.234  0.00  0.00    -0.015 S 
BRANCH  15  17
ATOM     17  N   UNL     1       2.567  -7.137  22.649  0.00  0.00    -0.338 N 
ATOM     18  H   UNL     1       2.905  -7.776  23.355  0.00  0.00    +0.144 HD
ATOM     19  H   UNL     1       2.469  -7.450  21.695  0.00  0.00    +0.144 HD
ENDBRANCH  15  17
ENDBRANCH  14  15
ENDBRANCH   4  13
TORSDOF 4
ENDMDL
MODEL 5
REMARK VINA RESULT:      -5.1      3.638      5.282
REMARK  Name = 
REMARK  5 active torsions:
REMARK  status: ('A' for Active; 'I' for Inactive)
REMARK    1  A    between atoms: C_1  and  N_2
REMARK    2  A    between atoms: C_9  and  N_12
REMARK    3  A    between atoms: C_10  and  O_11
REMARK    4  A    between atoms: N_13  and  C_14
REMARK    5  A    between atoms: C_14  and  N_16
REMARK                            x       y       z     vdW  Elec       q    Type
REMARK                         _______ _______ _______ _____ _____    ______ ____
ROOT
ATOM      1  C   UNL     1       8.857  -0.827  26.834  0.00  0.00    +0.152 C 
ATOM      2  N   UNL     1       8.787  -1.362  25.492  0.00  0.00    -0.313 N 
ATOM      3  C   UNL     1       8.259  -2.596  25.199  0.00  0.00    +0.221 A 
ATOM      4  C   UNL     1       8.344  -2.763  23.837  0.00  0.00    +0.152 A 
ATOM      5  C   UNL     1       8.928  -1.598  23.268  0.00  0.00    +0.031 A 
ATOM      6  C   UNL     1       9.242  -1.179  21.956  0.00  0.00    +0.012 A 
ATOM      7  C   UNL     1       9.824   0.076  21.745  0.00  0.00    +0.001 A 
ATOM      8  C   UNL     1      10.087   0.920  22.817  0.00  0.00    +0.002 A 
ATOM      9  C   UNL     1       9.781   0.537  24.126  0.00  0.00    +0.026 A 
ATOM     10  C   UNL     1       9.201  -0.727  24.335  0.00  0.00    +0.054 A 
ENDROOT
BRANCH   3  11
ATOM     11  O   UNL     1       7.782  -3.387  26.158  0.00  0.00    -0.492 OA
ATOM     12  H   UNL     1       7.796  -2.857  26.978  0.00  0.00    +0.294 HD
ENDBRANCH   3  11
BRANCH   4  13
ATOM     13  N   UNL     1       7.847  -3.902  23.189  0.00  0.00    -0.152 NA
ATOM     14  N   UNL     1       6.648  -4.143  23.430  0.00  0.00    -0.095 NA
BRANCH  14  15
ATOM     15  C   UNL     1       6.163  -5.256  22.780  0.00  0.00    +0.172 C 
ATOM     16  S   UNL     1       6.273  -5.734  21.172  0.00  0.00    -0.015 S 
BRANCH  15  17
ATOM     17  N   UNL     1       5.462  -6.079  23.616  0.00  0.00    -0.338 N 
ATOM     18  H   UNL     1       4.458  -5.983  23.688  0.00  0.00    +0.144 HD
ATOM     19  H   UNL     1       5.944  -6.752  24.194  0.00  0.00    +0.144 HD
ENDBRANCH  15  17
ENDBRANCH  14  15
ENDBRANCH   4  13
TORSDOF 4
ENDMDL
MODEL 6
REMARK VINA RESULT:      -5.1      2.157      3.212
REMARK  Name = 
REMARK  5 active torsions:
REMARK  status: ('A' for Active; 'I' for Inactive)
REMARK    1  A    between atoms: C_1  and  N_2
REMARK    2  A    between atoms: C_9  and  N_12
REMARK    3  A    between atoms: C_10  and  O_11
REMARK    4  A    between atoms: N_13  and  C_14
REMARK    5  A    between atoms: C_14  and  N_16
REMARK                            x       y       z     vdW  Elec       q    Type
REMARK                         _______ _______ _______ _____ _____    ______ ____
ROOT
ATOM      1  C   UNL     1       5.738  -5.802  21.595  0.00  0.00    +0.152 C 
ATOM      2  N   UNL     1       6.086  -5.523  22.971  0.00  0.00    -0.313 N 
ATOM      3  C   UNL     1       5.577  -6.228  24.035  0.00  0.00    +0.221 A 
ATOM      4  C   UNL     1       6.134  -5.701  25.176  0.00  0.00    +0.152 A 
ATOM      5  C   UNL     1       7.021  -4.651  24.811  0.00  0.00    +0.031 A 
ATOM      6  C   UNL     1       7.875  -3.776  25.518  0.00  0.00    +0.012 A 
ATOM      7  C   UNL     1       8.640  -2.834  24.822  0.00  0.00    +0.001 A 
ATOM      8  C   UNL     1       8.573  -2.757  23.436  0.00  0.00    +0.002 A 
ATOM      9  C   UNL     1       7.742  -3.613  22.708  0.00  0.00    +0.026 A 
ATOM     10  C   UNL     1       6.972  -4.556  23.412  0.00  0.00    +0.054 A 
ENDROOT
BRANCH   3  11
ATOM     11  O   UNL     1       4.711  -7.222  23.852  0.00  0.00    -0.492 OA
ATOM     12  H   UNL     1       3.900  -6.812  23.495  0.00  0.00    +0.294 HD
ENDBRANCH   3  11
BRANCH   4  13
ATOM     13  N   UNL     1       5.868  -6.222  26.450  0.00  0.00    -0.152 NA
ATOM     14  N   UNL     1       4.653  -6.325  26.714  0.00  0.00    -0.095 NA
BRANCH  14  15
ATOM     15  C   UNL     1       4.400  -6.849  27.962  0.00  0.00    +0.172 C 
ATOM     16  S   UNL     1       3.022  -6.804  28.924  0.00  0.00    -0.015 S 
BRANCH  15  17
ATOM     17  N   UNL     1       5.488  -7.494  28.482  0.00  0.00    -0.338 N 
ATOM     18  H   UNL     1       5.793  -7.283  29.423  0.00  0.00    +0.144 HD
ATOM     19  H   UNL     1       6.013  -8.147  27.919  0.00  0.00    +0.144 HD
ENDBRANCH  15  17
ENDBRANCH  14  15
ENDBRANCH   4  13
TORSDOF 4
ENDMDL
MODEL 7
REMARK VINA RESULT:      -5.1      3.517      5.423
REMARK  Name = 
REMARK  5 active torsions:
REMARK  status: ('A' for Active; 'I' for Inactive)
REMARK    1  A    between atoms: C_1  and  N_2
REMARK    2  A    between atoms: C_9  and  N_12
REMARK    3  A    between atoms: C_10  and  O_11
REMARK    4  A    between atoms: N_13  and  C_14
REMARK    5  A    between atoms: C_14  and  N_16
REMARK                            x       y       z     vdW  Elec       q    Type
REMARK                         _______ _______ _______ _____ _____    ______ ____
ROOT
ATOM      1  C   UNL     1       6.895  -4.174  27.051  0.00  0.00    +0.152 C 
ATOM      2  N   UNL     1       7.127  -3.960  25.640  0.00  0.00    -0.313 N 
ATOM      3  C   UNL     1       7.994  -3.010  25.154  0.00  0.00    +0.221 A 
ATOM      4  C   UNL     1       7.970  -3.100  23.782  0.00  0.00    +0.152 A 
ATOM      5  C   UNL     1       7.076  -4.140  23.406  0.00  0.00    +0.031 A 
ATOM      6  C   UNL     1       6.663  -4.705  22.180  0.00  0.00    +0.012 A 
ATOM      7  C   UNL     1       5.743  -5.758  22.171  0.00  0.00    +0.001 A 
ATOM      8  C   UNL     1       5.237  -6.262  23.364  0.00  0.00    +0.002 A 
ATOM      9  C   UNL     1       5.633  -5.729  24.594  0.00  0.00    +0.026 A 
ATOM     10  C   UNL     1       6.554  -4.667  24.598  0.00  0.00    +0.054 A 
ENDROOT
BRANCH   3  11
ATOM     11  O   UNL     1       8.674  -2.213  25.976  0.00  0.00    -0.492 OA
ATOM     12  H   UNL     1       9.406  -1.841  25.448  0.00  0.00    +0.294 HD
ENDBRANCH   3  11
BRANCH   4  13
ATOM     13  N   UNL     1       8.782  -2.302  22.964  0.00  0.00    -0.152 NA
ATOM     14  N   UNL     1       8.555  -1.079  23.060  0.00  0.00    -0.095 NA
BRANCH  14  15
ATOM     15  C   UNL     1       9.365  -0.301  22.263  0.00  0.00    +0.172 C 
ATOM     16  S   UNL     1       9.841   1.305  22.401  0.00  0.00    -0.015 S 
BRANCH  15  17
ATOM     17  N   UNL     1       9.824  -0.983  21.171  0.00  0.00    -0.338 N 
ATOM     18  H   UNL     1       9.677  -0.605  20.245  0.00  0.00    +0.144 HD
ATOM     19  H   UNL     1      10.272  -1.882  21.280  0.00  0.00    +0.144 HD
ENDBRANCH  15  17
ENDBRANCH  14  15
ENDBRANCH   4  13
TORSDOF 4
ENDMDL
MODEL 8
REMARK VINA RESULT:      -5.0      6.954      9.358
REMARK  Name = 
REMARK  5 active torsions:
REMARK  status: ('A' for Active; 'I' for Inactive)
REMARK    1  A    between atoms: C_1  and  N_2
REMARK    2  A    between atoms: C_9  and  N_12
REMARK    3  A    between atoms: C_10  and  O_11
REMARK    4  A    between atoms: N_13  and  C_14
REMARK    5  A    between atoms: C_14  and  N_16
REMARK                            x       y       z     vdW  Elec       q    Type
REMARK                         _______ _______ _______ _____ _____    ______ ____
ROOT
ATOM      1  C   UNL     1       7.031   4.619  24.861  0.00  0.00    +0.152 C 
ATOM      2  N   UNL     1       8.221   3.904  24.458  0.00  0.00    -0.313 N 
ATOM      3  C   UNL     1       8.270   2.538  24.321  0.00  0.00    +0.221 A 
ATOM      4  C   UNL     1       9.543   2.213  23.915  0.00  0.00    +0.152 A 
ATOM      5  C   UNL     1      10.301   3.409  23.785  0.00  0.00    +0.031 A 
ATOM      6  C   UNL     1      11.622   3.714  23.391  0.00  0.00    +0.012 A 
ATOM      7  C   UNL     1      12.054   5.045  23.368  0.00  0.00    +0.001 A 
ATOM      8  C   UNL     1      11.189   6.073  23.722  0.00  0.00    +0.002 A 
ATOM      9  C   UNL     1       9.873   5.803  24.109  0.00  0.00    +0.026 A 
ATOM     10  C   UNL     1       9.444   4.464  24.136  0.00  0.00    +0.054 A 
ENDROOT
BRANCH   3  11
ATOM     11  O   UNL     1       7.201   1.782  24.566  0.00  0.00    -0.492 OA
ATOM     12  H   UNL     1       7.111   1.746  25.538  0.00  0.00    +0.294 HD
ENDBRANCH   3  11
BRANCH   4  13
ATOM     13  N   UNL     1       9.927   0.895  23.631  0.00  0.00    -0.152 NA
ATOM     14  N   UNL     1       9.131   0.282  22.892  0.00  0.00    -0.095 NA
BRANCH  14  15
ATOM     15  C   UNL     1       9.521  -1.008  22.608  0.00  0.00    +0.172 C 
ATOM     16  S   UNL     1       9.743  -2.343  23.604  0.00  0.00    -0.015 S 
BRANCH  15  17
ATOM     17  N   UNL     1       9.784  -1.187  21.278  0.00  0.00    -0.338 N 
ATOM     18  H   UNL     1       9.018  -1.272  20.623  0.00  0.00    +0.144 HD
ATOM     19  H   UNL     1      10.735  -1.279  20.952  0.00  0.00    +0.144 HD
ENDBRANCH  15  17
ENDBRANCH  14  15
ENDBRANCH   4  13
TORSDOF 4
ENDMDL
MODEL 9
REMARK VINA RESULT:      -5.0      3.068      4.596
REMARK  Name = 
REMARK  5 active torsions:
REMARK  status: ('A' for Active; 'I' for Inactive)
REMARK    1  A    between atoms: C_1  and  N_2
REMARK    2  A    between atoms: C_9  and  N_12
REMARK    3  A    between atoms: C_10  and  O_11
REMARK    4  A    between atoms: N_13  and  C_14
REMARK    5  A    between atoms: C_14  and  N_16
REMARK                            x       y       z     vdW  Elec       q    Type
REMARK                         _______ _______ _______ _____ _____    ______ ____
ROOT
ATOM      1  C   UNL     1      10.564  -1.505  22.556  0.00  0.00    +0.152 C 
ATOM      2  N   UNL     1       9.712  -1.432  23.722  0.00  0.00    -0.313 N 
ATOM      3  C   UNL     1       9.369  -2.529  24.476  0.00  0.00    +0.221 A 
ATOM      4  C   UNL     1       8.569  -2.084  25.502  0.00  0.00    +0.152 A 
ATOM      5  C   UNL     1       8.422  -0.674  25.391  0.00  0.00    +0.031 A 
ATOM      6  C   UNL     1       7.758   0.321  26.141  0.00  0.00    +0.012 A 
ATOM      7  C   UNL     1       7.828   1.660  25.741  0.00  0.00    +0.001 A 
ATOM      8  C   UNL     1       8.555   2.021  24.612  0.00  0.00    +0.002 A 
ATOM      9  C   UNL     1       9.229   1.060  23.854  0.00  0.00    +0.026 A 
ATOM     10  C   UNL     1       9.152  -0.285  24.257  0.00  0.00    +0.054 A 
ENDROOT
BRANCH   3  11
ATOM     11  O   UNL     1       9.805  -3.746  24.158  0.00  0.00    -0.492 OA
ATOM     12  H   UNL     1       9.039  -4.219  23.781  0.00  0.00    +0.294 HD
ENDBRANCH   3  11
BRANCH   4  13
ATOM     13  N   UNL     1       8.077  -2.943  26.495  0.00  0.00    -0.152 NA
ATOM     14  N   UNL     1       7.568  -3.992  26.054  0.00  0.00    -0.095 NA
BRANCH  14  15
ATOM     15  C   UNL     1       7.099  -4.836  27.036  0.00  0.00    +0.172 C 
ATOM     16  S   UNL     1       5.734  -4.748  28.013  0.00  0.00    -0.015 S 
BRANCH  15  17
ATOM     17  N   UNL     1       7.924  -5.908  27.234  0.00  0.00    -0.338 N 
ATOM     18  H   UNL     1       8.031  -6.600  26.505  0.00  0.00    +0.144 HD
ATOM     19  H   UNL     1       8.394  -6.035  28.119  0.00  0.00    +0.144 HD
ENDBRANCH  15  17
ENDBRANCH  14  15
ENDBRANCH   4  13
TORSDOF 4
ENDMDL
