MODEL 1
REMARK VINA RESULT:      -6.2      0.000      0.000
REMARK  Name = 
REMARK  4 active torsions:
REMARK  status: ('A' for Active; 'I' for Inactive)
REMARK    1  A    between atoms: C3*_2  and  O3*_20
REMARK    2  A    between atoms: C4*_4  and  C5*_18
REMARK    3  A    between atoms: C1*_7  and  N_9
REMARK    4  A    between atoms: C5*_18  and  O5*_19
REMARK                            x       y       z     vdW  Elec       q    Type
REMARK                         _______ _______ _______ _____ _____    ______ ____
ROOT
ATOM      1  C2* UNL     1       6.724  -2.556  23.122  0.00  0.00    +0.088 C 
ATOM      2  C1* UNL     1       7.913  -3.387  23.590  0.00  0.00    +0.226 C 
ATOM      3  O4* UNL     1       9.062  -2.518  23.689  0.00  0.00    -0.348 OA
ATOM      4  C4* UNL     1       8.665  -1.184  23.305  0.00  0.00    +0.175 C 
ATOM      5  C3* UNL     1       7.147  -1.150  23.468  0.00  0.00    +0.150 C 
ENDROOT
BRANCH   2   6
ATOM      6  N   UNL     1       7.674  -4.059  24.864  0.00  0.00    -0.273 N 
ATOM      7  C   UNL     1       8.537  -5.096  25.195  0.00  0.00    +0.331 A 
ATOM      8  O   UNL     1       9.476  -5.459  24.491  0.00  0.00    -0.246 OA
ATOM      9  N   UNL     1       8.281  -5.722  26.382  0.00  0.00    -0.274 N 
ATOM     10  H   UNL     1       8.907  -6.467  26.646  0.00  0.00    +0.173 HD
ATOM     11  C   UNL     1       7.250  -5.454  27.240  0.00  0.00    +0.267 A 
ATOM     12  O   UNL     1       7.116  -6.088  28.282  0.00  0.00    -0.267 OA
ATOM     13  C   UNL     1       6.320  -4.372  26.813  0.00  0.00    +0.094 A 
ATOM     14  I   UNL     1       4.702  -3.899  27.969  0.00  0.00    -0.037 I 
ATOM     15  C   UNL     1       6.586  -3.742  25.661  0.00  0.00    +0.113 A 
ENDBRANCH   2   6
BRANCH   5  16
ATOM     16  O3* UNL     1       6.484  -0.166  22.698  0.00  0.00    -0.389 OA
ATOM     17  H3* UNL     1       6.500  -0.448  21.763  0.00  0.00    +0.210 HD
ENDBRANCH   5  16
BRANCH   4  18
ATOM     18  C5* UNL     1       9.192  -0.888  21.895  0.00  0.00    +0.190 C 
BRANCH  18  19
ATOM     19  O5* UNL     1      10.370  -1.636  21.606  0.00  0.00    -0.392 OA
ATOM     20  H5* UNL     1      11.111  -1.001  21.638  0.00  0.00    +0.210 HD
ENDBRANCH  18  19
ENDBRANCH   4  18
TORSDOF 4
ENDMDL
MODEL 2
REMARK VINA RESULT:      -5.9      2.778      2.957
REMARK  Name = 
REMARK  4 active torsions:
REMARK  status: ('A' for Active; 'I' for Inactive)
REMARK    1  A    between atoms: C3*_2  and  O3*_20
REMARK    2  A    between atoms: C4*_4  and  C5*_18
REMARK    3  A    between atoms: C1*_7  and  N_9
REMARK    4  A    between atoms: C5*_18  and  O5*_19
REMARK                            x       y       z     vdW  Elec       q    Type
REMARK                         _______ _______ _______ _____ _____    ______ ____
ROOT
ATOM      1  C2* UNL     1       6.896  -2.400  22.633  0.00  0.00    +0.088 C 
ATOM      2  C1* UNL     1       7.477  -3.809  22.627  0.00  0.00    +0.226 C 
ATOM      3  O4* UNL     1       8.696  -3.800  23.400  0.00  0.00    -0.348 OA
ATOM      4  C4* UNL     1       8.921  -2.461  23.891  0.00  0.00    +0.175 C 
ATOM      5  C3* UNL     1       7.557  -1.776  23.837  0.00  0.00    +0.150 C 
ENDROOT
BRANCH   2   6
ATOM      6  N   UNL     1       6.552  -4.810  23.150  0.00  0.00    -0.273 N 
ATOM      7  C   UNL     1       5.815  -5.527  22.216  0.00  0.00    +0.331 A 
ATOM      8  O   UNL     1       5.908  -5.372  21.001  0.00  0.00    -0.246 OA
ATOM      9  N   UNL     1       4.941  -6.443  22.730  0.00  0.00    -0.274 N 
ATOM     10  H   UNL     1       4.409  -6.984  22.067  0.00  0.00    +0.173 HD
ATOM     11  C   UNL     1       4.701  -6.689  24.055  0.00  0.00    +0.267 A 
ATOM     12  O   UNL     1       3.886  -7.538  24.401  0.00  0.00    -0.267 OA
ATOM     13  C   UNL     1       5.475  -5.855  25.015  0.00  0.00    +0.094 A 
ATOM     14  I   UNL     1       5.181  -6.072  27.026  0.00  0.00    -0.037 I 
ATOM     15  C   UNL     1       6.350  -4.974  24.511  0.00  0.00    +0.113 A 
ENDBRANCH   2   6
BRANCH   5  16
ATOM     16  O3* UNL     1       7.597  -0.363  23.777  0.00  0.00    -0.389 OA
ATOM     17  H3* UNL     1       6.721  -0.045  23.485  0.00  0.00    +0.210 HD
ENDBRANCH   5  16
BRANCH   4  18
ATOM     18  C5* UNL     1      10.032  -1.800  23.065  0.00  0.00    +0.190 C 
BRANCH  18  19
ATOM     19  O5* UNL     1      10.443  -0.560  23.634  0.00  0.00    -0.392 OA
ATOM     20  H5* UNL     1      10.626   0.037  22.883  0.00  0.00    +0.210 HD
ENDBRANCH  18  19
ENDBRANCH   4  18
TORSDOF 4
ENDMDL
MODEL 3
REMARK VINA RESULT:      -5.8      3.741      5.649
REMARK  Name = 
REMARK  4 active torsions:
REMARK  status: ('A' for Active; 'I' for Inactive)
REMARK    1  A    between atoms: C3*_2  and  O3*_20
REMARK    2  A    between atoms: C4*_4  and  C5*_18
REMARK    3  A    between atoms: C1*_7  and  N_9
REMARK    4  A    between atoms: C5*_18  and  O5*_19
REMARK                            x       y       z     vdW  Elec       q    Type
REMARK                         _______ _______ _______ _____ _____    ______ ____
ROOT
ATOM      1  C2* UNL     1       6.371  -2.819  23.758  0.00  0.00    +0.088 C 
ATOM      2  C1* UNL     1       7.835  -2.917  23.346  0.00  0.00    +0.226 C 
ATOM      3  O4* UNL     1       7.938  -3.860  22.258  0.00  0.00    -0.348 OA
ATOM      4  C4* UNL     1       6.619  -4.368  21.963  0.00  0.00    +0.175 C 
ATOM      5  C3* UNL     1       5.650  -3.339  22.539  0.00  0.00    +0.150 C 
ENDROOT
BRANCH   2   6
ATOM      6  N   UNL     1       8.405  -1.630  22.957  0.00  0.00    -0.273 N 
ATOM      7  C   UNL     1       9.786  -1.576  22.816  0.00  0.00    +0.331 A 
ATOM      8  O   UNL     1      10.532  -2.536  22.987  0.00  0.00    -0.246 OA
ATOM      9  N   UNL     1      10.298  -0.357  22.471  0.00  0.00    -0.274 N 
ATOM     10  H   UNL     1      11.296  -0.302  22.349  0.00  0.00    +0.173 HD
ATOM     11  C   UNL     1       9.594   0.803  22.293  0.00  0.00    +0.267 A 
ATOM     12  O   UNL     1      10.163   1.846  21.987  0.00  0.00    -0.267 OA
ATOM     13  C   UNL     1       8.124   0.705  22.512  0.00  0.00    +0.094 A 
ATOM     14  I   UNL     1       6.951   2.369  22.335  0.00  0.00    -0.037 I 
ATOM     15  C   UNL     1       7.620  -0.496  22.825  0.00  0.00    +0.113 A 
ENDBRANCH   2   6
BRANCH   5  16
ATOM     16  O3* UNL     1       4.355  -3.830  22.828  0.00  0.00    -0.389 OA
ATOM     17  H3* UNL     1       3.702  -3.208  22.453  0.00  0.00    +0.210 HD
ENDBRANCH   5  16
BRANCH   4  18
ATOM     18  C5* UNL     1       6.490  -5.792  22.520  0.00  0.00    +0.190 C 
BRANCH  18  19
ATOM     19  O5* UNL     1       5.335  -6.453  22.011  0.00  0.00    -0.392 OA
ATOM     20  H5* UNL     1       4.666  -6.416  22.720  0.00  0.00    +0.210 HD
ENDBRANCH  18  19
ENDBRANCH   4  18
TORSDOF 4
ENDMDL
MODEL 4
REMARK VINA RESULT:      -5.8      3.159      3.866
REMARK  Name = 
REMARK  4 active torsions:
REMARK  status: ('A' for Active; 'I' for Inactive)
REMARK    1  A    between atoms: C3*_2  and  O3*_20
REMARK    2  A    between atoms: C4*_4  and  C5*_18
REMARK    3  A    between atoms: C1*_7  and  N_9
REMARK    4  A    between atoms: C5*_18  and  O5*_19
REMARK                            x       y       z     vdW  Elec       q    Type
REMARK                         _______ _______ _______ _____ _____    ______ ____
ROOT
ATOM      1  C2* UNL     1       9.799   0.467  22.340  0.00  0.00    +0.088 C 
ATOM      2  C1* UNL     1      10.253   0.021  23.724  0.00  0.00    +0.226 C 
ATOM      3  O4* UNL     1      10.231   1.169  24.600  0.00  0.00    -0.348 OA
ATOM      4  C4* UNL     1       9.793   2.318  23.843  0.00  0.00    +0.175 C 
ATOM      5  C3* UNL     1       9.057   1.749  22.632  0.00  0.00    +0.150 C 
ENDROOT
BRANCH   2   6
ATOM      6  N   UNL     1       9.431  -1.053  24.275  0.00  0.00    -0.273 N 
ATOM      7  C   UNL     1       9.756  -2.347  23.888  0.00  0.00    +0.331 A 
ATOM      8  O   UNL     1      10.683  -2.627  23.133  0.00  0.00    -0.246 OA
ATOM      9  N   UNL     1       8.961  -3.334  24.401  0.00  0.00    -0.274 N 
ATOM     10  H   UNL     1       9.191  -4.281  24.144  0.00  0.00    +0.173 HD
ATOM     11  C   UNL     1       7.873  -3.166  25.213  0.00  0.00    +0.267 A 
ATOM     12  O   UNL     1       7.228  -4.131  25.611  0.00  0.00    -0.267 OA
ATOM     13  C   UNL     1       7.534  -1.756  25.552  0.00  0.00    +0.094 A 
ATOM     14  I   UNL     1       5.901  -1.349  26.713  0.00  0.00    -0.037 I 
ATOM     15  C   UNL     1       8.328  -0.791  25.070  0.00  0.00    +0.113 A 
ENDBRANCH   2   6
BRANCH   5  16
ATOM     16  O3* UNL     1       8.982   2.613  21.515  0.00  0.00    -0.389 OA
ATOM     17  H3* UNL     1       8.644   3.477  21.821  0.00  0.00    +0.210 HD
ENDBRANCH   5  16
BRANCH   4  18
ATOM     18  C5* UNL     1      11.003   3.208  23.531  0.00  0.00    +0.190 C 
BRANCH  18  19
ATOM     19  O5* UNL     1      10.604   4.525  23.161  0.00  0.00    -0.392 OA
ATOM     20  H5* UNL     1      11.120   4.752  22.364  0.00  0.00    +0.210 HD
ENDBRANCH  18  19
ENDBRANCH   4  18
TORSDOF 4
ENDMDL
MODEL 5
REMARK VINA RESULT:      -5.8      2.931      5.924
REMARK  Name = 
REMARK  4 active torsions:
REMARK  status: ('A' for Active; 'I' for Inactive)
REMARK    1  A    between atoms: C3*_2  and  O3*_20
REMARK    2  A    between atoms: C4*_4  and  C5*_18
REMARK    3  A    between atoms: C1*_7  and  N_9
REMARK    4  A    between atoms: C5*_18  and  O5*_19
REMARK                            x       y       z     vdW  Elec       q    Type
REMARK                         _______ _______ _______ _____ _____    ______ ____
ROOT
ATOM      1  C2* UNL     1       8.827  -4.133  24.886  0.00  0.00    +0.088 C 
ATOM      2  C1* UNL     1       7.483  -3.556  24.460  0.00  0.00    +0.226 C 
ATOM      3  O4* UNL     1       6.587  -3.608  25.591  0.00  0.00    -0.348 OA
ATOM      4  C4* UNL     1       7.291  -4.191  26.709  0.00  0.00    +0.175 C 
ATOM      5  C3* UNL     1       8.774  -4.016  26.390  0.00  0.00    +0.150 C 
ENDROOT
BRANCH   2   6
ATOM      6  N   UNL     1       7.583  -2.190  23.954  0.00  0.00    -0.273 N 
ATOM      7  C   UNL     1       6.580  -1.770  23.088  0.00  0.00    +0.331 A 
ATOM      8  O   UNL     1       5.633  -2.471  22.743  0.00  0.00    -0.246 OA
ATOM      9  N   UNL     1       6.706  -0.496  22.612  0.00  0.00    -0.274 N 
ATOM     10  H   UNL     1       5.980  -0.168  21.995  0.00  0.00    +0.173 HD
ATOM     11  C   UNL     1       7.728   0.376  22.874  0.00  0.00    +0.267 A 
ATOM     12  O   UNL     1       7.737   1.502  22.385  0.00  0.00    -0.267 OA
ATOM     13  C   UNL     1       8.805  -0.141  23.762  0.00  0.00    +0.094 A 
ATOM     14  I   UNL     1      10.422   1.030  24.197  0.00  0.00    -0.037 I 
ATOM     15  C   UNL     1       8.669  -1.383  24.248  0.00  0.00    +0.113 A 
ENDBRANCH   2   6
BRANCH   5  16
ATOM     16  O3* UNL     1       9.640  -4.921  27.047  0.00  0.00    -0.389 OA
ATOM     17  H3* UNL     1       9.868  -4.546  27.920  0.00  0.00    +0.210 HD
ENDBRANCH   5  16
BRANCH   4  18
ATOM     18  C5* UNL     1       6.817  -5.636  26.906  0.00  0.00    +0.190 C 
BRANCH  18  19
ATOM     19  O5* UNL     1       7.444  -6.247  28.031  0.00  0.00    -0.392 OA
ATOM     20  H5* UNL     1       8.089  -6.884  27.670  0.00  0.00    +0.210 HD
ENDBRANCH  18  19
ENDBRANCH   4  18
TORSDOF 4
ENDMDL
MODEL 6
REMARK VINA RESULT:      -5.7      2.170      2.652
REMARK  Name = 
REMARK  4 active torsions:
REMARK  status: ('A' for Active; 'I' for Inactive)
REMARK    1  A    between atoms: C3*_2  and  O3*_20
REMARK    2  A    between atoms: C4*_4  and  C5*_18
REMARK    3  A    between atoms: C1*_7  and  N_9
REMARK    4  A    between atoms: C5*_18  and  O5*_19
REMARK                            x       y       z     vdW  Elec       q    Type
REMARK                         _______ _______ _______ _____ _____    ______ ____
ROOT
ATOM      1  C2* UNL     1       9.907  -2.245  23.748  0.00  0.00    +0.088 C 
ATOM      2  C1* UNL     1       8.731  -1.919  24.662  0.00  0.00    +0.226 C 
ATOM      3  O4* UNL     1       7.900  -0.941  24.001  0.00  0.00    -0.348 OA
ATOM      4  C4* UNL     1       8.489  -0.626  22.720  0.00  0.00    +0.175 C 
ATOM      5  C3* UNL     1       9.405  -1.804  22.395  0.00  0.00    +0.150 C 
ENDROOT
BRANCH   2   6
ATOM      6  N   UNL     1       7.944  -3.096  25.019  0.00  0.00    -0.273 N 
ATOM      7  C   UNL     1       8.189  -3.656  26.266  0.00  0.00    +0.331 A 
ATOM      8  O   UNL     1       9.008  -3.215  27.068  0.00  0.00    -0.246 OA
ATOM      9  N   UNL     1       7.455  -4.768  26.570  0.00  0.00    -0.274 N 
ATOM     10  H   UNL     1       7.608  -5.179  27.477  0.00  0.00    +0.173 HD
ATOM     11  C   UNL     1       6.545  -5.392  25.759  0.00  0.00    +0.267 A 
ATOM     12  O   UNL     1       5.945  -6.392  26.139  0.00  0.00    -0.267 OA
ATOM     13  C   UNL     1       6.361  -4.786  24.412  0.00  0.00    +0.094 A 
ATOM     14  I   UNL     1       5.075  -5.642  23.074  0.00  0.00    -0.037 I 
ATOM     15  C   UNL     1       7.063  -3.681  24.124  0.00  0.00    +0.113 A 
ENDBRANCH   2   6
BRANCH   5  16
ATOM     16  O3* UNL     1      10.447  -1.519  21.483  0.00  0.00    -0.389 OA
ATOM     17  H3* UNL     1      10.045  -1.247  20.635  0.00  0.00    +0.210 HD
ENDBRANCH   5  16
BRANCH   4  18
ATOM     18  C5* UNL     1       9.170   0.746  22.802  0.00  0.00    +0.190 C 
BRANCH  18  19
ATOM     19  O5* UNL     1       9.545   1.223  21.513  0.00  0.00    -0.392 OA
ATOM     20  H5* UNL     1       9.595   0.438  20.935  0.00  0.00    +0.210 HD
ENDBRANCH  18  19
ENDBRANCH   4  18
TORSDOF 4
ENDMDL
MODEL 7
REMARK VINA RESULT:      -5.6      3.395      5.810
REMARK  Name = 
REMARK  4 active torsions:
REMARK  status: ('A' for Active; 'I' for Inactive)
REMARK    1  A    between atoms: C3*_2  and  O3*_20
REMARK    2  A    between atoms: C4*_4  and  C5*_18
REMARK    3  A    between atoms: C1*_7  and  N_9
REMARK    4  A    between atoms: C5*_18  and  O5*_19
REMARK                            x       y       z     vdW  Elec       q    Type
REMARK                         _______ _______ _______ _____ _____    ______ ____
ROOT
ATOM      1  C2* UNL     1       6.920  -3.562  24.266  0.00  0.00    +0.088 C 
ATOM      2  C1* UNL     1       7.289  -2.409  25.191  0.00  0.00    +0.226 C 
ATOM      3  O4* UNL     1       8.649  -2.603  25.635  0.00  0.00    -0.348 OA
ATOM      4  C4* UNL     1       9.158  -3.818  25.045  0.00  0.00    +0.175 C 
ATOM      5  C3* UNL     1       8.268  -4.084  23.833  0.00  0.00    +0.150 C 
ENDROOT
BRANCH   2   6
ATOM      6  N   UNL     1       7.143  -1.101  24.559  0.00  0.00    -0.273 N 
ATOM      7  C   UNL     1       5.901  -0.489  24.672  0.00  0.00    +0.331 A 
ATOM      8  O   UNL     1       4.947  -0.977  25.272  0.00  0.00    -0.246 OA
ATOM      9  N   UNL     1       5.782   0.725  24.056  0.00  0.00    -0.274 N 
ATOM     10  H   UNL     1       4.893   1.192  24.140  0.00  0.00    +0.173 HD
ATOM     11  C   UNL     1       6.742   1.364  23.319  0.00  0.00    +0.267 A 
ATOM     12  O   UNL     1       6.520   2.456  22.805  0.00  0.00    -0.267 OA
ATOM     13  C   UNL     1       8.036   0.640  23.181  0.00  0.00    +0.094 A 
ATOM     14  I   UNL     1       9.544   1.447  22.063  0.00  0.00    -0.037 I 
ATOM     15  C   UNL     1       8.160  -0.539  23.806  0.00  0.00    +0.113 A 
ENDBRANCH   2   6
BRANCH   5  16
ATOM     16  O3* UNL     1       8.229  -5.430  23.401  0.00  0.00    -0.389 OA
ATOM     17  H3* UNL     1       9.047  -5.871  23.703  0.00  0.00    +0.210 HD
ENDBRANCH   5  16
BRANCH   4  18
ATOM     18  C5* UNL     1       9.185  -4.923  26.108  0.00  0.00    +0.190 C 
BRANCH  18  19
ATOM     19  O5* UNL     1       9.896  -6.072  25.654  0.00  0.00    -0.392 OA
ATOM     20  H5* UNL     1       9.478  -6.335  24.812  0.00  0.00    +0.210 HD
ENDBRANCH  18  19
ENDBRANCH   4  18
TORSDOF 4
ENDMDL
MODEL 8
REMARK VINA RESULT:      -5.6      2.898      5.707
REMARK  Name = 
REMARK  4 active torsions:
REMARK  status: ('A' for Active; 'I' for Inactive)
REMARK    1  A    between atoms: C3*_2  and  O3*_20
REMARK    2  A    between atoms: C4*_4  and  C5*_18
REMARK    3  A    between atoms: C1*_7  and  N_9
REMARK    4  A    between atoms: C5*_18  and  O5*_19
REMARK                            x       y       z     vdW  Elec       q    Type
REMARK                         _______ _______ _______ _____ _____    ______ ____
ROOT
ATOM      1  C2* UNL     1       9.447  -3.810  24.960  0.00  0.00    +0.088 C 
ATOM      2  C1* UNL     1       8.493  -3.036  24.058  0.00  0.00    +0.226 C 
ATOM      3  O4* UNL     1       7.163  -3.142  24.609  0.00  0.00    -0.348 OA
ATOM      4  C4* UNL     1       7.223  -3.946  25.807  0.00  0.00    +0.175 C 
ATOM      5  C3* UNL     1       8.681  -3.894  26.257  0.00  0.00    +0.150 C 
ENDROOT
BRANCH   2   6
ATOM      6  N   UNL     1       8.868  -1.633  23.903  0.00  0.00    -0.273 N 
ATOM      7  C   UNL     1       9.992  -1.370  23.129  0.00  0.00    +0.331 A 
ATOM      8  O   UNL     1      10.663  -2.236  22.575  0.00  0.00    -0.246 OA
ATOM      9  N   UNL     1      10.334  -0.052  23.015  0.00  0.00    -0.274 N 
ATOM     10  H   UNL     1      11.137   0.160  22.445  0.00  0.00    +0.173 HD
ATOM     11  C   UNL     1       9.708   1.009  23.610  0.00  0.00    +0.267 A 
ATOM     12  O   UNL     1      10.109   2.156  23.438  0.00  0.00    -0.267 OA
ATOM     13  C   UNL     1       8.544   0.668  24.474  0.00  0.00    +0.094 A 
ATOM     14  I   UNL     1       7.544   2.145  25.472  0.00  0.00    -0.037 I 
ATOM     15  C   UNL     1       8.193  -0.622  24.566  0.00  0.00    +0.113 A 
ENDBRANCH   2   6
BRANCH   5  16
ATOM     16  O3* UNL     1       9.094  -4.970  27.077  0.00  0.00    -0.389 OA
ATOM     17  H3* UNL     1      10.062  -4.908  27.197  0.00  0.00    +0.210 HD
ENDBRANCH   5  16
BRANCH   4  18
ATOM     18  C5* UNL     1       6.666  -5.343  25.506  0.00  0.00    +0.190 C 
BRANCH  18  19
ATOM     19  O5* UNL     1       6.527  -6.120  26.693  0.00  0.00    -0.392 OA
ATOM     20  H5* UNL     1       5.570  -6.275  26.806  0.00  0.00    +0.210 HD
ENDBRANCH  18  19
ENDBRANCH   4  18
TORSDOF 4
ENDMDL
MODEL 9
REMARK VINA RESULT:      -5.4      3.588      5.234
REMARK  Name = 
REMARK  4 active torsions:
REMARK  status: ('A' for Active; 'I' for Inactive)
REMARK    1  A    between atoms: C3*_2  and  O3*_20
REMARK    2  A    between atoms: C4*_4  and  C5*_18
REMARK    3  A    between atoms: C1*_7  and  N_9
REMARK    4  A    between atoms: C5*_18  and  O5*_19
REMARK                            x       y       z     vdW  Elec       q    Type
REMARK                         _______ _______ _______ _____ _____    ______ ____
ROOT
ATOM      1  C2* UNL     1       5.973  -2.601  23.504  0.00  0.00    +0.088 C 
ATOM      2  C1* UNL     1       7.173  -2.800  24.422  0.00  0.00    +0.226 C 
ATOM      3  O4* UNL     1       7.886  -3.978  23.987  0.00  0.00    -0.348 OA
ATOM      4  C4* UNL     1       7.199  -4.538  22.847  0.00  0.00    +0.175 C 
ATOM      5  C3* UNL     1       6.357  -3.396  22.281  0.00  0.00    +0.150 C 
ENDROOT
BRANCH   2   6
ATOM      6  N   UNL     1       8.068  -1.647  24.449  0.00  0.00    -0.273 N 
ATOM      7  C   UNL     1       8.702  -1.377  25.655  0.00  0.00    +0.331 A 
ATOM      8  O   UNL     1       8.558  -2.050  26.672  0.00  0.00    -0.246 OA
ATOM      9  N   UNL     1       9.518  -0.281  25.662  0.00  0.00    -0.274 N 
ATOM     10  H   UNL     1       9.999  -0.078  26.524  0.00  0.00    +0.173 HD
ATOM     11  C   UNL     1       9.736   0.581  24.621  0.00  0.00    +0.267 A 
ATOM     12  O   UNL     1      10.492   1.540  24.744  0.00  0.00    -0.267 OA
ATOM     13  C   UNL     1       8.990   0.280  23.368  0.00  0.00    +0.094 A 
ATOM     14  I   UNL     1       9.173   1.512  21.748  0.00  0.00    -0.037 I 
ATOM     15  C   UNL     1       8.208  -0.809  23.355  0.00  0.00    +0.113 A 
ENDBRANCH   2   6
BRANCH   5  16
ATOM     16  O3* UNL     1       5.243  -3.798  21.509  0.00  0.00    -0.389 OA
ATOM     17  H3* UNL     1       4.729  -4.447  22.029  0.00  0.00    +0.210 HD
ENDBRANCH   5  16
BRANCH   4  18
ATOM     18  C5* UNL     1       6.422  -5.784  23.288  0.00  0.00    +0.190 C 
BRANCH  18  19
ATOM     19  O5* UNL     1       6.010  -6.569  22.172  0.00  0.00    -0.392 OA
ATOM     20  H5* UNL     1       5.508  -5.969  21.587  0.00  0.00    +0.210 HD
ENDBRANCH  18  19
ENDBRANCH   4  18
TORSDOF 4
ENDMDL
