MODEL 1
REMARK VINA RESULT:      -7.0      0.000      0.000
REMARK  Name = 
REMARK  5 active torsions:
REMARK  status: ('A' for Active; 'I' for Inactive)
REMARK    1  A    between atoms: C_1  and  C_2
REMARK    2  A    between atoms: C_2  and  C_3
REMARK    3  A    between atoms: C_6  and  N_10
REMARK    4  A    between atoms: C_14  and  N_20
REMARK    5  A    between atoms: N_20  and  C_21
REMARK                            x       y       z     vdW  Elec       q    Type
REMARK                         _______ _______ _______ _____ _____    ______ ____
ROOT
ATOM      1  N   UNL     1       8.446  -1.821  23.239  0.00  0.00    -0.308 N 
ATOM      2  C   UNL     1       8.504  -2.993  23.949  0.00  0.00    +0.168 A 
ATOM      3  C   UNL     1       7.188  -3.405  24.069  0.00  0.00    +0.148 A 
ATOM      4  C   UNL     1       6.959  -4.606  24.763  0.00  0.00    +0.152 A 
ATOM      5  N   UNL     1       8.041  -5.257  25.271  0.00  0.00    -0.198 NA
ATOM      6  C   UNL     1       9.269  -4.745  25.090  0.00  0.00    +0.216 A 
ATOM      7  N   UNL     1      10.318  -5.483  25.606  0.00  0.00    -0.327 N 
ATOM      8  H   UNL     1      11.153  -5.322  25.061  0.00  0.00    +0.145 HD
ATOM      9  H   UNL     1      10.018  -6.442  25.718  0.00  0.00    +0.145 HD
ATOM     10  N   UNL     1       6.333  -2.510  23.460  0.00  0.00    -0.231 NA
ATOM     11  N   UNL     1       9.590  -3.624  24.424  0.00  0.00    -0.195 NA
ATOM     12  C   UNL     1       7.121  -1.575  22.971  0.00  0.00    +0.202 A 
ENDROOT
BRANCH   1  16
ATOM     13  C   UNL     1      10.578   1.208  23.101  0.00  0.00    +0.013 C 
ATOM     14  C   UNL     1       9.807   1.093  21.817  0.00  0.00    -0.026 C 
ATOM     15  C   UNL     1       9.258  -0.116  21.665  0.00  0.00    -0.006 C 
ATOM     16  C   UNL     1       9.581  -1.026  22.816  0.00  0.00    +0.113 C 
ATOM     17  C   UNL     1      10.114  -0.040  23.877  0.00  0.00    +0.037 C 
BRANCH  13  19
ATOM     18  C   UNL     1       8.959   2.584  24.525  0.00  0.00    +0.004 C 
ATOM     19  C   UNL     1      10.295   2.542  23.800  0.00  0.00    +0.004 C 
ENDBRANCH  13  19
ENDBRANCH   1  16
BRANCH   4  20
ATOM     20  N   UNL     1       5.654  -5.119  24.901  0.00  0.00    -0.324 N 
ATOM     21  H   UNL     1       5.447  -5.255  25.889  0.00  0.00    +0.148 HD
BRANCH  20  22
ATOM     22  C   UNL     1       5.162  -6.098  23.937  0.00  0.00    +0.072 C 
ATOM     23  C   UNL     1       3.825  -5.896  23.277  0.00  0.00    +0.024 C 
ATOM     24  C   UNL     1       4.010  -7.002  24.274  0.00  0.00    +0.024 C 
ENDBRANCH  20  22
ENDBRANCH   4  20
TORSDOF 4
ENDMDL
MODEL 2
REMARK VINA RESULT:      -6.3      1.793      2.388
REMARK  Name = 
REMARK  5 active torsions:
REMARK  status: ('A' for Active; 'I' for Inactive)
REMARK    1  A    between atoms: C_1  and  C_2
REMARK    2  A    between atoms: C_2  and  C_3
REMARK    3  A    between atoms: C_6  and  N_10
REMARK    4  A    between atoms: C_14  and  N_20
REMARK    5  A    between atoms: N_20  and  C_21
REMARK                            x       y       z     vdW  Elec       q    Type
REMARK                         _______ _______ _______ _____ _____    ______ ____
ROOT
ATOM      1  N   UNL     1       6.974  -2.818  22.966  0.00  0.00    -0.308 N 
ATOM      2  C   UNL     1       6.716  -3.867  23.812  0.00  0.00    +0.168 A 
ATOM      3  C   UNL     1       5.712  -4.590  23.191  0.00  0.00    +0.148 A 
ATOM      4  C   UNL     1       5.254  -5.741  23.855  0.00  0.00    +0.152 A 
ATOM      5  N   UNL     1       5.820  -6.044  25.055  0.00  0.00    -0.198 NA
ATOM      6  C   UNL     1       6.784  -5.252  25.553  0.00  0.00    +0.216 A 
ATOM      7  N   UNL     1       7.333  -5.647  26.759  0.00  0.00    -0.327 N 
ATOM      8  H   UNL     1       8.288  -5.327  26.823  0.00  0.00    +0.145 HD
ATOM      9  H   UNL     1       7.167  -6.636  26.884  0.00  0.00    +0.145 HD
ATOM     10  N   UNL     1       5.347  -4.003  21.997  0.00  0.00    -0.231 NA
ATOM     11  N   UNL     1       7.304  -4.152  24.985  0.00  0.00    -0.195 NA
ATOM     12  C   UNL     1       6.125  -2.945  21.893  0.00  0.00    +0.202 A 
ENDROOT
BRANCH   1  16
ATOM     13  C   UNL     1       8.594   0.470  22.423  0.00  0.00    +0.013 C 
ATOM     14  C   UNL     1       9.376  -0.586  21.695  0.00  0.00    -0.026 C 
ATOM     15  C   UNL     1       9.040  -1.819  22.086  0.00  0.00    -0.006 C 
ATOM     16  C   UNL     1       7.987  -1.801  23.156  0.00  0.00    +0.113 C 
ATOM     17  C   UNL     1       7.469  -0.348  23.085  0.00  0.00    +0.037 C 
BRANCH  13  19
ATOM     18  C   UNL     1       7.700   2.853  22.157  0.00  0.00    +0.004 C 
ATOM     19  C   UNL     1       8.114   1.564  21.463  0.00  0.00    +0.004 C 
ENDBRANCH  13  19
ENDBRANCH   1  16
BRANCH   4  20
ATOM     20  N   UNL     1       4.260  -6.556  23.279  0.00  0.00    -0.324 N 
ATOM     21  H   UNL     1       4.436  -6.651  22.280  0.00  0.00    +0.148 HD
BRANCH  20  22
ATOM     22  C   UNL     1       2.882  -6.444  23.744  0.00  0.00    +0.072 C 
ATOM     23  C   UNL     1       1.744  -6.648  22.781  0.00  0.00    +0.024 C 
ATOM     24  C   UNL     1       2.021  -5.281  23.337  0.00  0.00    +0.024 C 
ENDBRANCH  20  22
ENDBRANCH   4  20
TORSDOF 4
ENDMDL
MODEL 3
REMARK VINA RESULT:      -6.2      1.352      6.863
REMARK  Name = 
REMARK  5 active torsions:
REMARK  status: ('A' for Active; 'I' for Inactive)
REMARK    1  A    between atoms: C_1  and  C_2
REMARK    2  A    between atoms: C_2  and  C_3
REMARK    3  A    between atoms: C_6  and  N_10
REMARK    4  A    between atoms: C_14  and  N_20
REMARK    5  A    between atoms: N_20  and  C_21
REMARK                            x       y       z     vdW  Elec       q    Type
REMARK                         _______ _______ _______ _____ _____    ______ ____
ROOT
ATOM      1  N   UNL     1       5.848  -4.163  24.043  0.00  0.00    -0.308 N 
ATOM      2  C   UNL     1       7.201  -4.155  24.268  0.00  0.00    +0.168 A 
ATOM      3  C   UNL     1       7.682  -3.086  23.532  0.00  0.00    +0.148 A 
ATOM      4  C   UNL     1       9.065  -2.845  23.590  0.00  0.00    +0.152 A 
ATOM      5  N   UNL     1       9.820  -3.685  24.349  0.00  0.00    -0.198 NA
ATOM      6  C   UNL     1       9.229  -4.693  25.011  0.00  0.00    +0.216 A 
ATOM      7  N   UNL     1      10.060  -5.480  25.788  0.00  0.00    -0.327 N 
ATOM      8  H   UNL     1       9.543  -5.862  26.566  0.00  0.00    +0.145 HD
ATOM      9  H   UNL     1      10.898  -4.956  26.003  0.00  0.00    +0.145 HD
ATOM     10  N   UNL     1       6.659  -2.452  22.858  0.00  0.00    -0.231 NA
ATOM     11  N   UNL     1       7.920  -4.987  25.039  0.00  0.00    -0.195 NA
ATOM     12  C   UNL     1       5.574  -3.122  23.189  0.00  0.00    +0.202 A 
ENDROOT
BRANCH   1  16
ATOM     13  C   UNL     1       2.881  -6.383  24.084  0.00  0.00    +0.013 C 
ATOM     14  C   UNL     1       2.543  -5.103  24.793  0.00  0.00    -0.026 C 
ATOM     15  C   UNL     1       3.634  -4.388  25.086  0.00  0.00    -0.006 C 
ATOM     16  C   UNL     1       4.892  -5.074  24.638  0.00  0.00    +0.113 C 
ATOM     17  C   UNL     1       4.353  -6.162  23.684  0.00  0.00    +0.037 C 
BRANCH  13  19
ATOM     18  C   UNL     1       0.856  -5.566  22.749  0.00  0.00    +0.004 C 
ATOM     19  C   UNL     1       1.927  -6.634  22.911  0.00  0.00    +0.004 C 
ENDBRANCH  13  19
ENDBRANCH   1  16
BRANCH   4  20
ATOM     20  N   UNL     1       9.635  -1.757  22.900  0.00  0.00    -0.324 N 
ATOM     21  H   UNL     1      10.531  -2.037  22.505  0.00  0.00    +0.148 HD
BRANCH  20  22
ATOM     22  C   UNL     1       9.497  -0.410  23.446  0.00  0.00    +0.072 C 
ATOM     23  C   UNL     1      10.034   0.769  22.682  0.00  0.00    +0.024 C 
ATOM     24  C   UNL     1      10.692   0.341  23.961  0.00  0.00    +0.024 C 
ENDBRANCH  20  22
ENDBRANCH   4  20
TORSDOF 4
ENDMDL
MODEL 4
REMARK VINA RESULT:      -6.2      1.882      2.694
REMARK  Name = 
REMARK  5 active torsions:
REMARK  status: ('A' for Active; 'I' for Inactive)
REMARK    1  A    between atoms: C_1  and  C_2
REMARK    2  A    between atoms: C_2  and  C_3
REMARK    3  A    between atoms: C_6  and  N_10
REMARK    4  A    between atoms: C_14  and  N_20
REMARK    5  A    between atoms: N_20  and  C_21
REMARK                            x       y       z     vdW  Elec       q    Type
REMARK                         _______ _______ _______ _____ _____    ______ ____
ROOT
ATOM      1  N   UNL     1       8.578  -1.794  23.480  0.00  0.00    -0.308 N 
ATOM      2  C   UNL     1       8.017  -3.038  23.337  0.00  0.00    +0.168 A 
ATOM      3  C   UNL     1       8.070  -3.602  24.600  0.00  0.00    +0.148 A 
ATOM      4  C   UNL     1       7.546  -4.899  24.738  0.00  0.00    +0.152 A 
ATOM      5  N   UNL     1       7.045  -5.499  23.624  0.00  0.00    -0.198 NA
ATOM      6  C   UNL     1       7.060  -4.842  22.452  0.00  0.00    +0.216 A 
ATOM      7  N   UNL     1       6.501  -5.506  21.376  0.00  0.00    -0.327 N 
ATOM      8  H   UNL     1       6.130  -4.838  20.716  0.00  0.00    +0.145 HD
ATOM      9  H   UNL     1       5.868  -6.214  21.722  0.00  0.00    +0.145 HD
ATOM     10  N   UNL     1       8.656  -2.740  25.502  0.00  0.00    -0.231 NA
ATOM     11  N   UNL     1       7.513  -3.599  22.226  0.00  0.00    -0.195 NA
ATOM     12  C   UNL     1       8.946  -1.665  24.797  0.00  0.00    +0.202 A 
ENDROOT
BRANCH   1  16
ATOM     13  C   UNL     1       9.702   1.418  22.011  0.00  0.00    +0.013 C 
ATOM     14  C   UNL     1       8.235   1.508  22.319  0.00  0.00    -0.026 C 
ATOM     15  C   UNL     1       7.697   0.308  22.561  0.00  0.00    -0.006 C 
ATOM     16  C   UNL     1       8.708  -0.795  22.440  0.00  0.00    +0.113 C 
ATOM     17  C   UNL     1      10.044  -0.020  22.448  0.00  0.00    +0.037 C 
BRANCH  13  19
ATOM     18  C   UNL     1       9.698   3.219  23.829  0.00  0.00    +0.004 C 
ATOM     19  C   UNL     1      10.489   2.514  22.737  0.00  0.00    +0.004 C 
ENDBRANCH  13  19
ENDBRANCH   1  16
BRANCH   4  20
ATOM     20  N   UNL     1       7.525  -5.537  25.994  0.00  0.00    -0.324 N 
ATOM     21  H   UNL     1       8.118  -6.365  25.963  0.00  0.00    +0.148 HD
BRANCH  20  22
ATOM     22  C   UNL     1       6.279  -5.589  26.751  0.00  0.00    +0.072 C 
ATOM     23  C   UNL     1       5.963  -4.513  27.753  0.00  0.00    +0.024 C 
ATOM     24  C   UNL     1       6.281  -5.903  28.221  0.00  0.00    +0.024 C 
ENDBRANCH  20  22
ENDBRANCH   4  20
TORSDOF 4
ENDMDL
MODEL 5
REMARK VINA RESULT:      -6.1      2.065      3.390
REMARK  Name = 
REMARK  5 active torsions:
REMARK  status: ('A' for Active; 'I' for Inactive)
REMARK    1  A    between atoms: C_1  and  C_2
REMARK    2  A    between atoms: C_2  and  C_3
REMARK    3  A    between atoms: C_6  and  N_10
REMARK    4  A    between atoms: C_14  and  N_20
REMARK    5  A    between atoms: N_20  and  C_21
REMARK                            x       y       z     vdW  Elec       q    Type
REMARK                         _______ _______ _______ _____ _____    ______ ____
ROOT
ATOM      1  N   UNL     1       9.547   0.325  22.614  0.00  0.00    -0.308 N 
ATOM      2  C   UNL     1       9.269  -0.288  23.809  0.00  0.00    +0.168 A 
ATOM      3  C   UNL     1       9.366  -1.644  23.547  0.00  0.00    +0.148 A 
ATOM      4  C   UNL     1       9.129  -2.517  24.623  0.00  0.00    +0.152 A 
ATOM      5  N   UNL     1       8.811  -1.965  25.825  0.00  0.00    -0.198 NA
ATOM      6  C   UNL     1       8.742  -0.628  25.945  0.00  0.00    +0.216 A 
ATOM      7  N   UNL     1       8.448  -0.145  27.206  0.00  0.00    -0.327 N 
ATOM      8  H   UNL     1       8.861   0.768  27.329  0.00  0.00    +0.145 HD
ATOM      9  H   UNL     1       8.681  -0.853  27.889  0.00  0.00    +0.145 HD
ATOM     10  N   UNL     1       9.684  -1.870  22.224  0.00  0.00    -0.231 NA
ATOM     11  N   UNL     1       8.975   0.284  24.988  0.00  0.00    -0.195 NA
ATOM     12  C   UNL     1       9.788  -0.667  21.695  0.00  0.00    +0.202 A 
ENDROOT
BRANCH   1  16
ATOM     13  C   UNL     1       9.301   3.904  23.546  0.00  0.00    +0.013 C 
ATOM     14  C   UNL     1       8.111   3.534  22.708  0.00  0.00    -0.026 C 
ATOM     15  C   UNL     1       8.278   2.363  22.085  0.00  0.00    -0.006 C 
ATOM     16  C   UNL     1       9.617   1.754  22.387  0.00  0.00    +0.113 C 
ATOM     17  C   UNL     1      10.090   2.581  23.602  0.00  0.00    +0.037 C 
BRANCH  13  19
ATOM     18  C   UNL     1       7.817   3.604  25.609  0.00  0.00    +0.004 C 
ATOM     19  C   UNL     1       8.869   4.452  24.911  0.00  0.00    +0.004 C 
ENDBRANCH  13  19
ENDBRANCH   1  16
BRANCH   4  20
ATOM     20  N   UNL     1       9.241  -3.911  24.456  0.00  0.00    -0.324 N 
ATOM     21  H   UNL     1      10.011  -4.116  23.821  0.00  0.00    +0.148 HD
BRANCH  20  22
ATOM     22  C   UNL     1       8.031  -4.724  24.380  0.00  0.00    +0.072 C 
ATOM     23  C   UNL     1       7.657  -5.397  23.088  0.00  0.00    +0.024 C 
ATOM     24  C   UNL     1       6.832  -4.255  23.606  0.00  0.00    +0.024 C 
ENDBRANCH  20  22
ENDBRANCH   4  20
TORSDOF 4
ENDMDL
MODEL 6
REMARK VINA RESULT:      -6.1      1.928      2.788
REMARK  Name = 
REMARK  5 active torsions:
REMARK  status: ('A' for Active; 'I' for Inactive)
REMARK    1  A    between atoms: C_1  and  C_2
REMARK    2  A    between atoms: C_2  and  C_3
REMARK    3  A    between atoms: C_6  and  N_10
REMARK    4  A    between atoms: C_14  and  N_20
REMARK    5  A    between atoms: N_20  and  C_21
REMARK                            x       y       z     vdW  Elec       q    Type
REMARK                         _______ _______ _______ _____ _____    ______ ____
ROOT
ATOM      1  N   UNL     1       9.523  -0.938  24.271  0.00  0.00    -0.308 N 
ATOM      2  C   UNL     1       8.615  -1.830  24.781  0.00  0.00    +0.168 A 
ATOM      3  C   UNL     1       8.718  -2.948  23.972  0.00  0.00    +0.148 A 
ATOM      4  C   UNL     1       7.884  -4.036  24.282  0.00  0.00    +0.152 A 
ATOM      5  N   UNL     1       7.036  -3.899  25.338  0.00  0.00    -0.198 NA
ATOM      6  C   UNL     1       7.029  -2.754  26.041  0.00  0.00    +0.216 A 
ATOM      7  N   UNL     1       6.165  -2.707  27.119  0.00  0.00    -0.327 N 
ATOM      8  H   UNL     1       6.531  -2.084  27.825  0.00  0.00    +0.145 HD
ATOM      9  H   UNL     1       5.949  -3.652  27.405  0.00  0.00    +0.145 HD
ATOM     10  N   UNL     1       9.656  -2.755  22.979  0.00  0.00    -0.231 NA
ATOM     11  N   UNL     1       7.802  -1.675  25.838  0.00  0.00    -0.195 NA
ATOM     12  C   UNL     1      10.121  -1.540  23.190  0.00  0.00    +0.202 A 
ENDROOT
BRANCH   1  16
ATOM     13  C   UNL     1       9.386   2.764  24.406  0.00  0.00    +0.013 C 
ATOM     14  C   UNL     1      10.735   2.343  23.899  0.00  0.00    -0.026 C 
ATOM     15  C   UNL     1      10.969   1.044  24.109  0.00  0.00    -0.006 C 
ATOM     16  C   UNL     1       9.822   0.373  24.809  0.00  0.00    +0.113 C 
ATOM     17  C   UNL     1       8.689   1.411  24.656  0.00  0.00    +0.037 C 
BRANCH  13  19
ATOM     18  C   UNL     1       8.964   5.156  23.603  0.00  0.00    +0.004 C 
ATOM     19  C   UNL     1       8.675   3.676  23.401  0.00  0.00    +0.004 C 
ENDBRANCH  13  19
ENDBRANCH   1  16
BRANCH   4  20
ATOM     20  N   UNL     1       7.947  -5.228  23.535  0.00  0.00    -0.324 N 
ATOM     21  H   UNL     1       8.866  -5.308  23.102  0.00  0.00    +0.148 HD
BRANCH  20  22
ATOM     22  C   UNL     1       6.775  -5.668  22.785  0.00  0.00    +0.072 C 
ATOM     23  C   UNL     1       6.882  -5.932  21.308  0.00  0.00    +0.024 C 
ATOM     24  C   UNL     1       6.096  -4.753  21.805  0.00  0.00    +0.024 C 
ENDBRANCH  20  22
ENDBRANCH   4  20
TORSDOF 4
ENDMDL
MODEL 7
REMARK VINA RESULT:      -6.0      2.124      2.310
REMARK  Name = 
REMARK  5 active torsions:
REMARK  status: ('A' for Active; 'I' for Inactive)
REMARK    1  A    between atoms: C_1  and  C_2
REMARK    2  A    between atoms: C_2  and  C_3
REMARK    3  A    between atoms: C_6  and  N_10
REMARK    4  A    between atoms: C_14  and  N_20
REMARK    5  A    between atoms: N_20  and  C_21
REMARK                            x       y       z     vdW  Elec       q    Type
REMARK                         _______ _______ _______ _____ _____    ______ ____
ROOT
ATOM      1  N   UNL     1       8.753  -1.596  24.938  0.00  0.00    -0.308 N 
ATOM      2  C   UNL     1       8.646  -2.887  25.389  0.00  0.00    +0.168 A 
ATOM      3  C   UNL     1       7.536  -2.887  26.216  0.00  0.00    +0.148 A 
ATOM      4  C   UNL     1       7.192  -4.109  26.818  0.00  0.00    +0.152 A 
ATOM      5  N   UNL     1       7.980  -5.186  26.553  0.00  0.00    -0.198 NA
ATOM      6  C   UNL     1       9.038  -5.051  25.735  0.00  0.00    +0.216 A 
ATOM      7  N   UNL     1       9.767  -6.199  25.489  0.00  0.00    -0.327 N 
ATOM      8  H   UNL     1      10.195  -6.145  24.576  0.00  0.00    +0.145 HD
ATOM      9  H   UNL     1       9.185  -7.003  25.678  0.00  0.00    +0.145 HD
ATOM     10  N   UNL     1       6.974  -1.629  26.287  0.00  0.00    -0.231 NA
ATOM     11  N   UNL     1       9.430  -3.937  25.096  0.00  0.00    -0.195 NA
ATOM     12  C   UNL     1       7.727  -0.881  25.507  0.00  0.00    +0.202 A 
ENDROOT
BRANCH   1  16
ATOM     13  C   UNL     1      10.150   0.763  22.443  0.00  0.00    +0.013 C 
ATOM     14  C   UNL     1       9.664  -0.468  21.733  0.00  0.00    -0.026 C 
ATOM     15  C   UNL     1       9.433  -1.478  22.578  0.00  0.00    -0.006 C 
ATOM     16  C   UNL     1       9.740  -1.102  23.999  0.00  0.00    +0.113 C 
ATOM     17  C   UNL     1       9.845   0.437  23.918  0.00  0.00    +0.037 C 
BRANCH  13  19
ATOM     18  C   UNL     1       7.966   1.850  21.673  0.00  0.00    +0.004 C 
ATOM     19  C   UNL     1       9.459   2.021  21.907  0.00  0.00    +0.004 C 
ENDBRANCH  13  19
ENDBRANCH   1  16
BRANCH   4  20
ATOM     20  N   UNL     1       6.057  -4.209  27.646  0.00  0.00    -0.324 N 
ATOM     21  H   UNL     1       6.345  -4.173  28.622  0.00  0.00    +0.148 HD
BRANCH  20  22
ATOM     22  C   UNL     1       4.969  -5.104  27.266  0.00  0.00    +0.072 C 
ATOM     23  C   UNL     1       3.571  -4.567  27.119  0.00  0.00    +0.024 C 
ATOM     24  C   UNL     1       3.905  -5.490  28.255  0.00  0.00    +0.024 C 
ENDBRANCH  20  22
ENDBRANCH   4  20
TORSDOF 4
ENDMDL
MODEL 8
REMARK VINA RESULT:      -6.0      2.737      7.399
REMARK  Name = 
REMARK  5 active torsions:
REMARK  status: ('A' for Active; 'I' for Inactive)
REMARK    1  A    between atoms: C_1  and  C_2
REMARK    2  A    between atoms: C_2  and  C_3
REMARK    3  A    between atoms: C_6  and  N_10
REMARK    4  A    between atoms: C_14  and  N_20
REMARK    5  A    between atoms: N_20  and  C_21
REMARK                            x       y       z     vdW  Elec       q    Type
REMARK                         _______ _______ _______ _____ _____    ______ ____
ROOT
ATOM      1  N   UNL     1       9.226  -0.603  22.617  0.00  0.00    -0.308 N 
ATOM      2  C   UNL     1       8.887   0.318  23.575  0.00  0.00    +0.168 A 
ATOM      3  C   UNL     1       9.130   1.550  22.991  0.00  0.00    +0.148 A 
ATOM      4  C   UNL     1       8.857   2.687  23.770  0.00  0.00    +0.152 A 
ATOM      5  N   UNL     1       8.393   2.489  25.034  0.00  0.00    -0.198 NA
ATOM      6  C   UNL     1       8.206   1.237  25.485  0.00  0.00    +0.216 A 
ATOM      7  N   UNL     1       7.699   1.122  26.766  0.00  0.00    -0.327 N 
ATOM      8  H   UNL     1       7.168   0.267  26.849  0.00  0.00    +0.145 HD
ATOM      9  H   UNL     1       7.229   1.983  27.009  0.00  0.00    +0.145 HD
ATOM     10  N   UNL     1       9.616   1.400  21.709  0.00  0.00    -0.231 NA
ATOM     11  N   UNL     1       8.412   0.095  24.811  0.00  0.00    -0.195 NA
ATOM     12  C   UNL     1       9.659   0.098  21.517  0.00  0.00    +0.202 A 
ENDROOT
BRANCH   1  16
ATOM     13  C   UNL     1       7.866  -3.767  23.986  0.00  0.00    +0.013 C 
ATOM     14  C   UNL     1       9.245  -3.547  24.539  0.00  0.00    -0.026 C 
ATOM     15  C   UNL     1       9.913  -2.605  23.867  0.00  0.00    -0.006 C 
ATOM     16  C   UNL     1       9.101  -2.041  22.737  0.00  0.00    +0.113 C 
ATOM     17  C   UNL     1       7.679  -2.543  23.068  0.00  0.00    +0.037 C 
BRANCH  13  19
ATOM     18  C   UNL     1       5.629  -4.748  24.747  0.00  0.00    +0.004 C 
ATOM     19  C   UNL     1       6.831  -3.891  25.110  0.00  0.00    +0.004 C 
ENDBRANCH  13  19
ENDBRANCH   1  16
BRANCH   4  20
ATOM     20  N   UNL     1       9.041   3.981  23.244  0.00  0.00    -0.324 N 
ATOM     21  H   UNL     1       9.337   3.912  22.272  0.00  0.00    +0.148 HD
BRANCH  20  22
ATOM     22  C   UNL     1       9.622   5.022  24.085  0.00  0.00    +0.072 C 
ATOM     23  C   UNL     1       9.606   6.455  23.627  0.00  0.00    +0.024 C 
ATOM     24  C   UNL     1      10.904   5.703  23.697  0.00  0.00    +0.024 C 
ENDBRANCH  20  22
ENDBRANCH   4  20
TORSDOF 4
ENDMDL
MODEL 9
REMARK VINA RESULT:      -6.0      1.582      3.020
REMARK  Name = 
REMARK  5 active torsions:
REMARK  status: ('A' for Active; 'I' for Inactive)
REMARK    1  A    between atoms: C_1  and  C_2
REMARK    2  A    between atoms: C_2  and  C_3
REMARK    3  A    between atoms: C_6  and  N_10
REMARK    4  A    between atoms: C_14  and  N_20
REMARK    5  A    between atoms: N_20  and  C_21
REMARK                            x       y       z     vdW  Elec       q    Type
REMARK                         _______ _______ _______ _____ _____    ______ ____
ROOT
ATOM      1  N   UNL     1       9.471  -1.183  23.664  0.00  0.00    -0.308 N 
ATOM      2  C   UNL     1       8.159  -1.042  24.040  0.00  0.00    +0.168 A 
ATOM      3  C   UNL     1       7.754  -2.313  24.410  0.00  0.00    +0.148 A 
ATOM      4  C   UNL     1       6.426  -2.453  24.850  0.00  0.00    +0.152 A 
ATOM      5  N   UNL     1       5.646  -1.339  24.865  0.00  0.00    -0.198 NA
ATOM      6  C   UNL     1       6.161  -0.162  24.472  0.00  0.00    +0.216 A 
ATOM      7  N   UNL     1       5.314   0.929  24.548  0.00  0.00    -0.327 N 
ATOM      8  H   UNL     1       5.851   1.770  24.702  0.00  0.00    +0.145 HD
ATOM      9  H   UNL     1       4.578   0.724  25.210  0.00  0.00    +0.145 HD
ATOM     10  N   UNL     1       8.780  -3.222  24.259  0.00  0.00    -0.231 NA
ATOM     11  N   UNL     1       7.417   0.076  24.061  0.00  0.00    -0.195 NA
ATOM     12  C   UNL     1       9.795  -2.510  23.813  0.00  0.00    +0.202 A 
ENDROOT
BRANCH   1  16
ATOM     13  C   UNL     1      10.595   2.332  23.331  0.00  0.00    +0.013 C 
ATOM     14  C   UNL     1      10.041   1.870  22.014  0.00  0.00    -0.026 C 
ATOM     15  C   UNL     1       9.901   0.541  21.966  0.00  0.00    -0.006 C 
ATOM     16  C   UNL     1      10.353  -0.117  23.238  0.00  0.00    +0.113 C 
ATOM     17  C   UNL     1      10.445   1.077  24.213  0.00  0.00    +0.037 C 
BRANCH  13  19
ATOM     18  C   UNL     1       8.417   3.675  23.341  0.00  0.00    +0.004 C 
ATOM     19  C   UNL     1       9.849   3.569  23.842  0.00  0.00    +0.004 C 
ENDBRANCH  13  19
ENDBRANCH   1  16
BRANCH   4  20
ATOM     20  N   UNL     1       5.939  -3.703  25.280  0.00  0.00    -0.324 N 
ATOM     21  H   UNL     1       6.640  -4.158  25.864  0.00  0.00    +0.148 HD
BRANCH  20  22
ATOM     22  C   UNL     1       5.149  -4.519  24.364  0.00  0.00    +0.072 C 
ATOM     23  C   UNL     1       5.203  -6.019  24.456  0.00  0.00    +0.024 C 
ATOM     24  C   UNL     1       5.808  -5.317  23.275  0.00  0.00    +0.024 C 
ENDBRANCH  20  22
ENDBRANCH   4  20
TORSDOF 4
ENDMDL
