MODEL 1
REMARK VINA RESULT:      -6.2      0.000      0.000
REMARK  Name = 
REMARK  13 active torsions:
REMARK  status: ('A' for Active; 'I' for Inactive)
REMARK    1  A    between atoms: C_1  and  C_2
REMARK    2  A    between atoms: C_2  and  C_3
REMARK    3  A    between atoms: C_2  and  C_4
REMARK    4  A    between atoms: C_4  and  C_6
REMARK    5  A    between atoms: C_4  and  N_27
REMARK    6  A    between atoms: C_6  and  O_8
REMARK    7  A    between atoms: O_8  and  C_9
REMARK    8  A    between atoms: C_9  and  C_10
REMARK    9  A    between atoms: C_10  and  C_12
REMARK   10  A    between atoms: C_10  and  O_14
REMARK   11  A    between atoms: C_12  and  O_13
REMARK   12  A    between atoms: O_14  and  C_15
REMARK   13  A    between atoms: C_15  and  N_16
REMARK                            x       y       z     vdW  Elec       q    Type
REMARK                         _______ _______ _______ _____ _____    ______ ____
ROOT
ATOM      1  O   UNL     1       8.124  -4.482  27.117  0.00  0.00    -0.350 OA
ENDROOT
BRANCH   1   2
ATOM      2  C   UNL     1       9.056  -3.995  26.123  0.00  0.00    +0.183 C 
BRANCH   2   3
ATOM      3  C   UNL     1       8.309  -3.065  25.152  0.00  0.00    +0.266 C 
BRANCH   3   4
ATOM      4  O   UNL     1       9.127  -2.726  24.010  0.00  0.00    -0.461 OA
BRANCH   4   5
ATOM      5  C   UNL     1       8.471  -2.649  22.818  0.00  0.00    +0.324 C 
ATOM      6  O   UNL     1       7.548  -3.387  22.494  0.00  0.00    -0.249 OA
BRANCH   5   7
ATOM      7  C   UNL     1       8.955  -1.447  21.963  0.00  0.00    +0.163 C 
BRANCH   7   9
ATOM      8  C   UNL     1       7.147   0.065  22.967  0.00  0.00    +0.009 C 
ATOM      9  C   UNL     1       8.623  -0.061  22.571  0.00  0.00    +0.010 C 
ATOM     10  C   UNL     1       8.958   1.088  21.602  0.00  0.00    +0.009 C 
ENDBRANCH   7   9
BRANCH   7  11
ATOM     11  N   UNL     1      10.429  -1.570  21.790  0.00  0.00    -0.318 NA
ATOM     12  H   UNL     1      10.722  -2.455  22.216  0.00  0.00    +0.119 HD
ATOM     13  H   UNL     1      10.628  -1.707  20.797  0.00  0.00    +0.119 HD
ENDBRANCH   7  11
ENDBRANCH   5   7
ENDBRANCH   4   5
ENDBRANCH   3   4
ENDBRANCH   2   3
BRANCH   2  14
ATOM     14  C   UNL     1       9.702  -5.150  25.328  0.00  0.00    +0.190 C 
BRANCH  14  15
ATOM     15  O   UNL     1       8.882  -5.565  24.235  0.00  0.00    -0.392 OA
ATOM     16  H   UNL     1       9.167  -6.454  23.960  0.00  0.00    +0.210 HD
ENDBRANCH  14  15
ENDBRANCH   2  14
ENDBRANCH   1   2
BRANCH   1  17
ATOM     17  C   UNL     1       6.773  -4.128  26.791  0.00  0.00    +0.288 C 
BRANCH  17  18
ATOM     18  N   UNL     1       5.917  -5.298  26.719  0.00  0.00    -0.291 N 
ATOM     19  C   UNL     1       5.482  -5.856  25.548  0.00  0.00    +0.171 A 
ATOM     20  N   UNL     1       5.892  -5.528  24.298  0.00  0.00    -0.196 NA
ATOM     21  C   UNL     1       5.271  -6.192  23.361  0.00  0.00    +0.195 A 
ATOM     22  N   UNL     1       5.589  -5.978  22.059  0.00  0.00    -0.329 N 
ATOM     23  H   UNL     1       5.565  -6.785  21.450  0.00  0.00    +0.145 HD
ATOM     24  H   UNL     1       6.447  -5.444  21.962  0.00  0.00    +0.145 HD
ATOM     25  N   UNL     1       4.292  -7.132  23.606  0.00  0.00    -0.293 N 
ATOM     26  H   UNL     1       3.809  -7.571  22.841  0.00  0.00    +0.172 HD
ATOM     27  C   UNL     1       3.826  -7.478  24.870  0.00  0.00    +0.280 A 
ATOM     28  O   UNL     1       2.916  -8.286  25.023  0.00  0.00    -0.265 OA
ATOM     29  C   UNL     1       4.519  -6.763  25.922  0.00  0.00    +0.172 A 
ATOM     30  N   UNL     1       4.360  -6.793  27.287  0.00  0.00    -0.229 NA
ATOM     31  C   UNL     1       5.215  -5.892  27.734  0.00  0.00    +0.203 A 
ENDBRANCH  17  18
ENDBRANCH   1  17
TORSDOF 11
ENDMDL
MODEL 2
REMARK VINA RESULT:      -6.1      2.266      4.680
REMARK  Name = 
REMARK  13 active torsions:
REMARK  status: ('A' for Active; 'I' for Inactive)
REMARK    1  A    between atoms: C_1  and  C_2
REMARK    2  A    between atoms: C_2  and  C_3
REMARK    3  A    between atoms: C_2  and  C_4
REMARK    4  A    between atoms: C_4  and  C_6
REMARK    5  A    between atoms: C_4  and  N_27
REMARK    6  A    between atoms: C_6  and  O_8
REMARK    7  A    between atoms: O_8  and  C_9
REMARK    8  A    between atoms: C_9  and  C_10
REMARK    9  A    between atoms: C_10  and  C_12
REMARK   10  A    between atoms: C_10  and  O_14
REMARK   11  A    between atoms: C_12  and  O_13
REMARK   12  A    between atoms: O_14  and  C_15
REMARK   13  A    between atoms: C_15  and  N_16
REMARK                            x       y       z     vdW  Elec       q    Type
REMARK                         _______ _______ _______ _____ _____    ______ ____
ROOT
ATOM      1  O   UNL     1       7.116  -1.181  24.073  0.00  0.00    -0.350 OA
ENDROOT
BRANCH   1   2
ATOM      2  C   UNL     1       8.193  -1.220  23.107  0.00  0.00    +0.183 C 
BRANCH   2   3
ATOM      3  C   UNL     1       7.975  -2.417  22.166  0.00  0.00    +0.266 C 
BRANCH   3   4
ATOM      4  O   UNL     1       7.343  -3.521  22.852  0.00  0.00    -0.461 OA
BRANCH   4   5
ATOM      5  C   UNL     1       6.261  -4.063  22.226  0.00  0.00    +0.324 C 
ATOM      6  O   UNL     1       5.676  -3.534  21.288  0.00  0.00    -0.249 OA
BRANCH   5   7
ATOM      7  C   UNL     1       5.925  -5.479  22.764  0.00  0.00    +0.163 C 
BRANCH   7   9
ATOM      8  C   UNL     1       4.212  -4.264  24.231  0.00  0.00    +0.009 C 
ATOM      9  C   UNL     1       4.569  -5.569  23.510  0.00  0.00    +0.010 C 
ATOM     10  C   UNL     1       4.558  -6.707  24.547  0.00  0.00    +0.009 C 
ENDBRANCH   7   9
BRANCH   7  11
ATOM     11  N   UNL     1       5.916  -6.419  21.608  0.00  0.00    -0.318 NA
ATOM     12  H   UNL     1       6.599  -6.081  20.924  0.00  0.00    +0.119 HD
ATOM     13  H   UNL     1       6.308  -7.312  21.914  0.00  0.00    +0.119 HD
ENDBRANCH   7  11
ENDBRANCH   5   7
ENDBRANCH   4   5
ENDBRANCH   3   4
ENDBRANCH   2   3
BRANCH   2  14
ATOM     14  C   UNL     1       9.571  -1.350  23.790  0.00  0.00    +0.190 C 
BRANCH  14  15
ATOM     15  O   UNL     1      10.160  -2.630  23.555  0.00  0.00    -0.392 OA
ATOM     16  H   UNL     1      10.499  -2.970  24.401  0.00  0.00    +0.210 HD
ENDBRANCH  14  15
ENDBRANCH   2  14
ENDBRANCH   1   2
BRANCH   1  17
ATOM     17  C   UNL     1       7.613  -1.070  25.413  0.00  0.00    +0.288 C 
BRANCH  17  18
ATOM     18  N   UNL     1       7.072  -2.108  26.272  0.00  0.00    -0.291 N 
ATOM     19  C   UNL     1       7.616  -3.357  26.396  0.00  0.00    +0.171 A 
ATOM     20  N   UNL     1       8.803  -3.774  25.888  0.00  0.00    -0.196 NA
ATOM     21  C   UNL     1       9.049  -5.034  26.122  0.00  0.00    +0.195 A 
ATOM     22  N   UNL     1      10.209  -5.587  25.684  0.00  0.00    -0.329 N 
ATOM     23  H   UNL     1      10.632  -6.283  26.284  0.00  0.00    +0.145 HD
ATOM     24  H   UNL     1      10.873  -4.881  25.379  0.00  0.00    +0.145 HD
ATOM     25  N   UNL     1       8.195  -5.869  26.812  0.00  0.00    -0.293 N 
ATOM     26  H   UNL     1       8.413  -6.845  26.912  0.00  0.00    +0.172 HD
ATOM     27  C   UNL     1       6.961  -5.487  27.326  0.00  0.00    +0.280 A 
ATOM     28  O   UNL     1       6.221  -6.288  27.887  0.00  0.00    -0.265 OA
ATOM     29  C   UNL     1       6.680  -4.085  27.091  0.00  0.00    +0.172 A 
ATOM     30  N   UNL     1       5.585  -3.319  27.412  0.00  0.00    -0.229 NA
ATOM     31  C   UNL     1       5.854  -2.134  26.897  0.00  0.00    +0.203 A 
ENDBRANCH  17  18
ENDBRANCH   1  17
TORSDOF 11
ENDMDL
MODEL 3
REMARK VINA RESULT:      -6.1      2.457      3.576
REMARK  Name = 
REMARK  13 active torsions:
REMARK  status: ('A' for Active; 'I' for Inactive)
REMARK    1  A    between atoms: C_1  and  C_2
REMARK    2  A    between atoms: C_2  and  C_3
REMARK    3  A    between atoms: C_2  and  C_4
REMARK    4  A    between atoms: C_4  and  C_6
REMARK    5  A    between atoms: C_4  and  N_27
REMARK    6  A    between atoms: C_6  and  O_8
REMARK    7  A    between atoms: O_8  and  C_9
REMARK    8  A    between atoms: C_9  and  C_10
REMARK    9  A    between atoms: C_10  and  C_12
REMARK   10  A    between atoms: C_10  and  O_14
REMARK   11  A    between atoms: C_12  and  O_13
REMARK   12  A    between atoms: O_14  and  C_15
REMARK   13  A    between atoms: C_15  and  N_16
REMARK                            x       y       z     vdW  Elec       q    Type
REMARK                         _______ _______ _______ _____ _____    ______ ____
ROOT
ATOM      1  O   UNL     1       9.243  -1.981  24.711  0.00  0.00    -0.350 OA
ENDROOT
BRANCH   1   2
ATOM      2  C   UNL     1       9.262  -1.055  23.599  0.00  0.00    +0.183 C 
BRANCH   2   3
ATOM      3  C   UNL     1       7.847  -0.967  23.000  0.00  0.00    +0.266 C 
BRANCH   3   4
ATOM      4  O   UNL     1       7.682   0.233  22.211  0.00  0.00    -0.461 OA
BRANCH   4   5
ATOM      5  C   UNL     1       7.404   1.367  22.915  0.00  0.00    +0.324 C 
ATOM      6  O   UNL     1       6.504   1.458  23.741  0.00  0.00    -0.249 OA
BRANCH   5   7
ATOM      7  C   UNL     1       8.431   2.496  22.630  0.00  0.00    +0.163 C 
BRANCH   7   9
ATOM      8  C   UNL     1       9.325   4.371  24.130  0.00  0.00    +0.009 C 
ATOM      9  C   UNL     1       9.322   2.865  23.843  0.00  0.00    +0.010 C 
ATOM     10  C   UNL     1      10.780   2.412  23.644  0.00  0.00    +0.009 C 
ENDBRANCH   7   9
BRANCH   7  11
ATOM     11  N   UNL     1       9.294   2.057  21.498  0.00  0.00    -0.318 NA
ATOM     12  H   UNL     1       9.872   1.278  21.828  0.00  0.00    +0.119 HD
ATOM     13  H   UNL     1       8.700   1.628  20.786  0.00  0.00    +0.119 HD
ENDBRANCH   7  11
ENDBRANCH   5   7
ENDBRANCH   4   5
ENDBRANCH   3   4
ENDBRANCH   2   3
BRANCH   2  14
ATOM     14  C   UNL     1      10.255  -1.495  22.502  0.00  0.00    +0.190 C 
BRANCH  14  15
ATOM     15  O   UNL     1       9.916  -0.945  21.229  0.00  0.00    -0.392 OA
ATOM     16  H   UNL     1       8.980  -0.680  21.249  0.00  0.00    +0.210 HD
ENDBRANCH  14  15
ENDBRANCH   2  14
ENDBRANCH   1   2
BRANCH   1  17
ATOM     17  C   UNL     1       9.274  -3.343  24.262  0.00  0.00    +0.288 C 
BRANCH  17  18
ATOM     18  N   UNL     1       8.616  -4.231  25.204  0.00  0.00    -0.291 N 
ATOM     19  C   UNL     1       7.473  -4.928  24.924  0.00  0.00    +0.171 A 
ATOM     20  N   UNL     1       6.871  -5.039  23.714  0.00  0.00    -0.196 NA
ATOM     21  C   UNL     1       5.764  -5.729  23.750  0.00  0.00    +0.195 A 
ATOM     22  N   UNL     1       5.060  -5.934  22.608  0.00  0.00    -0.329 N 
ATOM     23  H   UNL     1       4.604  -6.832  22.514  0.00  0.00    +0.145 HD
ATOM     24  H   UNL     1       5.596  -5.682  21.783  0.00  0.00    +0.145 HD
ATOM     25  N   UNL     1       5.247  -6.292  24.898  0.00  0.00    -0.293 N 
ATOM     26  H   UNL     1       4.360  -6.766  24.875  0.00  0.00    +0.172 HD
ATOM     27  C   UNL     1       5.819  -6.181  26.160  0.00  0.00    +0.280 A 
ATOM     28  O   UNL     1       5.285  -6.661  27.155  0.00  0.00    -0.265 OA
ATOM     29  C   UNL     1       7.059  -5.432  26.135  0.00  0.00    +0.172 A 
ATOM     30  N   UNL     1       7.921  -5.081  27.146  0.00  0.00    -0.229 NA
ATOM     31  C   UNL     1       8.844  -4.351  26.549  0.00  0.00    +0.203 A 
ENDBRANCH  17  18
ENDBRANCH   1  17
TORSDOF 11
ENDMDL
MODEL 4
REMARK VINA RESULT:      -6.1      3.144      4.556
REMARK  Name = 
REMARK  13 active torsions:
REMARK  status: ('A' for Active; 'I' for Inactive)
REMARK    1  A    between atoms: C_1  and  C_2
REMARK    2  A    between atoms: C_2  and  C_3
REMARK    3  A    between atoms: C_2  and  C_4
REMARK    4  A    between atoms: C_4  and  C_6
REMARK    5  A    between atoms: C_4  and  N_27
REMARK    6  A    between atoms: C_6  and  O_8
REMARK    7  A    between atoms: O_8  and  C_9
REMARK    8  A    between atoms: C_9  and  C_10
REMARK    9  A    between atoms: C_10  and  C_12
REMARK   10  A    between atoms: C_10  and  O_14
REMARK   11  A    between atoms: C_12  and  O_13
REMARK   12  A    between atoms: O_14  and  C_15
REMARK   13  A    between atoms: C_15  and  N_16
REMARK                            x       y       z     vdW  Elec       q    Type
REMARK                         _______ _______ _______ _____ _____    ______ ____
ROOT
ATOM      1  O   UNL     1       7.969  -0.946  23.244  0.00  0.00    -0.350 OA
ENDROOT
BRANCH   1   2
ATOM      2  C   UNL     1       9.321  -1.123  23.729  0.00  0.00    +0.183 C 
BRANCH   2   3
ATOM      3  C   UNL     1       9.756   0.153  24.471  0.00  0.00    +0.266 C 
BRANCH   3   4
ATOM      4  O   UNL     1      10.739   0.895  23.715  0.00  0.00    -0.461 OA
BRANCH   4   5
ATOM      5  C   UNL     1      10.430   2.198  23.466  0.00  0.00    +0.324 C 
ATOM      6  O   UNL     1      11.220   3.127  23.596  0.00  0.00    -0.249 OA
BRANCH   5   7
ATOM      7  C   UNL     1       8.997   2.360  22.892  0.00  0.00    +0.163 C 
BRANCH   7   9
ATOM      8  C   UNL     1       7.896   3.899  24.620  0.00  0.00    +0.009 C 
ATOM      9  C   UNL     1       8.356   3.744  23.165  0.00  0.00    +0.010 C 
ATOM     10  C   UNL     1       7.147   4.009  22.250  0.00  0.00    +0.009 C 
ENDBRANCH   7   9
BRANCH   7  11
ATOM     11  N   UNL     1       9.061   2.126  21.423  0.00  0.00    -0.318 NA
ATOM     12  H   UNL     1       8.628   1.217  21.231  0.00  0.00    +0.119 HD
ATOM     13  H   UNL     1       8.436   2.790  20.962  0.00  0.00    +0.119 HD
ENDBRANCH   7  11
ENDBRANCH   5   7
ENDBRANCH   4   5
ENDBRANCH   3   4
ENDBRANCH   2   3
BRANCH   2  14
ATOM     14  C   UNL     1      10.310  -1.407  22.578  0.00  0.00    +0.190 C 
BRANCH  14  15
ATOM     15  O   UNL     1       9.890  -0.799  21.356  0.00  0.00    -0.392 OA
ATOM     16  H   UNL     1      10.407   0.015  21.225  0.00  0.00    +0.210 HD
ENDBRANCH  14  15
ENDBRANCH   2  14
ENDBRANCH   1   2
BRANCH   1  17
ATOM     17  C   UNL     1       7.228  -2.173  23.290  0.00  0.00    +0.288 C 
BRANCH  17  18
ATOM     18  N   UNL     1       6.874  -2.532  24.651  0.00  0.00    -0.291 N 
ATOM     19  C   UNL     1       7.436  -3.574  25.337  0.00  0.00    +0.171 A 
ATOM     20  N   UNL     1       8.498  -4.319  24.943  0.00  0.00    -0.196 NA
ATOM     21  C   UNL     1       8.790  -5.280  25.776  0.00  0.00    +0.195 A 
ATOM     22  N   UNL     1       9.841  -6.101  25.517  0.00  0.00    -0.329 N 
ATOM     23  H   UNL     1      10.377  -6.412  26.315  0.00  0.00    +0.145 HD
ATOM     24  H   UNL     1      10.427  -5.739  24.771  0.00  0.00    +0.145 HD
ATOM     25  N   UNL     1       8.095  -5.526  26.941  0.00  0.00    -0.293 N 
ATOM     26  H   UNL     1       8.331  -6.317  27.515  0.00  0.00    +0.172 HD
ATOM     27  C   UNL     1       6.987  -4.801  27.367  0.00  0.00    +0.280 A 
ATOM     28  O   UNL     1       6.377  -5.099  28.389  0.00  0.00    -0.265 OA
ATOM     29  C   UNL     1       6.660  -3.718  26.463  0.00  0.00    +0.172 A 
ATOM     30  N   UNL     1       5.649  -2.788  26.499  0.00  0.00    -0.229 NA
ATOM     31  C   UNL     1       5.805  -2.094  25.387  0.00  0.00    +0.203 A 
ENDBRANCH  17  18
ENDBRANCH   1  17
TORSDOF 11
ENDMDL
MODEL 5
REMARK VINA RESULT:      -6.0      3.908      5.884
REMARK  Name = 
REMARK  13 active torsions:
REMARK  status: ('A' for Active; 'I' for Inactive)
REMARK    1  A    between atoms: C_1  and  C_2
REMARK    2  A    between atoms: C_2  and  C_3
REMARK    3  A    between atoms: C_2  and  C_4
REMARK    4  A    between atoms: C_4  and  C_6
REMARK    5  A    between atoms: C_4  and  N_27
REMARK    6  A    between atoms: C_6  and  O_8
REMARK    7  A    between atoms: O_8  and  C_9
REMARK    8  A    between atoms: C_9  and  C_10
REMARK    9  A    between atoms: C_10  and  C_12
REMARK   10  A    between atoms: C_10  and  O_14
REMARK   11  A    between atoms: C_12  and  O_13
REMARK   12  A    between atoms: O_14  and  C_15
REMARK   13  A    between atoms: C_15  and  N_16
REMARK                            x       y       z     vdW  Elec       q    Type
REMARK                         _______ _______ _______ _____ _____    ______ ____
ROOT
ATOM      1  O   UNL     1      10.405  -0.670  23.638  0.00  0.00    -0.350 OA
ENDROOT
BRANCH   1   2
ATOM      2  C   UNL     1      10.385   0.754  23.381  0.00  0.00    +0.183 C 
BRANCH   2   3
ATOM      3  C   UNL     1       9.437   1.429  24.387  0.00  0.00    +0.266 C 
BRANCH   3   4
ATOM      4  O   UNL     1       9.556   2.869  24.341  0.00  0.00    -0.461 OA
BRANCH   4   5
ATOM      5  C   UNL     1       8.481   3.565  24.808  0.00  0.00    +0.324 C 
ATOM      6  O   UNL     1       7.871   3.277  25.832  0.00  0.00    -0.249 OA
BRANCH   5   7
ATOM      7  C   UNL     1       8.189   4.828  23.956  0.00  0.00    +0.163 C 
BRANCH   7   9
ATOM      8  C   UNL     1      10.501   5.867  23.583  0.00  0.00    +0.009 C 
ATOM      9  C   UNL     1       9.129   6.024  24.251  0.00  0.00    +0.010 C 
ATOM     10  C   UNL     1       9.352   6.223  25.761  0.00  0.00    +0.009 C 
ENDBRANCH   7   9
BRANCH   7  11
ATOM     11  N   UNL     1       8.304   4.451  22.520  0.00  0.00    -0.318 NA
ATOM     12  H   UNL     1       7.453   4.765  22.044  0.00  0.00    +0.119 HD
ATOM     13  H   UNL     1       9.039   5.019  22.094  0.00  0.00    +0.119 HD
ENDBRANCH   7  11
ENDBRANCH   5   7
ENDBRANCH   4   5
ENDBRANCH   3   4
ENDBRANCH   2   3
BRANCH   2  14
ATOM     14  C   UNL     1       9.916   1.071  21.945  0.00  0.00    +0.190 C 
BRANCH  14  15
ATOM     15  O   UNL     1      10.249   2.406  21.561  0.00  0.00    -0.392 OA
ATOM     16  H   UNL     1      10.228   2.967  22.356  0.00  0.00    +0.210 HD
ENDBRANCH  14  15
ENDBRANCH   2  14
ENDBRANCH   1   2
BRANCH   1  17
ATOM     17  C   UNL     1       9.697  -1.398  22.627  0.00  0.00    +0.288 C 
BRANCH  17  18
ATOM     18  N   UNL     1       8.502  -2.029  23.160  0.00  0.00    -0.291 N 
ATOM     19  C   UNL     1       8.514  -3.162  23.925  0.00  0.00    +0.171 A 
ATOM     20  N   UNL     1       9.608  -3.778  24.438  0.00  0.00    -0.196 NA
ATOM     21  C   UNL     1       9.325  -4.871  25.091  0.00  0.00    +0.195 A 
ATOM     22  N   UNL     1      10.321  -5.587  25.673  0.00  0.00    -0.329 N 
ATOM     23  H   UNL     1      10.104  -6.028  26.556  0.00  0.00    +0.145 HD
ATOM     24  H   UNL     1      11.193  -5.066  25.702  0.00  0.00    +0.145 HD
ATOM     25  N   UNL     1       8.046  -5.364  25.248  0.00  0.00    -0.293 N 
ATOM     26  H   UNL     1       7.895  -6.242  25.713  0.00  0.00    +0.172 HD
ATOM     27  C   UNL     1       6.902  -4.777  24.716  0.00  0.00    +0.280 A 
ATOM     28  O   UNL     1       5.796  -5.289  24.846  0.00  0.00    -0.265 OA
ATOM     29  C   UNL     1       7.197  -3.551  24.004  0.00  0.00    +0.172 A 
ATOM     30  N   UNL     1       6.376  -2.683  23.326  0.00  0.00    -0.229 NA
ATOM     31  C   UNL     1       7.198  -1.781  22.824  0.00  0.00    +0.203 A 
ENDBRANCH  17  18
ENDBRANCH   1  17
TORSDOF 11
ENDMDL
MODEL 6
REMARK VINA RESULT:      -5.9      3.036      4.560
REMARK  Name = 
REMARK  13 active torsions:
REMARK  status: ('A' for Active; 'I' for Inactive)
REMARK    1  A    between atoms: C_1  and  C_2
REMARK    2  A    between atoms: C_2  and  C_3
REMARK    3  A    between atoms: C_2  and  C_4
REMARK    4  A    between atoms: C_4  and  C_6
REMARK    5  A    between atoms: C_4  and  N_27
REMARK    6  A    between atoms: C_6  and  O_8
REMARK    7  A    between atoms: O_8  and  C_9
REMARK    8  A    between atoms: C_9  and  C_10
REMARK    9  A    between atoms: C_10  and  C_12
REMARK   10  A    between atoms: C_10  and  O_14
REMARK   11  A    between atoms: C_12  and  O_13
REMARK   12  A    between atoms: O_14  and  C_15
REMARK   13  A    between atoms: C_15  and  N_16
REMARK                            x       y       z     vdW  Elec       q    Type
REMARK                         _______ _______ _______ _____ _____    ______ ____
ROOT
ATOM      1  O   UNL     1       7.300  -1.087  22.880  0.00  0.00    -0.350 OA
ENDROOT
BRANCH   1   2
ATOM      2  C   UNL     1       8.656  -0.592  22.975  0.00  0.00    +0.183 C 
BRANCH   2   3
ATOM      3  C   UNL     1       8.844   0.545  21.956  0.00  0.00    +0.266 C 
BRANCH   3   4
ATOM      4  O   UNL     1      10.096   1.237  22.161  0.00  0.00    -0.461 OA
BRANCH   4   5
ATOM      5  C   UNL     1      10.234   1.862  23.364  0.00  0.00    +0.324 C 
ATOM      6  O   UNL     1      11.073   1.556  24.204  0.00  0.00    -0.249 OA
BRANCH   5   7
ATOM      7  C   UNL     1       9.280   3.078  23.503  0.00  0.00    +0.163 C 
BRANCH   7   9
ATOM      8  C   UNL     1       7.137   2.535  24.799  0.00  0.00    +0.009 C 
ATOM      9  C   UNL     1       8.540   3.152  24.863  0.00  0.00    +0.010 C 
ATOM     10  C   UNL     1       8.404   4.601  25.366  0.00  0.00    +0.009 C 
ENDBRANCH   7   9
BRANCH   7  11
ATOM     11  N   UNL     1      10.083   4.317  23.310  0.00  0.00    -0.318 NA
ATOM     12  H   UNL     1       9.509   4.984  22.784  0.00  0.00    +0.119 HD
ATOM     13  H   UNL     1      10.203   4.770  24.218  0.00  0.00    +0.119 HD
ENDBRANCH   7  11
ENDBRANCH   5   7
ENDBRANCH   4   5
ENDBRANCH   3   4
ENDBRANCH   2   3
BRANCH   2  14
ATOM     14  C   UNL     1       9.692  -1.702  22.699  0.00  0.00    +0.190 C 
BRANCH  14  15
ATOM     15  O   UNL     1      10.382  -1.489  21.467  0.00  0.00    -0.392 OA
ATOM     16  H   UNL     1      11.334  -1.619  21.622  0.00  0.00    +0.210 HD
ENDBRANCH  14  15
ENDBRANCH   2  14
ENDBRANCH   1   2
BRANCH   1  17
ATOM     17  C   UNL     1       7.268  -2.513  22.729  0.00  0.00    +0.288 C 
BRANCH  17  18
ATOM     18  N   UNL     1       6.667  -3.159  23.882  0.00  0.00    -0.291 N 
ATOM     19  C   UNL     1       7.336  -4.015  24.712  0.00  0.00    +0.171 A 
ATOM     20  N   UNL     1       8.668  -4.272  24.703  0.00  0.00    -0.196 NA
ATOM     21  C   UNL     1       9.026  -5.170  25.579  0.00  0.00    +0.195 A 
ATOM     22  N   UNL     1      10.333  -5.518  25.693  0.00  0.00    -0.329 N 
ATOM     23  H   UNL     1      10.665  -5.724  26.625  0.00  0.00    +0.145 HD
ATOM     24  H   UNL     1      10.941  -4.872  25.198  0.00  0.00    +0.145 HD
ATOM     25  N   UNL     1       8.147  -5.806  26.431  0.00  0.00    -0.293 N 
ATOM     26  H   UNL     1       8.473  -6.531  27.046  0.00  0.00    +0.172 HD
ATOM     27  C   UNL     1       6.773  -5.590  26.455  0.00  0.00    +0.280 A 
ATOM     28  O   UNL     1       6.034  -6.222  27.201  0.00  0.00    -0.265 OA
ATOM     29  C   UNL     1       6.362  -4.580  25.501  0.00  0.00    +0.172 A 
ATOM     30  N   UNL     1       5.117  -4.086  25.192  0.00  0.00    -0.229 NA
ATOM     31  C   UNL     1       5.339  -3.236  24.207  0.00  0.00    +0.203 A 
ENDBRANCH  17  18
ENDBRANCH   1  17
TORSDOF 11
ENDMDL
MODEL 7
REMARK VINA RESULT:      -5.9      4.165      9.187
REMARK  Name = 
REMARK  13 active torsions:
REMARK  status: ('A' for Active; 'I' for Inactive)
REMARK    1  A    between atoms: C_1  and  C_2
REMARK    2  A    between atoms: C_2  and  C_3
REMARK    3  A    between atoms: C_2  and  C_4
REMARK    4  A    between atoms: C_4  and  C_6
REMARK    5  A    between atoms: C_4  and  N_27
REMARK    6  A    between atoms: C_6  and  O_8
REMARK    7  A    between atoms: O_8  and  C_9
REMARK    8  A    between atoms: C_9  and  C_10
REMARK    9  A    between atoms: C_10  and  C_12
REMARK   10  A    between atoms: C_10  and  O_14
REMARK   11  A    between atoms: C_12  and  O_13
REMARK   12  A    between atoms: O_14  and  C_15
REMARK   13  A    between atoms: C_15  and  N_16
REMARK                            x       y       z     vdW  Elec       q    Type
REMARK                         _______ _______ _______ _____ _____    ______ ____
ROOT
ATOM      1  O   UNL     1       9.889   0.016  24.847  0.00  0.00    -0.350 OA
ENDROOT
BRANCH   1   2
ATOM      2  C   UNL     1       9.431  -1.029  23.956  0.00  0.00    +0.183 C 
BRANCH   2   3
ATOM      3  C   UNL     1       9.134  -2.293  24.782  0.00  0.00    +0.266 C 
BRANCH   3   4
ATOM      4  O   UNL     1       9.399  -3.494  24.022  0.00  0.00    -0.461 OA
BRANCH   4   5
ATOM      5  C   UNL     1       8.583  -4.552  24.289  0.00  0.00    +0.324 C 
ATOM      6  O   UNL     1       8.369  -5.468  23.503  0.00  0.00    -0.249 OA
BRANCH   5   7
ATOM      7  C   UNL     1       8.043  -4.520  25.744  0.00  0.00    +0.163 C 
BRANCH   7   9
ATOM      8  C   UNL     1       6.034  -3.416  26.888  0.00  0.00    +0.009 C 
ATOM      9  C   UNL     1       6.499  -4.442  25.847  0.00  0.00    +0.010 C 
ATOM     10  C   UNL     1       5.876  -5.804  26.205  0.00  0.00    +0.009 C 
ENDBRANCH   7   9
BRANCH   7  11
ATOM     11  N   UNL     1       8.523  -5.747  26.439  0.00  0.00    -0.318 NA
ATOM     12  H   UNL     1       8.014  -5.825  27.324  0.00  0.00    +0.119 HD
ATOM     13  H   UNL     1       8.208  -6.562  25.910  0.00  0.00    +0.119 HD
ENDBRANCH   7  11
ENDBRANCH   5   7
ENDBRANCH   4   5
ENDBRANCH   3   4
ENDBRANCH   2   3
BRANCH   2  14
ATOM     14  C   UNL     1      10.481  -1.360  22.874  0.00  0.00    +0.190 C 
BRANCH  14  15
ATOM     15  O   UNL     1       9.869  -1.726  21.637  0.00  0.00    -0.392 OA
ATOM     16  H   UNL     1       9.314  -0.985  21.339  0.00  0.00    +0.210 HD
ENDBRANCH  14  15
ENDBRANCH   2  14
ENDBRANCH   1   2
BRANCH   1  17
ATOM     17  C   UNL     1      10.671   0.997  24.152  0.00  0.00    +0.288 C 
BRANCH  17  18
ATOM     18  N   UNL     1       9.930   2.230  23.956  0.00  0.00    -0.291 N 
ATOM     19  C   UNL     1      10.514   3.438  23.691  0.00  0.00    +0.171 A 
ATOM     20  N   UNL     1      11.823   3.656  23.411  0.00  0.00    -0.196 NA
ATOM     21  C   UNL     1      12.111   4.918  23.246  0.00  0.00    +0.195 A 
ATOM     22  N   UNL     1      13.383   5.287  22.946  0.00  0.00    -0.329 N 
ATOM     23  H   UNL     1      13.489   6.068  22.313  0.00  0.00    +0.145 HD
ATOM     24  H   UNL     1      13.954   4.490  22.680  0.00  0.00    +0.145 HD
ATOM     25  N   UNL     1      11.186   5.937  23.347  0.00  0.00    -0.293 N 
ATOM     26  H   UNL     1      11.478   6.896  23.265  0.00  0.00    +0.172 HD
ATOM     27  C   UNL     1       9.843   5.757  23.656  0.00  0.00    +0.280 A 
ATOM     28  O   UNL     1       9.077   6.707  23.782  0.00  0.00    -0.265 OA
ATOM     29  C   UNL     1       9.502   4.359  23.824  0.00  0.00    +0.172 A 
ATOM     30  N   UNL     1       8.312   3.753  24.147  0.00  0.00    -0.229 NA
ATOM     31  C   UNL     1       8.609   2.470  24.224  0.00  0.00    +0.203 A 
ENDBRANCH  17  18
ENDBRANCH   1  17
TORSDOF 11
ENDMDL
MODEL 8
REMARK VINA RESULT:      -5.8      2.478      3.664
REMARK  Name = 
REMARK  13 active torsions:
REMARK  status: ('A' for Active; 'I' for Inactive)
REMARK    1  A    between atoms: C_1  and  C_2
REMARK    2  A    between atoms: C_2  and  C_3
REMARK    3  A    between atoms: C_2  and  C_4
REMARK    4  A    between atoms: C_4  and  C_6
REMARK    5  A    between atoms: C_4  and  N_27
REMARK    6  A    between atoms: C_6  and  O_8
REMARK    7  A    between atoms: O_8  and  C_9
REMARK    8  A    between atoms: C_9  and  C_10
REMARK    9  A    between atoms: C_10  and  C_12
REMARK   10  A    between atoms: C_10  and  O_14
REMARK   11  A    between atoms: C_12  and  O_13
REMARK   12  A    between atoms: O_14  and  C_15
REMARK   13  A    between atoms: C_15  and  N_16
REMARK                            x       y       z     vdW  Elec       q    Type
REMARK                         _______ _______ _______ _____ _____    ______ ____
ROOT
ATOM      1  O   UNL     1       9.737  -2.661  24.287  0.00  0.00    -0.350 OA
ENDROOT
BRANCH   1   2
ATOM      2  C   UNL     1       9.628  -1.430  23.534  0.00  0.00    +0.183 C 
BRANCH   2   3
ATOM      3  C   UNL     1       8.640  -0.493  24.250  0.00  0.00    +0.266 C 
BRANCH   3   4
ATOM      4  O   UNL     1       9.323   0.615  24.878  0.00  0.00    -0.461 OA
BRANCH   4   5
ATOM      5  C   UNL     1       9.918   1.499  24.029  0.00  0.00    +0.324 C 
ATOM      6  O   UNL     1      11.114   1.768  24.047  0.00  0.00    -0.249 OA
BRANCH   5   7
ATOM      7  C   UNL     1       8.928   2.042  22.964  0.00  0.00    +0.163 C 
BRANCH   7   9
ATOM      8  C   UNL     1       7.289   3.884  22.268  0.00  0.00    +0.009 C 
ATOM      9  C   UNL     1       8.233   3.369  23.362  0.00  0.00    +0.010 C 
ATOM     10  C   UNL     1       9.251   4.479  23.677  0.00  0.00    +0.009 C 
ENDBRANCH   7   9
BRANCH   7  11
ATOM     11  N   UNL     1       9.682   2.240  21.695  0.00  0.00    -0.318 NA
ATOM     12  H   UNL     1      10.133   1.352  21.456  0.00  0.00    +0.119 HD
ATOM     13  H   UNL     1       9.010   2.377  20.937  0.00  0.00    +0.119 HD
ENDBRANCH   7  11
ENDBRANCH   5   7
ENDBRANCH   4   5
ENDBRANCH   3   4
ENDBRANCH   2   3
BRANCH   2  14
ATOM     14  C   UNL     1       9.139  -1.681  22.091  0.00  0.00    +0.190 C 
BRANCH  14  15
ATOM     15  O   UNL     1       9.806  -0.838  21.151  0.00  0.00    -0.392 OA
ATOM     16  H   UNL     1      10.765  -0.919  21.294  0.00  0.00    +0.210 HD
ENDBRANCH  14  15
ENDBRANCH   2  14
ENDBRANCH   1   2
BRANCH   1  17
ATOM     17  C   UNL     1       8.740  -3.612  23.889  0.00  0.00    +0.288 C 
BRANCH  17  18
ATOM     18  N   UNL     1       8.276  -4.402  25.015  0.00  0.00    -0.291 N 
ATOM     19  C   UNL     1       7.120  -5.133  25.010  0.00  0.00    +0.171 A 
ATOM     20  N   UNL     1       6.322  -5.373  23.940  0.00  0.00    -0.196 NA
ATOM     21  C   UNL     1       5.256  -6.065  24.237  0.00  0.00    +0.195 A 
ATOM     22  N   UNL     1       4.371  -6.392  23.260  0.00  0.00    -0.329 N 
ATOM     23  H   UNL     1       3.929  -7.298  23.338  0.00  0.00    +0.145 HD
ATOM     24  H   UNL     1       4.751  -6.223  22.334  0.00  0.00    +0.145 HD
ATOM     25  N   UNL     1       4.958  -6.509  25.508  0.00  0.00    -0.293 N 
ATOM     26  H   UNL     1       4.093  -6.989  25.687  0.00  0.00    +0.172 HD
ATOM     27  C   UNL     1       5.736  -6.263  26.634  0.00  0.00    +0.280 A 
ATOM     28  O   UNL     1       5.394  -6.642  27.749  0.00  0.00    -0.265 OA
ATOM     29  C   UNL     1       6.934  -5.513  26.318  0.00  0.00    +0.172 A 
ATOM     30  N   UNL     1       7.947  -5.052  27.124  0.00  0.00    -0.229 NA
ATOM     31  C   UNL     1       8.735  -4.381  26.305  0.00  0.00    +0.203 A 
ENDBRANCH  17  18
ENDBRANCH   1  17
TORSDOF 11
ENDMDL
MODEL 9
REMARK VINA RESULT:      -5.8      2.457      7.377
REMARK  Name = 
REMARK  13 active torsions:
REMARK  status: ('A' for Active; 'I' for Inactive)
REMARK    1  A    between atoms: C_1  and  C_2
REMARK    2  A    between atoms: C_2  and  C_3
REMARK    3  A    between atoms: C_2  and  C_4
REMARK    4  A    between atoms: C_4  and  C_6
REMARK    5  A    between atoms: C_4  and  N_27
REMARK    6  A    between atoms: C_6  and  O_8
REMARK    7  A    between atoms: O_8  and  C_9
REMARK    8  A    between atoms: C_9  and  C_10
REMARK    9  A    between atoms: C_10  and  C_12
REMARK   10  A    between atoms: C_10  and  O_14
REMARK   11  A    between atoms: C_12  and  O_13
REMARK   12  A    between atoms: O_14  and  C_15
REMARK   13  A    between atoms: C_15  and  N_16
REMARK                            x       y       z     vdW  Elec       q    Type
REMARK                         _______ _______ _______ _____ _____    ______ ____
ROOT
ATOM      1  O   UNL     1       8.374  -4.695  23.267  0.00  0.00    -0.350 OA
ENDROOT
BRANCH   1   2
ATOM      2  C   UNL     1       8.316  -5.381  24.540  0.00  0.00    +0.183 C 
BRANCH   2   3
ATOM      3  C   UNL     1       7.047  -4.937  25.288  0.00  0.00    +0.266 C 
BRANCH   3   4
ATOM      4  O   UNL     1       6.688  -5.878  26.324  0.00  0.00    -0.461 OA
BRANCH   4   5
ATOM      5  C   UNL     1       6.152  -5.336  27.454  0.00  0.00    +0.324 C 
ATOM      6  O   UNL     1       6.530  -4.284  27.955  0.00  0.00    -0.249 OA
BRANCH   5   7
ATOM      7  C   UNL     1       4.932  -6.147  27.968  0.00  0.00    +0.163 C 
BRANCH   7   9
ATOM      8  C   UNL     1       3.901  -7.140  25.843  0.00  0.00    +0.009 C 
ATOM      9  C   UNL     1       3.720  -6.152  27.002  0.00  0.00    +0.010 C 
ATOM     10  C   UNL     1       3.453  -4.758  26.407  0.00  0.00    +0.009 C 
ENDBRANCH   7   9
BRANCH   7  11
ATOM     11  N   UNL     1       5.380  -7.547  28.207  0.00  0.00    -0.318 NA
ATOM     12  H   UNL     1       4.992  -8.132  27.460  0.00  0.00    +0.119 HD
ATOM     13  H   UNL     1       6.388  -7.596  28.048  0.00  0.00    +0.119 HD
ENDBRANCH   7  11
ENDBRANCH   5   7
ENDBRANCH   4   5
ENDBRANCH   3   4
ENDBRANCH   2   3
BRANCH   2  14
ATOM     14  C   UNL     1       9.555  -5.081  25.410  0.00  0.00    +0.190 C 
BRANCH  14  15
ATOM     15  O   UNL     1       9.210  -4.352  26.589  0.00  0.00    -0.392 OA
ATOM     16  H   UNL     1       8.839  -3.493  26.320  0.00  0.00    +0.210 HD
ENDBRANCH  14  15
ENDBRANCH   2  14
ENDBRANCH   1   2
BRANCH   1  17
ATOM     17  C   UNL     1       7.756  -3.403  23.336  0.00  0.00    +0.288 C 
BRANCH  17  18
ATOM     18  N   UNL     1       8.726  -2.337  23.163  0.00  0.00    -0.291 N 
ATOM     19  C   UNL     1       9.102  -1.477  24.158  0.00  0.00    +0.171 A 
ATOM     20  N   UNL     1       8.773  -1.569  25.470  0.00  0.00    -0.196 NA
ATOM     21  C   UNL     1       9.233  -0.581  26.187  0.00  0.00    +0.195 A 
ATOM     22  N   UNL     1       8.993  -0.548  27.523  0.00  0.00    -0.329 N 
ATOM     23  H   UNL     1       9.734  -0.181  28.105  0.00  0.00    +0.145 HD
ATOM     24  H   UNL     1       8.633  -1.434  27.864  0.00  0.00    +0.145 HD
ATOM     25  N   UNL     1       9.976   0.461  25.673  0.00  0.00    -0.293 N 
ATOM     26  H   UNL     1      10.255   1.225  26.264  0.00  0.00    +0.172 HD
ATOM     27  C   UNL     1      10.312   0.605  24.331  0.00  0.00    +0.280 A 
ATOM     28  O   UNL     1      10.934   1.581  23.924  0.00  0.00    -0.265 OA
ATOM     29  C   UNL     1       9.825  -0.495  23.524  0.00  0.00    +0.172 A 
ATOM     30  N   UNL     1       9.920  -0.733  22.174  0.00  0.00    -0.229 NA
ATOM     31  C   UNL     1       9.240  -1.849  21.991  0.00  0.00    +0.203 A 
ENDBRANCH  17  18
ENDBRANCH   1  17
TORSDOF 11
ENDMDL
