MODEL 1
REMARK VINA RESULT:      -6.3      0.000      0.000
REMARK  Name = 
REMARK  11 active torsions:
REMARK  status: ('A' for Active; 'I' for Inactive)
REMARK    1  A    between atoms: C_1  and  C_2
REMARK    2  A    between atoms: N_4  and  C_5
REMARK    3  A    between atoms: C_6  and  C_20
REMARK    4  A    between atoms: C_8  and  C_17
REMARK    5  A    between atoms: N_11  and  C_12
REMARK    6  A    between atoms: C_17  and  O_19
REMARK    7  A    between atoms: C_20  and  C_22
REMARK    8  A    between atoms: C_20  and  O_27
REMARK    9  A    between atoms: C_22  and  C_24
REMARK   10  A    between atoms: C_22  and  O_26
REMARK   11  A    between atoms: C_24  and  O_25
REMARK                            x       y       z     vdW  Elec       q    Type
REMARK                         _______ _______ _______ _____ _____    ______ ____
ROOT
ATOM      1  C   UNL     1       7.743  -3.295  23.844  0.00  0.00    +0.117 A 
ATOM      2  C   UNL     1       7.430  -3.791  25.234  0.00  0.00    +0.170 A 
ATOM      3  N   UNL     1       7.170  -5.058  25.390  0.00  0.00    -0.071 NA
ATOM      4  C   UNL     1       7.458  -2.758  26.292  0.00  0.00    +0.101 A 
ATOM      5  C   UNL     1       7.943  -1.542  25.998  0.00  0.00    +0.215 A 
ATOM      6  O   UNL     1       8.356  -1.163  24.742  0.00  0.00    -0.448 OA
ATOM      7  C   UNL     1       8.165  -2.029  23.670  0.00  0.00    +0.161 A 
ENDROOT
BRANCH   3   8
ATOM      8  C   UNL     1       6.919  -5.738  26.518  0.00  0.00    +0.382 C 
ATOM      9  N   UNL     1       5.726  -6.259  26.629  0.00  0.00    -0.289 N 
ATOM     10  H   UNL     1       5.437  -6.848  27.393  0.00  0.00    +0.255 HD
ATOM     11  H   UNL     1       5.091  -6.113  25.855  0.00  0.00    +0.255 HD
ATOM     12  N   UNL     1       7.784  -5.989  27.466  0.00  0.00    -0.289 N 
ATOM     13  H   UNL     1       8.749  -5.710  27.378  0.00  0.00    +0.255 HD
ATOM     14  H   UNL     1       7.534  -6.508  28.297  0.00  0.00    +0.255 HD
ENDBRANCH   3   8
BRANCH   1  17
ATOM     15  C   UNL     1       6.328  -5.212  21.000  0.00  0.00    +0.109 C 
ATOM     16  C   UNL     1       6.329  -4.302  22.199  0.00  0.00    +0.214 C 
ATOM     17  N   UNL     1       7.576  -4.201  22.809  0.00  0.00    -0.280 N 
ATOM     18  H   UNL     1       8.308  -4.156  22.103  0.00  0.00    +0.155 HD
ATOM     19  O   UNL     1       5.330  -3.709  22.588  0.00  0.00    -0.276 OA
ENDBRANCH   1  17
BRANCH   5  20
ATOM     20  C   UNL     1       8.050  -0.553  27.096  0.00  0.00    +0.373 C 
ATOM     21  O   UNL     1       7.094   0.082  27.510  0.00  0.00    -0.242 OA
BRANCH  20  22
ATOM     22  O   UNL     1       9.295  -0.460  27.590  0.00  0.00    -0.475 OA
ATOM     23  H   UNL     1       9.978  -0.965  27.101  0.00  0.00    +0.296 HD
ENDBRANCH  20  22
ENDBRANCH   5  20
BRANCH   7  24
ATOM     24  C   UNL     1       8.423  -1.362  22.330  0.00  0.00    +0.213 C 
BRANCH  24  25
ATOM     25  O   UNL     1       9.622  -1.916  21.774  0.00  0.00    -0.381 OA
ATOM     26  H   UNL     1       9.798  -1.450  20.937  0.00  0.00    +0.210 HD
ENDBRANCH  24  25
BRANCH  24  27
ATOM     27  C   UNL     1       8.578   0.181  22.454  0.00  0.00    +0.176 C 
BRANCH  27  28
ATOM     28  O   UNL     1       7.330   0.819  22.790  0.00  0.00    -0.387 OA
ATOM     29  H   UNL     1       6.642   0.511  22.176  0.00  0.00    +0.210 HD
ENDBRANCH  27  28
BRANCH  27  30
ATOM     30  C   UNL     1       9.078   0.864  21.173  0.00  0.00    +0.190 C 
BRANCH  30  31
ATOM     31  O   UNL     1       9.856   2.009  21.520  0.00  0.00    -0.392 OA
ATOM     32  H   UNL     1      10.475   2.131  20.771  0.00  0.00    +0.210 HD
ENDBRANCH  30  31
ENDBRANCH  27  30
ENDBRANCH  24  27
ENDBRANCH   7  24
TORSDOF 10
ENDMDL
MODEL 2
REMARK VINA RESULT:      -6.2      1.484      4.204
REMARK  Name = 
REMARK  11 active torsions:
REMARK  status: ('A' for Active; 'I' for Inactive)
REMARK    1  A    between atoms: C_1  and  C_2
REMARK    2  A    between atoms: N_4  and  C_5
REMARK    3  A    between atoms: C_6  and  C_20
REMARK    4  A    between atoms: C_8  and  C_17
REMARK    5  A    between atoms: N_11  and  C_12
REMARK    6  A    between atoms: C_17  and  O_19
REMARK    7  A    between atoms: C_20  and  C_22
REMARK    8  A    between atoms: C_20  and  O_27
REMARK    9  A    between atoms: C_22  and  C_24
REMARK   10  A    between atoms: C_22  and  O_26
REMARK   11  A    between atoms: C_24  and  O_25
REMARK                            x       y       z     vdW  Elec       q    Type
REMARK                         _______ _______ _______ _____ _____    ______ ____
ROOT
ATOM      1  C   UNL     1       8.183  -2.830  24.341  0.00  0.00    +0.117 A 
ATOM      2  C   UNL     1       7.509  -4.083  24.845  0.00  0.00    +0.170 A 
ATOM      3  N   UNL     1       7.448  -4.272  26.132  0.00  0.00    -0.071 NA
ATOM      4  C   UNL     1       6.977  -4.977  23.794  0.00  0.00    +0.101 A 
ATOM      5  C   UNL     1       6.940  -4.539  22.526  0.00  0.00    +0.215 A 
ATOM      6  O   UNL     1       7.438  -3.323  22.121  0.00  0.00    -0.448 OA
ATOM      7  C   UNL     1       8.128  -2.528  23.031  0.00  0.00    +0.161 A 
ENDROOT
BRANCH   3   8
ATOM      8  C   UNL     1       6.863  -5.266  26.815  0.00  0.00    +0.382 C 
ATOM      9  N   UNL     1       7.658  -6.058  27.485  0.00  0.00    -0.289 N 
ATOM     10  H   UNL     1       7.338  -6.796  28.091  0.00  0.00    +0.255 HD
ATOM     11  H   UNL     1       8.648  -5.854  27.442  0.00  0.00    +0.255 HD
ATOM     12  N   UNL     1       5.574  -5.459  26.929  0.00  0.00    -0.289 N 
ATOM     13  H   UNL     1       4.914  -4.811  26.527  0.00  0.00    +0.255 HD
ATOM     14  H   UNL     1       5.191  -6.231  27.459  0.00  0.00    +0.255 HD
ENDBRANCH   3   8
BRANCH   1  17
ATOM     15  C   UNL     1       8.871  -0.442  27.094  0.00  0.00    +0.109 C 
ATOM     16  C   UNL     1       8.083  -1.114  26.002  0.00  0.00    +0.214 C 
ATOM     17  N   UNL     1       8.826  -2.048  25.286  0.00  0.00    -0.280 N 
ATOM     18  H   UNL     1       9.423  -2.578  25.919  0.00  0.00    +0.155 HD
ATOM     19  O   UNL     1       6.905  -0.861  25.777  0.00  0.00    -0.276 OA
ENDBRANCH   1  17
BRANCH   5  20
ATOM     20  C   UNL     1       6.316  -5.413  21.506  0.00  0.00    +0.373 C 
ATOM     21  O   UNL     1       5.917  -4.996  20.432  0.00  0.00    -0.242 OA
BRANCH  20  22
ATOM     22  O   UNL     1       6.270  -6.701  21.887  0.00  0.00    -0.475 OA
ATOM     23  H   UNL     1       6.443  -6.862  22.837  0.00  0.00    +0.296 HD
ENDBRANCH  20  22
ENDBRANCH   5  20
BRANCH   7  24
ATOM     24  C   UNL     1       8.836  -1.361  22.364  0.00  0.00    +0.213 C 
BRANCH  24  25
ATOM     25  O   UNL     1      10.178  -1.304  22.864  0.00  0.00    -0.381 OA
ATOM     26  H   UNL     1      10.547  -2.204  22.812  0.00  0.00    +0.210 HD
ENDBRANCH  24  25
BRANCH  24  27
ATOM     27  C   UNL     1       8.127  -0.003  22.633  0.00  0.00    +0.176 C 
BRANCH  27  28
ATOM     28  O   UNL     1       6.697  -0.155  22.729  0.00  0.00    -0.387 OA
ATOM     29  H   UNL     1       6.413   0.090  23.625  0.00  0.00    +0.210 HD
ENDBRANCH  27  28
BRANCH  27  30
ATOM     30  C   UNL     1       8.374   1.056  21.549  0.00  0.00    +0.190 C 
BRANCH  30  31
ATOM     31  O   UNL     1       9.765   1.374  21.507  0.00  0.00    -0.392 OA
ATOM     32  H   UNL     1      10.045   1.408  22.444  0.00  0.00    +0.210 HD
ENDBRANCH  30  31
ENDBRANCH  27  30
ENDBRANCH  24  27
ENDBRANCH   7  24
TORSDOF 10
ENDMDL
MODEL 3
REMARK VINA RESULT:      -6.2      3.808      4.988
REMARK  Name = 
REMARK  11 active torsions:
REMARK  status: ('A' for Active; 'I' for Inactive)
REMARK    1  A    between atoms: C_1  and  C_2
REMARK    2  A    between atoms: N_4  and  C_5
REMARK    3  A    between atoms: C_6  and  C_20
REMARK    4  A    between atoms: C_8  and  C_17
REMARK    5  A    between atoms: N_11  and  C_12
REMARK    6  A    between atoms: C_17  and  O_19
REMARK    7  A    between atoms: C_20  and  C_22
REMARK    8  A    between atoms: C_20  and  O_27
REMARK    9  A    between atoms: C_22  and  C_24
REMARK   10  A    between atoms: C_22  and  O_26
REMARK   11  A    between atoms: C_24  and  O_25
REMARK                            x       y       z     vdW  Elec       q    Type
REMARK                         _______ _______ _______ _____ _____    ______ ____
ROOT
ATOM      1  C   UNL     1       5.181  -5.504  25.575  0.00  0.00    +0.117 A 
ATOM      2  C   UNL     1       6.048  -5.697  26.795  0.00  0.00    +0.170 A 
ATOM      3  N   UNL     1       5.488  -6.144  27.883  0.00  0.00    -0.071 NA
ATOM      4  C   UNL     1       7.474  -5.352  26.613  0.00  0.00    +0.101 A 
ATOM      5  C   UNL     1       7.929  -5.102  25.375  0.00  0.00    +0.215 A 
ATOM      6  O   UNL     1       7.130  -5.073  24.256  0.00  0.00    -0.448 OA
ATOM      7  C   UNL     1       5.751  -5.193  24.397  0.00  0.00    +0.161 A 
ENDROOT
BRANCH   3   8
ATOM      8  C   UNL     1       6.050  -6.444  29.062  0.00  0.00    +0.382 C 
ATOM      9  N   UNL     1       5.761  -5.653  30.062  0.00  0.00    -0.289 N 
ATOM     10  H   UNL     1       6.062  -5.810  31.010  0.00  0.00    +0.255 HD
ATOM     11  H   UNL     1       5.133  -4.884  29.868  0.00  0.00    +0.255 HD
ATOM     12  N   UNL     1       6.788  -7.495  29.311  0.00  0.00    -0.289 N 
ATOM     13  H   UNL     1       6.947  -8.198  28.606  0.00  0.00    +0.255 HD
ATOM     14  H   UNL     1       7.187  -7.667  30.224  0.00  0.00    +0.255 HD
ENDBRANCH   3   8
BRANCH   1  17
ATOM     15  C   UNL     1       1.797  -6.997  25.870  0.00  0.00    +0.109 C 
ATOM     16  C   UNL     1       3.253  -6.917  25.497  0.00  0.00    +0.214 C 
ATOM     17  N   UNL     1       3.817  -5.670  25.752  0.00  0.00    -0.280 N 
ATOM     18  H   UNL     1       3.471  -5.305  26.637  0.00  0.00    +0.155 HD
ATOM     19  O   UNL     1       3.874  -7.861  25.022  0.00  0.00    -0.276 OA
ENDBRANCH   1  17
BRANCH   5  20
ATOM     20  C   UNL     1       9.379  -4.852  25.204  0.00  0.00    +0.373 C 
ATOM     21  O   UNL     1       9.818  -3.971  24.485  0.00  0.00    -0.242 OA
BRANCH  20  22
ATOM     22  O   UNL     1      10.137  -5.678  25.945  0.00  0.00    -0.475 OA
ATOM     23  H   UNL     1      10.813  -6.183  25.447  0.00  0.00    +0.296 HD
ENDBRANCH  20  22
ENDBRANCH   5  20
BRANCH   7  24
ATOM     24  C   UNL     1       5.005  -4.874  23.113  0.00  0.00    +0.213 C 
BRANCH  24  25
ATOM     25  O   UNL     1       4.332  -6.061  22.676  0.00  0.00    -0.381 OA
ATOM     26  H   UNL     1       3.465  -6.084  23.118  0.00  0.00    +0.210 HD
ENDBRANCH  24  25
BRANCH  24  27
ATOM     27  C   UNL     1       5.950  -4.371  21.985  0.00  0.00    +0.176 C 
BRANCH  27  28
ATOM     28  O   UNL     1       5.355  -3.299  21.226  0.00  0.00    -0.387 OA
ATOM     29  H   UNL     1       4.388  -3.356  21.304  0.00  0.00    +0.210 HD
ENDBRANCH  27  28
BRANCH  27  30
ATOM     30  C   UNL     1       6.340  -5.452  20.967  0.00  0.00    +0.190 C 
BRANCH  30  31
ATOM     31  O   UNL     1       7.168  -6.425  21.605  0.00  0.00    -0.392 OA
ATOM     32  H   UNL     1       6.553  -7.130  21.892  0.00  0.00    +0.210 HD
ENDBRANCH  30  31
ENDBRANCH  27  30
ENDBRANCH  24  27
ENDBRANCH   7  24
TORSDOF 10
ENDMDL
MODEL 4
REMARK VINA RESULT:      -6.1      2.246      4.461
REMARK  Name = 
REMARK  11 active torsions:
REMARK  status: ('A' for Active; 'I' for Inactive)
REMARK    1  A    between atoms: C_1  and  C_2
REMARK    2  A    between atoms: N_4  and  C_5
REMARK    3  A    between atoms: C_6  and  C_20
REMARK    4  A    between atoms: C_8  and  C_17
REMARK    5  A    between atoms: N_11  and  C_12
REMARK    6  A    between atoms: C_17  and  O_19
REMARK    7  A    between atoms: C_20  and  C_22
REMARK    8  A    between atoms: C_20  and  O_27
REMARK    9  A    between atoms: C_22  and  C_24
REMARK   10  A    between atoms: C_22  and  O_26
REMARK   11  A    between atoms: C_24  and  O_25
REMARK                            x       y       z     vdW  Elec       q    Type
REMARK                         _______ _______ _______ _____ _____    ______ ____
ROOT
ATOM      1  C   UNL     1       7.984  -1.668  24.324  0.00  0.00    +0.117 A 
ATOM      2  C   UNL     1       8.107  -3.147  24.599  0.00  0.00    +0.170 A 
ATOM      3  N   UNL     1       8.992  -3.538  25.472  0.00  0.00    -0.071 NA
ATOM      4  C   UNL     1       7.183  -4.008  23.831  0.00  0.00    +0.101 A 
ATOM      5  C   UNL     1       6.196  -3.434  23.127  0.00  0.00    +0.215 A 
ATOM      6  O   UNL     1       6.026  -2.075  23.011  0.00  0.00    -0.448 OA
ATOM      7  C   UNL     1       6.982  -1.218  23.549  0.00  0.00    +0.161 A 
ENDROOT
BRANCH   3   8
ATOM      8  C   UNL     1       9.249  -4.775  25.920  0.00  0.00    +0.382 C 
ATOM      9  N   UNL     1       8.435  -5.245  26.828  0.00  0.00    -0.289 N 
ATOM     10  H   UNL     1       8.479  -6.183  27.193  0.00  0.00    +0.255 HD
ATOM     11  H   UNL     1       7.674  -4.643  27.114  0.00  0.00    +0.255 HD
ATOM     12  N   UNL     1      10.186  -5.570  25.473  0.00  0.00    -0.289 N 
ATOM     13  H   UNL     1      10.769  -5.301  24.694  0.00  0.00    +0.255 HD
ATOM     14  H   UNL     1      10.333  -6.495  25.854  0.00  0.00    +0.255 HD
ENDBRANCH   3   8
BRANCH   1  17
ATOM     15  C   UNL     1      10.973   0.455  24.893  0.00  0.00    +0.109 C 
ATOM     16  C   UNL     1      10.101  -0.562  24.206  0.00  0.00    +0.214 C 
ATOM     17  N   UNL     1       8.934  -0.847  24.910  0.00  0.00    -0.280 N 
ATOM     18  H   UNL     1       8.549   0.007  25.308  0.00  0.00    +0.155 HD
ATOM     19  O   UNL     1      10.393  -1.077  23.133  0.00  0.00    -0.276 OA
ENDBRANCH   1  17
BRANCH   5  20
ATOM     20  C   UNL     1       5.225  -4.320  22.441  0.00  0.00    +0.373 C 
ATOM     21  O   UNL     1       4.108  -4.541  22.878  0.00  0.00    -0.242 OA
BRANCH  20  22
ATOM     22  O   UNL     1       5.703  -4.818  21.289  0.00  0.00    -0.475 OA
ATOM     23  H   UNL     1       6.663  -4.689  21.144  0.00  0.00    +0.296 HD
ENDBRANCH  20  22
ENDBRANCH   5  20
BRANCH   7  24
ATOM     24  C   UNL     1       6.787   0.221  23.106  0.00  0.00    +0.213 C 
BRANCH  24  25
ATOM     25  O   UNL     1       8.043   0.720  22.630  0.00  0.00    -0.381 OA
ATOM     26  H   UNL     1       7.940   0.916  21.682  0.00  0.00    +0.210 HD
ENDBRANCH  24  25
BRANCH  24  27
ATOM     27  C   UNL     1       6.271   1.134  24.255  0.00  0.00    +0.176 C 
BRANCH  27  28
ATOM     28  O   UNL     1       4.959   1.660  23.973  0.00  0.00    -0.387 OA
ATOM     29  H   UNL     1       4.825   1.677  23.010  0.00  0.00    +0.210 HD
ENDBRANCH  27  28
BRANCH  27  30
ATOM     30  C   UNL     1       7.168   2.347  24.540  0.00  0.00    +0.190 C 
BRANCH  30  31
ATOM     31  O   UNL     1       8.061   2.035  25.609  0.00  0.00    -0.392 OA
ATOM     32  H   UNL     1       7.867   1.103  25.836  0.00  0.00    +0.210 HD
ENDBRANCH  30  31
ENDBRANCH  27  30
ENDBRANCH  24  27
ENDBRANCH   7  24
TORSDOF 10
ENDMDL
MODEL 5
REMARK VINA RESULT:      -6.1      2.832      3.853
REMARK  Name = 
REMARK  11 active torsions:
REMARK  status: ('A' for Active; 'I' for Inactive)
REMARK    1  A    between atoms: C_1  and  C_2
REMARK    2  A    between atoms: N_4  and  C_5
REMARK    3  A    between atoms: C_6  and  C_20
REMARK    4  A    between atoms: C_8  and  C_17
REMARK    5  A    between atoms: N_11  and  C_12
REMARK    6  A    between atoms: C_17  and  O_19
REMARK    7  A    between atoms: C_20  and  C_22
REMARK    8  A    between atoms: C_20  and  O_27
REMARK    9  A    between atoms: C_22  and  C_24
REMARK   10  A    between atoms: C_22  and  O_26
REMARK   11  A    between atoms: C_24  and  O_25
REMARK                            x       y       z     vdW  Elec       q    Type
REMARK                         _______ _______ _______ _____ _____    ______ ____
ROOT
ATOM      1  C   UNL     1       7.309  -1.200  23.526  0.00  0.00    +0.117 A 
ATOM      2  C   UNL     1       6.528  -2.044  24.504  0.00  0.00    +0.170 A 
ATOM      3  N   UNL     1       5.251  -1.821  24.623  0.00  0.00    -0.071 NA
ATOM      4  C   UNL     1       7.321  -3.057  25.234  0.00  0.00    +0.101 A 
ATOM      5  C   UNL     1       8.583  -3.295  24.846  0.00  0.00    +0.215 A 
ATOM      6  O   UNL     1       9.224  -2.599  23.848  0.00  0.00    -0.448 OA
ATOM      7  C   UNL     1       8.593  -1.504  23.265  0.00  0.00    +0.161 A 
ENDROOT
BRANCH   3   8
ATOM      8  C   UNL     1       4.346  -2.465  25.375  0.00  0.00    +0.382 C 
ATOM      9  N   UNL     1       4.082  -1.941  26.543  0.00  0.00    -0.289 N 
ATOM     10  H   UNL     1       3.374  -2.288  27.169  0.00  0.00    +0.255 HD
ATOM     11  H   UNL     1       4.574  -1.090  26.783  0.00  0.00    +0.255 HD
ATOM     12  N   UNL     1       3.656  -3.513  25.009  0.00  0.00    -0.289 N 
ATOM     13  H   UNL     1       3.737  -3.890  24.077  0.00  0.00    +0.255 HD
ATOM     14  H   UNL     1       2.987  -3.958  25.623  0.00  0.00    +0.255 HD
ENDBRANCH   3   8
BRANCH   1  17
ATOM     15  C   UNL     1       6.056   2.195  22.712  0.00  0.00    +0.109 C 
ATOM     16  C   UNL     1       6.712   1.115  23.530  0.00  0.00    +0.214 C 
ATOM     17  N   UNL     1       6.632  -0.143  22.940  0.00  0.00    -0.280 N 
ATOM     18  H   UNL     1       6.780  -0.068  21.935  0.00  0.00    +0.155 HD
ATOM     19  O   UNL     1       7.264   1.332  24.602  0.00  0.00    -0.276 OA
ENDBRANCH   1  17
BRANCH   5  20
ATOM     20  C   UNL     1       9.327  -4.379  25.528  0.00  0.00    +0.373 C 
ATOM     21  O   UNL     1       9.098  -4.717  26.677  0.00  0.00    -0.242 OA
BRANCH  20  22
ATOM     22  O   UNL     1      10.247  -4.954  24.736  0.00  0.00    -0.475 OA
ATOM     23  H   UNL     1      10.976  -5.411  25.205  0.00  0.00    +0.296 HD
ENDBRANCH  20  22
ENDBRANCH   5  20
BRANCH   7  24
ATOM     24  C   UNL     1       9.530  -0.695  22.384  0.00  0.00    +0.213 C 
BRANCH  24  25
ATOM     25  O   UNL     1      10.376  -1.605  21.672  0.00  0.00    -0.381 OA
ATOM     26  H   UNL     1      10.861  -2.131  22.333  0.00  0.00    +0.210 HD
ENDBRANCH  24  25
BRANCH  24  27
ATOM     27  C   UNL     1      10.408   0.296  23.201  0.00  0.00    +0.176 C 
BRANCH  27  28
ATOM     28  O   UNL     1      10.144   0.204  24.615  0.00  0.00    -0.387 OA
ATOM     29  H   UNL     1       9.458   0.851  24.851  0.00  0.00    +0.210 HD
ENDBRANCH  27  28
BRANCH  27  30
ATOM     30  C   UNL     1      10.208   1.769  22.821  0.00  0.00    +0.190 C 
BRANCH  30  31
ATOM     31  O   UNL     1       9.779   1.853  21.462  0.00  0.00    -0.392 OA
ATOM     32  H   UNL     1      10.229   2.645  21.103  0.00  0.00    +0.210 HD
ENDBRANCH  30  31
ENDBRANCH  27  30
ENDBRANCH  24  27
ENDBRANCH   7  24
TORSDOF 10
ENDMDL
MODEL 6
REMARK VINA RESULT:      -6.0      3.968      7.215
REMARK  Name = 
REMARK  11 active torsions:
REMARK  status: ('A' for Active; 'I' for Inactive)
REMARK    1  A    between atoms: C_1  and  C_2
REMARK    2  A    between atoms: N_4  and  C_5
REMARK    3  A    between atoms: C_6  and  C_20
REMARK    4  A    between atoms: C_8  and  C_17
REMARK    5  A    between atoms: N_11  and  C_12
REMARK    6  A    between atoms: C_17  and  O_19
REMARK    7  A    between atoms: C_20  and  C_22
REMARK    8  A    between atoms: C_20  and  O_27
REMARK    9  A    between atoms: C_22  and  C_24
REMARK   10  A    between atoms: C_22  and  O_26
REMARK   11  A    between atoms: C_24  and  O_25
REMARK                            x       y       z     vdW  Elec       q    Type
REMARK                         _______ _______ _______ _____ _____    ______ ____
ROOT
ATOM      1  C   UNL     1       5.235  -6.352  25.438  0.00  0.00    +0.117 A 
ATOM      2  C   UNL     1       6.529  -5.624  25.168  0.00  0.00    +0.170 A 
ATOM      3  N   UNL     1       7.448  -5.644  26.091  0.00  0.00    -0.071 NA
ATOM      4  C   UNL     1       6.612  -4.955  23.852  0.00  0.00    +0.101 A 
ATOM      5  C   UNL     1       5.661  -5.202  22.938  0.00  0.00    +0.215 A 
ATOM      6  O   UNL     1       4.559  -5.991  23.171  0.00  0.00    -0.448 OA
ATOM      7  C   UNL     1       4.329  -6.482  24.452  0.00  0.00    +0.161 A 
ENDROOT
BRANCH   3   8
ATOM      8  C   UNL     1       8.684  -5.124  26.066  0.00  0.00    +0.382 C 
ATOM      9  N   UNL     1       8.823  -3.930  26.579  0.00  0.00    -0.289 N 
ATOM     10  H   UNL     1       9.708  -3.461  26.683  0.00  0.00    +0.255 HD
ATOM     11  H   UNL     1       7.991  -3.497  26.959  0.00  0.00    +0.255 HD
ATOM     12  N   UNL     1       9.762  -5.736  25.650  0.00  0.00    -0.289 N 
ATOM     13  H   UNL     1       9.730  -6.699  25.351  0.00  0.00    +0.255 HD
ATOM     14  H   UNL     1      10.669  -5.290  25.654  0.00  0.00    +0.255 HD
ENDBRANCH   3   8
BRANCH   1  17
ATOM     15  C   UNL     1       4.147  -6.812  28.955  0.00  0.00    +0.109 C 
ATOM     16  C   UNL     1       4.393  -6.084  27.660  0.00  0.00    +0.214 C 
ATOM     17  N   UNL     1       5.063  -6.858  26.716  0.00  0.00    -0.280 N 
ATOM     18  H   UNL     1       4.711  -7.813  26.734  0.00  0.00    +0.155 HD
ATOM     19  O   UNL     1       4.031  -4.930  27.464  0.00  0.00    -0.276 OA
ENDBRANCH   1  17
BRANCH   5  20
ATOM     20  C   UNL     1       5.815  -4.597  21.595  0.00  0.00    +0.373 C 
ATOM     21  O   UNL     1       6.071  -5.253  20.599  0.00  0.00    -0.242 OA
BRANCH  20  22
ATOM     22  O   UNL     1       5.614  -3.268  21.599  0.00  0.00    -0.475 OA
ATOM     23  H   UNL     1       5.285  -2.899  22.445  0.00  0.00    +0.296 HD
ENDBRANCH  20  22
ENDBRANCH   5  20
BRANCH   7  24
ATOM     24  C   UNL     1       2.948  -7.099  24.599  0.00  0.00    +0.213 C 
BRANCH  24  25
ATOM     25  O   UNL     1       3.107  -8.469  24.988  0.00  0.00    -0.381 OA
ATOM     26  H   UNL     1       2.579  -9.010  24.372  0.00  0.00    +0.210 HD
ENDBRANCH  24  25
BRANCH  24  27
ATOM     27  C   UNL     1       2.121  -7.029  23.283  0.00  0.00    +0.176 C 
BRANCH  27  28
ATOM     28  O   UNL     1       1.903  -5.668  22.861  0.00  0.00    -0.387 OA
ATOM     29  H   UNL     1       2.750  -5.192  22.875  0.00  0.00    +0.210 HD
ENDBRANCH  27  28
BRANCH  27  30
ATOM     30  C   UNL     1       0.733  -7.676  23.382  0.00  0.00    +0.190 C 
BRANCH  30  31
ATOM     31  O   UNL     1       0.860  -9.091  23.236  0.00  0.00    -0.392 OA
ATOM     32  H   UNL     1       0.101  -9.464  23.729  0.00  0.00    +0.210 HD
ENDBRANCH  30  31
ENDBRANCH  27  30
ENDBRANCH  24  27
ENDBRANCH   7  24
TORSDOF 10
ENDMDL
MODEL 7
REMARK VINA RESULT:      -5.8      2.627      5.500
REMARK  Name = 
REMARK  11 active torsions:
REMARK  status: ('A' for Active; 'I' for Inactive)
REMARK    1  A    between atoms: C_1  and  C_2
REMARK    2  A    between atoms: N_4  and  C_5
REMARK    3  A    between atoms: C_6  and  C_20
REMARK    4  A    between atoms: C_8  and  C_17
REMARK    5  A    between atoms: N_11  and  C_12
REMARK    6  A    between atoms: C_17  and  O_19
REMARK    7  A    between atoms: C_20  and  C_22
REMARK    8  A    between atoms: C_20  and  O_27
REMARK    9  A    between atoms: C_22  and  C_24
REMARK   10  A    between atoms: C_22  and  O_26
REMARK   11  A    between atoms: C_24  and  O_25
REMARK                            x       y       z     vdW  Elec       q    Type
REMARK                         _______ _______ _______ _____ _____    ______ ____
ROOT
ATOM      1  C   UNL     1       7.452  -3.822  23.978  0.00  0.00    +0.117 A 
ATOM      2  C   UNL     1       8.127  -2.512  23.652  0.00  0.00    +0.170 A 
ATOM      3  N   UNL     1       8.463  -2.286  22.415  0.00  0.00    -0.071 NA
ATOM      4  C   UNL     1       8.333  -1.608  24.804  0.00  0.00    +0.101 A 
ATOM      5  C   UNL     1       7.746  -1.902  25.974  0.00  0.00    +0.215 A 
ATOM      6  O   UNL     1       7.013  -3.044  26.198  0.00  0.00    -0.448 OA
ATOM      7  C   UNL     1       6.954  -4.023  25.212  0.00  0.00    +0.161 A 
ENDROOT
BRANCH   3   8
ATOM      8  C   UNL     1       9.018  -1.191  21.874  0.00  0.00    +0.382 C 
ATOM      9  N   UNL     1       8.285  -0.109  21.874  0.00  0.00    -0.289 N 
ATOM     10  H   UNL     1       8.611   0.792  21.562  0.00  0.00    +0.255 HD
ATOM     11  H   UNL     1       7.364  -0.181  22.286  0.00  0.00    +0.255 HD
ATOM     12  N   UNL     1      10.243  -1.097  21.427  0.00  0.00    -0.289 N 
ATOM     13  H   UNL     1      10.887  -1.869  21.509  0.00  0.00    +0.255 HD
ATOM     14  H   UNL     1      10.605  -0.241  21.028  0.00  0.00    +0.255 HD
ENDBRANCH   3   8
BRANCH   1  17
ATOM     15  C   UNL     1       6.369  -5.734  20.989  0.00  0.00    +0.109 C 
ATOM     16  C   UNL     1       6.250  -4.777  22.145  0.00  0.00    +0.214 C 
ATOM     17  N   UNL     1       7.381  -4.754  22.956  0.00  0.00    -0.280 N 
ATOM     18  H   UNL     1       8.222  -4.800  22.384  0.00  0.00    +0.155 HD
ATOM     19  O   UNL     1       5.256  -4.087  22.341  0.00  0.00    -0.276 OA
ENDBRANCH   1  17
BRANCH   5  20
ATOM     20  C   UNL     1       7.888  -0.934  27.086  0.00  0.00    +0.373 C 
ATOM     21  O   UNL     1       6.934  -0.389  27.614  0.00  0.00    -0.242 OA
BRANCH  20  22
ATOM     22  O   UNL     1       9.167  -0.753  27.455  0.00  0.00    -0.475 OA
ATOM     23  H   UNL     1       9.780  -1.476  27.206  0.00  0.00    +0.296 HD
ENDBRANCH  20  22
ENDBRANCH   5  20
BRANCH   7  24
ATOM     24  C   UNL     1       6.339  -5.318  25.714  0.00  0.00    +0.213 C 
BRANCH  24  25
ATOM     25  O   UNL     1       4.991  -5.392  25.234  0.00  0.00    -0.381 OA
ATOM     26  H   UNL     1       4.416  -5.558  26.002  0.00  0.00    +0.210 HD
ENDBRANCH  24  25
BRANCH  24  27
ATOM     27  C   UNL     1       6.339  -5.415  27.267  0.00  0.00    +0.176 C 
BRANCH  27  28
ATOM     28  O   UNL     1       7.606  -5.879  27.774  0.00  0.00    -0.387 OA
ATOM     29  H   UNL     1       7.457  -6.353  28.610  0.00  0.00    +0.210 HD
ENDBRANCH  27  28
BRANCH  27  30
ATOM     30  C   UNL     1       5.274  -6.364  27.834  0.00  0.00    +0.190 C 
BRANCH  30  31
ATOM     31  O   UNL     1       5.916  -7.437  28.523  0.00  0.00    -0.392 OA
ATOM     32  H   UNL     1       6.264  -8.018  27.816  0.00  0.00    +0.210 HD
ENDBRANCH  30  31
ENDBRANCH  27  30
ENDBRANCH  24  27
ENDBRANCH   7  24
TORSDOF 10
ENDMDL
MODEL 8
REMARK VINA RESULT:      -5.8      2.464      5.226
REMARK  Name = 
REMARK  11 active torsions:
REMARK  status: ('A' for Active; 'I' for Inactive)
REMARK    1  A    between atoms: C_1  and  C_2
REMARK    2  A    between atoms: N_4  and  C_5
REMARK    3  A    between atoms: C_6  and  C_20
REMARK    4  A    between atoms: C_8  and  C_17
REMARK    5  A    between atoms: N_11  and  C_12
REMARK    6  A    between atoms: C_17  and  O_19
REMARK    7  A    between atoms: C_20  and  C_22
REMARK    8  A    between atoms: C_20  and  O_27
REMARK    9  A    between atoms: C_22  and  C_24
REMARK   10  A    between atoms: C_22  and  O_26
REMARK   11  A    between atoms: C_24  and  O_25
REMARK                            x       y       z     vdW  Elec       q    Type
REMARK                         _______ _______ _______ _____ _____    ______ ____
ROOT
ATOM      1  C   UNL     1       7.192  -3.517  24.894  0.00  0.00    +0.117 A 
ATOM      2  C   UNL     1       7.657  -2.134  25.281  0.00  0.00    +0.170 A 
ATOM      3  N   UNL     1       7.530  -1.769  26.525  0.00  0.00    -0.071 NA
ATOM      4  C   UNL     1       8.223  -1.329  24.177  0.00  0.00    +0.101 A 
ATOM      5  C   UNL     1       8.472  -1.925  23.001  0.00  0.00    +0.215 A 
ATOM      6  O   UNL     1       8.163  -3.236  22.725  0.00  0.00    -0.448 OA
ATOM      7  C   UNL     1       7.449  -3.982  23.658  0.00  0.00    +0.161 A 
ENDROOT
BRANCH   3   8
ATOM      8  C   UNL     1       7.912  -0.628  27.116  0.00  0.00    +0.382 C 
ATOM      9  N   UNL     1       6.988   0.283  27.272  0.00  0.00    -0.289 N 
ATOM     10  H   UNL     1       7.131   1.152  27.762  0.00  0.00    +0.255 HD
ATOM     11  H   UNL     1       6.060   0.053  26.943  0.00  0.00    +0.255 HD
ATOM     12  N   UNL     1       9.096  -0.386  27.614  0.00  0.00    -0.289 N 
ATOM     13  H   UNL     1       9.812  -1.096  27.623  0.00  0.00    +0.255 HD
ATOM     14  H   UNL     1       9.326   0.499  28.048  0.00  0.00    +0.255 HD
ENDBRANCH   3   8
BRANCH   1  17
ATOM     15  C   UNL     1       6.413  -5.620  27.849  0.00  0.00    +0.109 C 
ATOM     16  C   UNL     1       7.256  -5.010  26.761  0.00  0.00    +0.214 C 
ATOM     17  N   UNL     1       6.519  -4.239  25.865  0.00  0.00    -0.280 N 
ATOM     18  H   UNL     1       5.817  -3.697  26.366  0.00  0.00    +0.155 HD
ATOM     19  O   UNL     1       8.467  -5.175  26.682  0.00  0.00    -0.276 OA
ENDBRANCH   1  17
BRANCH   5  20
ATOM     20  C   UNL     1       9.126  -1.124  21.941  0.00  0.00    +0.373 C 
ATOM     21  O   UNL     1       8.718  -0.029  21.591  0.00  0.00    -0.242 OA
BRANCH  20  22
ATOM     22  O   UNL     1      10.220  -1.722  21.440  0.00  0.00    -0.475 OA
ATOM     23  H   UNL     1      11.017  -1.680  22.009  0.00  0.00    +0.296 HD
ENDBRANCH  20  22
ENDBRANCH   5  20
BRANCH   7  24
ATOM     24  C   UNL     1       6.962  -5.306  23.095  0.00  0.00    +0.213 C 
BRANCH  24  25
ATOM     25  O   UNL     1       7.963  -5.811  22.203  0.00  0.00    -0.381 OA
ATOM     26  H   UNL     1       7.849  -6.777  22.152  0.00  0.00    +0.210 HD
ENDBRANCH  24  25
BRANCH  24  27
ATOM     27  C   UNL     1       5.613  -5.169  22.332  0.00  0.00    +0.176 C 
BRANCH  27  28
ATOM     28  O   UNL     1       5.278  -3.790  22.082  0.00  0.00    -0.387 OA
ATOM     29  H   UNL     1       6.080  -3.314  21.809  0.00  0.00    +0.210 HD
ENDBRANCH  27  28
BRANCH  27  30
ATOM     30  C   UNL     1       4.413  -5.776  23.072  0.00  0.00    +0.190 C 
BRANCH  30  31
ATOM     31  O   UNL     1       3.276  -4.929  22.903  0.00  0.00    -0.392 OA
ATOM     32  H   UNL     1       2.865  -4.879  23.790  0.00  0.00    +0.210 HD
ENDBRANCH  30  31
ENDBRANCH  27  30
ENDBRANCH  24  27
ENDBRANCH   7  24
TORSDOF 10
ENDMDL
MODEL 9
REMARK VINA RESULT:      -5.7      2.672      5.499
REMARK  Name = 
REMARK  11 active torsions:
REMARK  status: ('A' for Active; 'I' for Inactive)
REMARK    1  A    between atoms: C_1  and  C_2
REMARK    2  A    between atoms: N_4  and  C_5
REMARK    3  A    between atoms: C_6  and  C_20
REMARK    4  A    between atoms: C_8  and  C_17
REMARK    5  A    between atoms: N_11  and  C_12
REMARK    6  A    between atoms: C_17  and  O_19
REMARK    7  A    between atoms: C_20  and  C_22
REMARK    8  A    between atoms: C_20  and  O_27
REMARK    9  A    between atoms: C_22  and  C_24
REMARK   10  A    between atoms: C_22  and  O_26
REMARK   11  A    between atoms: C_24  and  O_25
REMARK                            x       y       z     vdW  Elec       q    Type
REMARK                         _______ _______ _______ _____ _____    ______ ____
ROOT
ATOM      1  C   UNL     1       6.873  -4.373  25.618  0.00  0.00    +0.117 A 
ATOM      2  C   UNL     1       6.249  -5.289  26.642  0.00  0.00    +0.170 A 
ATOM      3  N   UNL     1       6.588  -5.136  27.890  0.00  0.00    -0.071 NA
ATOM      4  C   UNL     1       5.297  -6.282  26.101  0.00  0.00    +0.101 A 
ATOM      5  C   UNL     1       4.904  -6.173  24.822  0.00  0.00    +0.215 A 
ATOM      6  O   UNL     1       5.390  -5.231  23.947  0.00  0.00    -0.448 OA
ATOM      7  C   UNL     1       6.433  -4.401  24.347  0.00  0.00    +0.161 A 
ENDROOT
BRANCH   3   8
ATOM      8  C   UNL     1       6.138  -5.782  28.976  0.00  0.00    +0.382 C 
ATOM      9  N   UNL     1       6.589  -6.994  29.159  0.00  0.00    -0.289 N 
ATOM     10  H   UNL     1       6.381  -7.556  29.969  0.00  0.00    +0.255 HD
ATOM     11  H   UNL     1       7.245  -7.346  28.474  0.00  0.00    +0.255 HD
ATOM     12  N   UNL     1       5.358  -5.277  29.896  0.00  0.00    -0.289 N 
ATOM     13  H   UNL     1       5.073  -4.309  29.863  0.00  0.00    +0.255 HD
ATOM     14  H   UNL     1       5.049  -5.816  30.693  0.00  0.00    +0.255 HD
ENDBRANCH   3   8
BRANCH   1  17
ATOM     15  C   UNL     1       8.721  -1.463  26.988  0.00  0.00    +0.109 C 
ATOM     16  C   UNL     1       7.571  -2.214  26.374  0.00  0.00    +0.214 C 
ATOM     17  N   UNL     1       7.882  -3.536  26.067  0.00  0.00    -0.280 N 
ATOM     18  H   UNL     1       8.452  -3.941  26.807  0.00  0.00    +0.155 HD
ATOM     19  O   UNL     1       6.473  -1.708  26.173  0.00  0.00    -0.276 OA
ENDBRANCH   1  17
BRANCH   5  20
ATOM     20  C   UNL     1       3.877  -7.120  24.328  0.00  0.00    +0.373 C 
ATOM     21  O   UNL     1       3.455  -8.048  24.998  0.00  0.00    -0.242 OA
BRANCH  20  22
ATOM     22  O   UNL     1       3.453  -6.824  23.088  0.00  0.00    -0.475 OA
ATOM     23  H   UNL     1       3.068  -5.929  22.981  0.00  0.00    +0.296 HD
ENDBRANCH  20  22
ENDBRANCH   5  20
BRANCH   7  24
ATOM     24  C   UNL     1       7.025  -3.613  23.191  0.00  0.00    +0.213 C 
BRANCH  24  25
ATOM     25  O   UNL     1       6.477  -2.290  23.219  0.00  0.00    -0.381 OA
ATOM     26  H   UNL     1       6.008  -2.150  22.377  0.00  0.00    +0.210 HD
ENDBRANCH  24  25
BRANCH  24  27
ATOM     27  C   UNL     1       6.727  -4.266  21.811  0.00  0.00    +0.176 C 
BRANCH  27  28
ATOM     28  O   UNL     1       5.330  -4.171  21.465  0.00  0.00    -0.387 OA
ATOM     29  H   UNL     1       5.224  -4.374  20.520  0.00  0.00    +0.210 HD
ENDBRANCH  27  28
BRANCH  27  30
ATOM     30  C   UNL     1       7.089  -5.755  21.732  0.00  0.00    +0.190 C 
BRANCH  30  31
ATOM     31  O   UNL     1       5.916  -6.513  21.436  0.00  0.00    -0.392 OA
ATOM     32  H   UNL     1       5.173  -5.969  21.769  0.00  0.00    +0.210 HD
ENDBRANCH  30  31
ENDBRANCH  27  30
ENDBRANCH  24  27
ENDBRANCH   7  24
TORSDOF 10
ENDMDL
