MODEL 1
REMARK VINA RESULT:      -6.0      0.000      0.000
REMARK  Name = 
REMARK  4 active torsions:
REMARK  status: ('A' for Active; 'I' for Inactive)
REMARK    1  A    between atoms: C3*_2  and  O3*_20
REMARK    2  A    between atoms: C4*_4  and  C5*_18
REMARK    3  A    between atoms: C1*_7  and  N_9
REMARK    4  A    between atoms: C5*_18  and  O5*_19
REMARK                            x       y       z     vdW  Elec       q    Type
REMARK                         _______ _______ _______ _____ _____    ______ ____
ROOT
ATOM      1  C2* UNL     1       7.720  -2.137  23.170  0.00  0.00    +0.088 C 
ATOM      2  C1* UNL     1       8.748  -3.101  23.768  0.00  0.00    +0.226 C 
ATOM      3  O4* UNL     1       9.881  -2.301  24.175  0.00  0.00    -0.348 OA
ATOM      4  C4* UNL     1       9.588  -0.923  23.894  0.00  0.00    +0.175 C 
ATOM      5  C3* UNL     1       8.071  -0.831  23.834  0.00  0.00    +0.150 C 
ENDROOT
BRANCH   2   6
ATOM      6  N   UNL     1       8.241  -3.895  24.890  0.00  0.00    -0.273 N 
ATOM      7  C   UNL     1       9.072  -4.905  25.364  0.00  0.00    +0.331 A 
ATOM      8  O   UNL     1      10.168  -5.174  24.880  0.00  0.00    -0.246 OA
ATOM      9  N   UNL     1       8.600  -5.610  26.437  0.00  0.00    -0.274 N 
ATOM     10  H   UNL     1       9.194  -6.343  26.793  0.00  0.00    +0.173 HD
ATOM     11  C   UNL     1       7.456  -5.353  27.142  0.00  0.00    +0.267 A 
ATOM     12  O   UNL     1       7.168  -6.008  28.140  0.00  0.00    -0.267 OA
ATOM     13  C   UNL     1       6.618  -4.239  26.619  0.00  0.00    +0.094 A 
ATOM     14  I   UNL     1       4.881  -3.737  27.575  0.00  0.00    -0.037 I 
ATOM     15  C   UNL     1       7.055  -3.583  25.534  0.00  0.00    +0.113 A 
ENDBRANCH   2   6
BRANCH   5  16
ATOM     16  O3* UNL     1       7.607   0.303  23.123  0.00  0.00    -0.389 OA
ATOM     17  H3* UNL     1       6.756   0.085  22.699  0.00  0.00    +0.210 HD
ENDBRANCH   5  16
BRANCH   4  18
ATOM     18  C5* UNL     1      10.193   0.007  24.945  0.00  0.00    +0.190 C 
BRANCH  18  19
ATOM     19  O5* UNL     1       9.296   1.050  25.309  0.00  0.00    -0.392 OA
ATOM     20  H5* UNL     1       8.505   0.643  25.713  0.00  0.00    +0.210 HD
ENDBRANCH  18  19
ENDBRANCH   4  18
TORSDOF 4
ENDMDL
MODEL 2
REMARK VINA RESULT:      -6.0      1.996      2.529
REMARK  Name = 
REMARK  4 active torsions:
REMARK  status: ('A' for Active; 'I' for Inactive)
REMARK    1  A    between atoms: C3*_2  and  O3*_20
REMARK    2  A    between atoms: C4*_4  and  C5*_18
REMARK    3  A    between atoms: C1*_7  and  N_9
REMARK    4  A    between atoms: C5*_18  and  O5*_19
REMARK                            x       y       z     vdW  Elec       q    Type
REMARK                         _______ _______ _______ _____ _____    ______ ____
ROOT
ATOM      1  C2* UNL     1       6.862  -5.015  22.476  0.00  0.00    +0.088 C 
ATOM      2  C1* UNL     1       7.985  -4.861  23.505  0.00  0.00    +0.226 C 
ATOM      3  O4* UNL     1       8.452  -3.497  23.410  0.00  0.00    -0.348 OA
ATOM      4  C4* UNL     1       7.665  -2.815  22.423  0.00  0.00    +0.175 C 
ATOM      5  C3* UNL     1       6.366  -3.601  22.320  0.00  0.00    +0.150 C 
ENDROOT
BRANCH   2   6
ATOM      6  N   UNL     1       7.586  -5.181  24.878  0.00  0.00    -0.273 N 
ATOM      7  C   UNL     1       8.612  -5.366  25.798  0.00  0.00    +0.331 A 
ATOM      8  O   UNL     1       9.806  -5.304  25.515  0.00  0.00    -0.246 OA
ATOM      9  N   UNL     1       8.221  -5.625  27.083  0.00  0.00    -0.274 N 
ATOM     10  H   UNL     1       8.955  -5.758  27.762  0.00  0.00    +0.173 HD
ATOM     11  C   UNL     1       6.939  -5.616  27.563  0.00  0.00    +0.267 A 
ATOM     12  O   UNL     1       6.710  -5.788  28.756  0.00  0.00    -0.267 OA
ATOM     13  C   UNL     1       5.877  -5.377  26.547  0.00  0.00    +0.094 A 
ATOM     14  I   UNL     1       3.914  -5.330  27.119  0.00  0.00    -0.037 I 
ATOM     15  C   UNL     1       6.258  -5.177  25.277  0.00  0.00    +0.113 A 
ENDBRANCH   2   6
BRANCH   5  16
ATOM     16  O3* UNL     1       5.673  -3.380  21.103  0.00  0.00    -0.389 OA
ATOM     17  H3* UNL     1       4.742  -3.647  21.216  0.00  0.00    +0.210 HD
ENDBRANCH   5  16
BRANCH   4  18
ATOM     18  C5* UNL     1       7.438  -1.350  22.795  0.00  0.00    +0.190 C 
BRANCH  18  19
ATOM     19  O5* UNL     1       6.069  -1.079  23.072  0.00  0.00    -0.392 OA
ATOM     20  H5* UNL     1       6.021  -0.573  23.906  0.00  0.00    +0.210 HD
ENDBRANCH  18  19
ENDBRANCH   4  18
TORSDOF 4
ENDMDL
MODEL 3
REMARK VINA RESULT:      -5.7      1.818      2.286
REMARK  Name = 
REMARK  4 active torsions:
REMARK  status: ('A' for Active; 'I' for Inactive)
REMARK    1  A    between atoms: C3*_2  and  O3*_20
REMARK    2  A    between atoms: C4*_4  and  C5*_18
REMARK    3  A    between atoms: C1*_7  and  N_9
REMARK    4  A    between atoms: C5*_18  and  O5*_19
REMARK                            x       y       z     vdW  Elec       q    Type
REMARK                         _______ _______ _______ _____ _____    ______ ____
ROOT
ATOM      1  C2* UNL     1       9.850  -2.767  23.843  0.00  0.00    +0.088 C 
ATOM      2  C1* UNL     1       8.908  -2.550  25.029  0.00  0.00    +0.226 C 
ATOM      3  O4* UNL     1       8.181  -1.329  24.765  0.00  0.00    -0.348 OA
ATOM      4  C4* UNL     1       8.596  -0.821  23.488  0.00  0.00    +0.175 C 
ATOM      5  C3* UNL     1       9.160  -2.017  22.734  0.00  0.00    +0.150 C 
ENDROOT
BRANCH   2   6
ATOM      6  N   UNL     1       7.987  -3.663  25.273  0.00  0.00    -0.273 N 
ATOM      7  C   UNL     1       8.417  -4.644  26.160  0.00  0.00    +0.331 A 
ATOM      8  O   UNL     1       9.515  -4.637  26.711  0.00  0.00    -0.246 OA
ATOM      9  N   UNL     1       7.528  -5.655  26.407  0.00  0.00    -0.274 N 
ATOM     10  H   UNL     1       7.825  -6.372  27.051  0.00  0.00    +0.173 HD
ATOM     11  C   UNL     1       6.239  -5.737  25.953  0.00  0.00    +0.267 A 
ATOM     12  O   UNL     1       5.504  -6.656  26.301  0.00  0.00    -0.267 OA
ATOM     13  C   UNL     1       5.813  -4.644  25.036  0.00  0.00    +0.094 A 
ATOM     14  I   UNL     1       3.912  -4.632  24.283  0.00  0.00    -0.037 I 
ATOM     15  C   UNL     1       6.703  -3.682  24.752  0.00  0.00    +0.113 A 
ENDBRANCH   2   6
BRANCH   5  16
ATOM     16  O3* UNL     1      10.028  -1.652  21.676  0.00  0.00    -0.389 OA
ATOM     17  H3* UNL     1      10.913  -1.467  22.042  0.00  0.00    +0.210 HD
ENDBRANCH   5  16
BRANCH   4  18
ATOM     18  C5* UNL     1       7.442  -0.148  22.746  0.00  0.00    +0.190 C 
BRANCH  18  19
ATOM     19  O5* UNL     1       6.194  -0.376  23.389  0.00  0.00    -0.392 OA
ATOM     20  H5* UNL     1       5.500   0.086  22.880  0.00  0.00    +0.210 HD
ENDBRANCH  18  19
ENDBRANCH   4  18
TORSDOF 4
ENDMDL
MODEL 4
REMARK VINA RESULT:      -5.7      2.360      3.136
REMARK  Name = 
REMARK  4 active torsions:
REMARK  status: ('A' for Active; 'I' for Inactive)
REMARK    1  A    between atoms: C3*_2  and  O3*_20
REMARK    2  A    between atoms: C4*_4  and  C5*_18
REMARK    3  A    between atoms: C1*_7  and  N_9
REMARK    4  A    between atoms: C5*_18  and  O5*_19
REMARK                            x       y       z     vdW  Elec       q    Type
REMARK                         _______ _______ _______ _____ _____    ______ ____
ROOT
ATOM      1  C2* UNL     1      10.229  -0.020  22.588  0.00  0.00    +0.088 C 
ATOM      2  C1* UNL     1      10.177  -0.337  24.084  0.00  0.00    +0.226 C 
ATOM      3  O4* UNL     1      10.149   0.930  24.778  0.00  0.00    -0.348 OA
ATOM      4  C4* UNL     1      10.145   1.982  23.801  0.00  0.00    +0.175 C 
ATOM      5  C3* UNL     1       9.611   1.352  22.523  0.00  0.00    +0.150 C 
ENDROOT
BRANCH   2   6
ATOM      6  N   UNL     1       9.039  -1.173  24.479  0.00  0.00    -0.273 N 
ATOM      7  C   UNL     1       9.204  -2.548  24.354  0.00  0.00    +0.331 A 
ATOM      8  O   UNL     1      10.220  -3.080  23.913  0.00  0.00    -0.246 OA
ATOM      9  N   UNL     1       8.148  -3.314  24.765  0.00  0.00    -0.274 N 
ATOM     10  H   UNL     1       8.254  -4.314  24.684  0.00  0.00    +0.173 HD
ATOM     11  C   UNL     1       7.005  -2.869  25.373  0.00  0.00    +0.267 A 
ATOM     12  O   UNL     1       6.152  -3.657  25.770  0.00  0.00    -0.267 OA
ATOM     13  C   UNL     1       6.891  -1.391  25.518  0.00  0.00    +0.094 A 
ATOM     14  I   UNL     1       5.240  -0.582  26.413  0.00  0.00    -0.037 I 
ATOM     15  C   UNL     1       7.904  -0.637  25.066  0.00  0.00    +0.113 A 
ENDBRANCH   2   6
BRANCH   5  16
ATOM     16  O3* UNL     1       9.964   2.073  21.355  0.00  0.00    -0.389 OA
ATOM     17  H3* UNL     1      10.843   2.476  21.484  0.00  0.00    +0.210 HD
ENDBRANCH   5  16
BRANCH   4  18
ATOM     18  C5* UNL     1       9.311   3.176  24.262  0.00  0.00    +0.190 C 
BRANCH  18  19
ATOM     19  O5* UNL     1       9.324   4.232  23.308  0.00  0.00    -0.392 OA
ATOM     20  H5* UNL     1       9.270   5.080  23.791  0.00  0.00    +0.210 HD
ENDBRANCH  18  19
ENDBRANCH   4  18
TORSDOF 4
ENDMDL
MODEL 5
REMARK VINA RESULT:      -5.6      3.482      5.461
REMARK  Name = 
REMARK  4 active torsions:
REMARK  status: ('A' for Active; 'I' for Inactive)
REMARK    1  A    between atoms: C3*_2  and  O3*_20
REMARK    2  A    between atoms: C4*_4  and  C5*_18
REMARK    3  A    between atoms: C1*_7  and  N_9
REMARK    4  A    between atoms: C5*_18  and  O5*_19
REMARK                            x       y       z     vdW  Elec       q    Type
REMARK                         _______ _______ _______ _____ _____    ______ ____
ROOT
ATOM      1  C2* UNL     1       5.790  -3.406  24.172  0.00  0.00    +0.088 C 
ATOM      2  C1* UNL     1       7.303  -3.557  24.346  0.00  0.00    +0.226 C 
ATOM      3  O4* UNL     1       7.703  -4.692  23.545  0.00  0.00    -0.348 OA
ATOM      4  C4* UNL     1       6.541  -5.209  22.878  0.00  0.00    +0.175 C 
ATOM      5  C3* UNL     1       5.547  -4.057  22.835  0.00  0.00    +0.150 C 
ENDROOT
BRANCH   2   6
ATOM      6  N   UNL     1       8.069  -2.364  23.977  0.00  0.00    -0.273 N 
ATOM      7  C   UNL     1       9.452  -2.501  23.932  0.00  0.00    +0.331 A 
ATOM      8  O   UNL     1      10.047  -3.539  24.209  0.00  0.00    -0.246 OA
ATOM      9  N   UNL     1      10.149  -1.388  23.547  0.00  0.00    -0.274 N 
ATOM     10  H   UNL     1      11.153  -1.474  23.507  0.00  0.00    +0.173 HD
ATOM     11  C   UNL     1       9.619  -0.205  23.108  0.00  0.00    +0.267 A 
ATOM     12  O   UNL     1      10.343   0.704  22.715  0.00  0.00    -0.267 OA
ATOM     13  C   UNL     1       8.133  -0.119  23.139  0.00  0.00    +0.094 A 
ATOM     14  I   UNL     1       7.199   1.587  22.508  0.00  0.00    -0.037 I 
ATOM     15  C   UNL     1       7.452  -1.192  23.568  0.00  0.00    +0.113 A 
ENDBRANCH   2   6
BRANCH   5  16
ATOM     16  O3* UNL     1       4.208  -4.481  22.651  0.00  0.00    -0.389 OA
ATOM     17  H3* UNL     1       4.131  -5.415  22.923  0.00  0.00    +0.210 HD
ENDBRANCH   5  16
BRANCH   4  18
ATOM     18  C5* UNL     1       6.881  -5.745  21.488  0.00  0.00    +0.190 C 
BRANCH  18  19
ATOM     19  O5* UNL     1       5.950  -5.303  20.507  0.00  0.00    -0.392 OA
ATOM     20  H5* UNL     1       5.072  -5.663  20.736  0.00  0.00    +0.210 HD
ENDBRANCH  18  19
ENDBRANCH   4  18
TORSDOF 4
ENDMDL
MODEL 6
REMARK VINA RESULT:      -5.5      2.868      3.806
REMARK  Name = 
REMARK  4 active torsions:
REMARK  status: ('A' for Active; 'I' for Inactive)
REMARK    1  A    between atoms: C3*_2  and  O3*_20
REMARK    2  A    between atoms: C4*_4  and  C5*_18
REMARK    3  A    between atoms: C1*_7  and  N_9
REMARK    4  A    between atoms: C5*_18  and  O5*_19
REMARK                            x       y       z     vdW  Elec       q    Type
REMARK                         _______ _______ _______ _____ _____    ______ ____
ROOT
ATOM      1  C2* UNL     1       8.085   1.389  21.511  0.00  0.00    +0.088 C 
ATOM      2  C1* UNL     1       9.152   0.315  21.741  0.00  0.00    +0.226 C 
ATOM      3  O4* UNL     1      10.344   1.001  22.182  0.00  0.00    -0.348 OA
ATOM      4  C4* UNL     1      10.056   2.405  22.267  0.00  0.00    +0.175 C 
ATOM      5  C3* UNL     1       8.544   2.504  22.413  0.00  0.00    +0.150 C 
ENDROOT
BRANCH   2   6
ATOM      6  N   UNL     1       8.760  -0.721  22.700  0.00  0.00    -0.273 N 
ATOM      7  C   UNL     1       9.656  -1.769  22.885  0.00  0.00    +0.331 A 
ATOM      8  O   UNL     1      10.717  -1.879  22.276  0.00  0.00    -0.246 OA
ATOM      9  N   UNL     1       9.294  -2.706  23.813  0.00  0.00    -0.274 N 
ATOM     10  H   UNL     1       9.935  -3.470  23.960  0.00  0.00    +0.173 HD
ATOM     11  C   UNL     1       8.203  -2.656  24.639  0.00  0.00    +0.267 A 
ATOM     12  O   UNL     1       8.016  -3.519  25.491  0.00  0.00    -0.267 OA
ATOM     13  C   UNL     1       7.293  -1.496  24.429  0.00  0.00    +0.094 A 
ATOM     14  I   UNL     1       5.625  -1.288  25.594  0.00  0.00    -0.037 I 
ATOM     15  C   UNL     1       7.621  -0.606  23.481  0.00  0.00    +0.113 A 
ENDBRANCH   2   6
BRANCH   5  16
ATOM     16  O3* UNL     1       8.029   3.772  22.047  0.00  0.00    -0.389 OA
ATOM     17  H3* UNL     1       8.550   4.122  21.300  0.00  0.00    +0.210 HD
ENDBRANCH   5  16
BRANCH   4  18
ATOM     18  C5* UNL     1      10.804   3.066  23.424  0.00  0.00    +0.190 C 
BRANCH  18  19
ATOM     19  O5* UNL     1      10.675   4.482  23.399  0.00  0.00    -0.392 OA
ATOM     20  H5* UNL     1      11.500   4.857  23.035  0.00  0.00    +0.210 HD
ENDBRANCH  18  19
ENDBRANCH   4  18
TORSDOF 4
ENDMDL
MODEL 7
REMARK VINA RESULT:      -5.5      3.074      3.249
REMARK  Name = 
REMARK  4 active torsions:
REMARK  status: ('A' for Active; 'I' for Inactive)
REMARK    1  A    between atoms: C3*_2  and  O3*_20
REMARK    2  A    between atoms: C4*_4  and  C5*_18
REMARK    3  A    between atoms: C1*_7  and  N_9
REMARK    4  A    between atoms: C5*_18  and  O5*_19
REMARK                            x       y       z     vdW  Elec       q    Type
REMARK                         _______ _______ _______ _____ _____    ______ ____
ROOT
ATOM      1  C2* UNL     1       6.685  -2.633  22.213  0.00  0.00    +0.088 C 
ATOM      2  C1* UNL     1       7.268  -3.991  22.611  0.00  0.00    +0.226 C 
ATOM      3  O4* UNL     1       8.352  -3.725  23.529  0.00  0.00    -0.348 OA
ATOM      4  C4* UNL     1       8.436  -2.307  23.735  0.00  0.00    +0.175 C 
ATOM      5  C3* UNL     1       7.060  -1.760  23.383  0.00  0.00    +0.150 C 
ENDROOT
BRANCH   2   6
ATOM      6  N   UNL     1       6.293  -4.908  23.208  0.00  0.00    -0.273 N 
ATOM      7  C   UNL     1       5.612  -5.748  22.333  0.00  0.00    +0.331 A 
ATOM      8  O   UNL     1       5.764  -5.737  21.114  0.00  0.00    -0.246 OA
ATOM      9  N   UNL     1       4.736  -6.626  22.910  0.00  0.00    -0.274 N 
ATOM     10  H   UNL     1       4.238  -7.244  22.289  0.00  0.00    +0.173 HD
ATOM     11  C   UNL     1       4.545  -6.824  24.252  0.00  0.00    +0.267 A 
ATOM     12  O   UNL     1       3.783  -7.696  24.659  0.00  0.00    -0.267 OA
ATOM     13  C   UNL     1       5.323  -5.926  25.149  0.00  0.00    +0.094 A 
ATOM     14  I   UNL     1       5.143  -6.110  27.177  0.00  0.00    -0.037 I 
ATOM     15  C   UNL     1       6.142  -5.029  24.580  0.00  0.00    +0.113 A 
ENDBRANCH   2   6
BRANCH   5  16
ATOM     16  O3* UNL     1       7.071  -0.377  23.072  0.00  0.00    -0.389 OA
ATOM     17  H3* UNL     1       7.855  -0.182  22.525  0.00  0.00    +0.210 HD
ENDBRANCH   5  16
BRANCH   4  18
ATOM     18  C5* UNL     1       8.855  -1.969  25.165  0.00  0.00    +0.190 C 
BRANCH  18  19
ATOM     19  O5* UNL     1       9.113  -0.579  25.327  0.00  0.00    -0.392 OA
ATOM     20  H5* UNL     1       8.258  -0.106  25.308  0.00  0.00    +0.210 HD
ENDBRANCH  18  19
ENDBRANCH   4  18
TORSDOF 4
ENDMDL
MODEL 8
REMARK VINA RESULT:      -5.5      2.261      5.197
REMARK  Name = 
REMARK  4 active torsions:
REMARK  status: ('A' for Active; 'I' for Inactive)
REMARK    1  A    between atoms: C3*_2  and  O3*_20
REMARK    2  A    between atoms: C4*_4  and  C5*_18
REMARK    3  A    between atoms: C1*_7  and  N_9
REMARK    4  A    between atoms: C5*_18  and  O5*_19
REMARK                            x       y       z     vdW  Elec       q    Type
REMARK                         _______ _______ _______ _____ _____    ______ ____
ROOT
ATOM      1  C2* UNL     1       9.274  -4.535  25.156  0.00  0.00    +0.088 C 
ATOM      2  C1* UNL     1       8.627  -3.607  24.125  0.00  0.00    +0.226 C 
ATOM      3  O4* UNL     1       7.203  -3.844  24.186  0.00  0.00    -0.348 OA
ATOM      4  C4* UNL     1       6.949  -4.822  25.206  0.00  0.00    +0.175 C 
ATOM      5  C3* UNL     1       8.153  -4.766  26.136  0.00  0.00    +0.150 C 
ENDROOT
BRANCH   2   6
ATOM      6  N   UNL     1       8.929  -2.187  24.325  0.00  0.00    -0.273 N 
ATOM      7  C   UNL     1       9.994  -1.668  23.597  0.00  0.00    +0.331 A 
ATOM      8  O   UNL     1      10.694  -2.332  22.837  0.00  0.00    -0.246 OA
ATOM      9  N   UNL     1      10.236  -0.332  23.766  0.00  0.00    -0.274 N 
ATOM     10  H   UNL     1      11.003   0.059  23.242  0.00  0.00    +0.173 HD
ATOM     11  C   UNL     1       9.479   0.549  24.490  0.00  0.00    +0.267 A 
ATOM     12  O   UNL     1       9.749   1.746  24.511  0.00  0.00    -0.267 OA
ATOM     13  C   UNL     1       8.327  -0.048  25.222  0.00  0.00    +0.094 A 
ATOM     14  I   UNL     1       7.104   1.149  26.342  0.00  0.00    -0.037 I 
ATOM     15  C   UNL     1       8.123  -1.367  25.099  0.00  0.00    +0.113 A 
ENDBRANCH   2   6
BRANCH   5  16
ATOM     16  O3* UNL     1       8.317  -5.941  26.910  0.00  0.00    -0.389 OA
ATOM     17  H3* UNL     1       7.539  -6.516  26.782  0.00  0.00    +0.210 HD
ENDBRANCH   5  16
BRANCH   4  18
ATOM     18  C5* UNL     1       5.632  -4.551  25.932  0.00  0.00    +0.190 C 
BRANCH  18  19
ATOM     19  O5* UNL     1       5.843  -4.149  27.281  0.00  0.00    -0.392 OA
ATOM     20  H5* UNL     1       6.751  -4.401  27.535  0.00  0.00    +0.210 HD
ENDBRANCH  18  19
ENDBRANCH   4  18
TORSDOF 4
ENDMDL
MODEL 9
REMARK VINA RESULT:      -5.4      3.172      3.386
REMARK  Name = 
REMARK  4 active torsions:
REMARK  status: ('A' for Active; 'I' for Inactive)
REMARK    1  A    between atoms: C3*_2  and  O3*_20
REMARK    2  A    between atoms: C4*_4  and  C5*_18
REMARK    3  A    between atoms: C1*_7  and  N_9
REMARK    4  A    between atoms: C5*_18  and  O5*_19
REMARK                            x       y       z     vdW  Elec       q    Type
REMARK                         _______ _______ _______ _____ _____    ______ ____
ROOT
ATOM      1  C2* UNL     1       9.034  -0.295  21.535  0.00  0.00    +0.088 C 
ATOM      2  C1* UNL     1       9.010  -1.439  22.551  0.00  0.00    +0.226 C 
ATOM      3  O4* UNL     1      10.004  -1.127  23.553  0.00  0.00    -0.348 OA
ATOM      4  C4* UNL     1      10.594   0.141  23.227  0.00  0.00    +0.175 C 
ATOM      5  C3* UNL     1       9.578   0.852  22.347  0.00  0.00    +0.150 C 
ENDROOT
BRANCH   2   6
ATOM      6  N   UNL     1       7.700  -1.664  23.168  0.00  0.00    -0.273 N 
ATOM      7  C   UNL     1       7.036  -2.832  22.810  0.00  0.00    +0.331 A 
ATOM      8  O   UNL     1       7.471  -3.648  22.000  0.00  0.00    -0.246 OA
ATOM      9  N   UNL     1       5.833  -3.046  23.425  0.00  0.00    -0.274 N 
ATOM     10  H   UNL     1       5.341  -3.891  23.178  0.00  0.00    +0.173 HD
ATOM     11  C   UNL     1       5.279  -2.286  24.420  0.00  0.00    +0.267 A 
ATOM     12  O   UNL     1       4.225  -2.615  24.954  0.00  0.00    -0.267 OA
ATOM     13  C   UNL     1       6.045  -1.065  24.795  0.00  0.00    +0.094 A 
ATOM     14  I   UNL     1       5.342   0.164  26.270  0.00  0.00    -0.037 I 
ATOM     15  C   UNL     1       7.199  -0.828  24.153  0.00  0.00    +0.113 A 
ENDBRANCH   2   6
BRANCH   5  16
ATOM     16  O3* UNL     1      10.146   1.881  21.556  0.00  0.00    -0.389 OA
ATOM     17  H3* UNL     1       9.439   2.311  21.039  0.00  0.00    +0.210 HD
ENDBRANCH   5  16
BRANCH   4  18
ATOM     18  C5* UNL     1      10.946   0.938  24.482  0.00  0.00    +0.190 C 
BRANCH  18  19
ATOM     19  O5* UNL     1      10.269   0.444  25.632  0.00  0.00    -0.392 OA
ATOM     20  H5* UNL     1       9.431   0.936  25.727  0.00  0.00    +0.210 HD
ENDBRANCH  18  19
ENDBRANCH   4  18
TORSDOF 4
ENDMDL
