MODEL 1
REMARK VINA RESULT:      -5.5      0.000      0.000
REMARK  Name = 
REMARK  19 active torsions:
REMARK  status: ('A' for Active; 'I' for Inactive)
REMARK    1  A    between atoms: C_1  and  C_2
REMARK    2  A    between atoms: C_2  and  C_3
REMARK    3  A    between atoms: C_2  and  C_4
REMARK    4  A    between atoms: C_4  and  C_5
REMARK    5  A    between atoms: C_4  and  N_50
REMARK    6  A    between atoms: C_11  and  C_12
REMARK    7  A    between atoms: C_15  and  C_17
REMARK    8  A    between atoms: C_20  and  C_23
REMARK    9  A    between atoms: C_26  and  C_29
REMARK   10  A    between atoms: C_32  and  C_34
REMARK   11  A    between atoms: C_39  and  C_41
REMARK   12  A    between atoms: C_41  and  C_42
REMARK   13  A    between atoms: C_41  and  N_45
REMARK   14  A    between atoms: C_42  and  C_43
REMARK   15  A    between atoms: C_42  and  C_44
REMARK   16  A    between atoms: C_46  and  O_48
REMARK   17  A    between atoms: O_48  and  C_49
REMARK   18  A    between atoms: C_51  and  O_53
REMARK   19  A    between atoms: O_53  and  C_54
REMARK                            x       y       z     vdW  Elec       q    Type
REMARK                         _______ _______ _______ _____ _____    ______ ____
ROOT
ATOM      1  C   UNL     1       4.281  -5.857  24.582  0.00  0.00    -0.000 A 
ATOM      2  C   UNL     1       3.885  -4.910  23.635  0.00  0.00    +0.010 A 
ATOM      3  C   UNL     1       4.729  -3.849  23.300  0.00  0.00    +0.009 A 
ATOM      4  C   UNL     1       5.977  -3.692  23.922  0.00  0.00    -0.018 A 
ATOM      5  C   UNL     1       6.381  -4.686  24.827  0.00  0.00    +0.009 A 
ATOM      6  C   UNL     1       5.551  -5.757  25.150  0.00  0.00    +0.010 A 
ENDROOT
BRANCH   1  10
ATOM      7  C   UNL     1       1.865  -7.953  26.266  0.00  0.00    +0.128 A 
ATOM      8  N   UNL     1       2.733  -6.896  26.237  0.00  0.00    -0.340 N 
ATOM      9  H   UNL     1       2.837  -6.208  26.970  0.00  0.00    +0.167 HD
ATOM     10  C   UNL     1       3.361  -6.890  25.017  0.00  0.00    +0.066 A 
ATOM     11  C   UNL     1       2.857  -7.999  24.370  0.00  0.00    +0.139 A 
ATOM     12  N   UNL     1       1.937  -8.647  25.146  0.00  0.00    -0.238 NA
BRANCH   7  15
ATOM     13  C   UNL     1       2.095  -6.837  29.265  0.00  0.00    +0.237 C 
ATOM     14  N   UNL     1       1.536  -7.993  28.719  0.00  0.00    -0.290 N 
ATOM     15  C   UNL     1       0.932  -8.199  27.398  0.00  0.00    +0.142 C 
ATOM     16  C   UNL     1       0.443  -9.664  27.417  0.00  0.00    +0.032 C 
ATOM     17  C   UNL     1       0.874 -10.219  28.773  0.00  0.00    +0.021 C 
ATOM     18  C   UNL     1       1.005  -8.984  29.635  0.00  0.00    +0.108 C 
ATOM     19  O   UNL     1       2.249  -6.761  30.485  0.00  0.00    -0.274 OA
BRANCH  13  20
ATOM     20  C   UNL     1       2.676  -5.748  28.311  0.00  0.00    +0.165 C 
BRANCH  20  21
ATOM     21  N   UNL     1       1.928  -4.507  28.443  0.00  0.00    -0.270 N 
ATOM     22  H   UNL     1       1.480  -4.285  29.327  0.00  0.00    +0.153 HD
ATOM     23  C   UNL     1       1.659  -3.693  27.392  0.00  0.00    +0.401 C 
ATOM     24  O   UNL     1       2.162  -3.785  26.284  0.00  0.00    -0.226 OA
BRANCH  23  25
ATOM     25  O   UNL     1       0.734  -2.776  27.757  0.00  0.00    -0.454 OA
ATOM     26  C   UNL     1       0.673  -1.666  26.862  0.00  0.00    +0.282 C 
ENDBRANCH  23  25
ENDBRANCH  20  21
BRANCH  20  28
ATOM     27  C   UNL     1       4.592  -4.546  29.548  0.00  0.00    +0.009 C 
ATOM     28  C   UNL     1       4.210  -5.504  28.413  0.00  0.00    +0.012 C 
ATOM     29  C   UNL     1       4.956  -6.830  28.658  0.00  0.00    +0.009 C 
ENDBRANCH  20  28
ENDBRANCH  13  20
ENDBRANCH   7  15
ENDBRANCH   1  10
BRANCH   4  30
ATOM     30  C   UNL     1       6.809  -2.494  23.708  0.00  0.00    -0.018 A 
ATOM     31  C   UNL     1       8.149  -2.599  23.299  0.00  0.00    +0.009 A 
ATOM     32  C   UNL     1       8.910  -1.466  23.002  0.00  0.00    +0.010 A 
ATOM     33  C   UNL     1       8.345  -0.194  23.094  0.00  0.00    -0.000 A 
ATOM     34  C   UNL     1       7.018  -0.074  23.516  0.00  0.00    +0.010 A 
ATOM     35  C   UNL     1       6.268  -1.205  23.831  0.00  0.00    +0.009 A 
BRANCH  33  36
ATOM     36  C   UNL     1       9.132   0.989  22.796  0.00  0.00    +0.066 A 
ATOM     37  N   UNL     1       9.248   2.058  23.648  0.00  0.00    -0.340 N 
ATOM     38  H   UNL     1       8.785   2.153  24.540  0.00  0.00    +0.167 HD
ATOM     39  C   UNL     1      10.224   2.892  23.162  0.00  0.00    +0.128 A 
ATOM     40  N   UNL     1      10.598   2.506  21.961  0.00  0.00    -0.238 NA
ATOM     41  C   UNL     1       9.936   1.327  21.729  0.00  0.00    +0.139 A 
BRANCH  39  42
ATOM     42  C   UNL     1      10.784   3.960  24.030  0.00  0.00    +0.142 C 
ATOM     43  N   UNL     1       9.953   5.151  24.212  0.00  0.00    -0.290 N 
ATOM     44  C   UNL     1       8.686   5.277  24.756  0.00  0.00    +0.237 C 
ATOM     45  O   UNL     1       8.304   6.389  25.135  0.00  0.00    -0.274 OA
ATOM     46  C   UNL     1      10.783   6.353  24.116  0.00  0.00    +0.108 C 
ATOM     47  C   UNL     1      12.220   5.875  23.989  0.00  0.00    +0.021 C 
ATOM     48  C   UNL     1      12.062   4.505  23.363  0.00  0.00    +0.032 C 
BRANCH  44  49
ATOM     49  C   UNL     1       7.716   4.059  24.814  0.00  0.00    +0.165 C 
BRANCH  49  50
ATOM     50  N   UNL     1       6.457   4.419  24.157  0.00  0.00    -0.270 N 
ATOM     51  H   UNL     1       5.694   4.739  24.745  0.00  0.00    +0.153 HD
ATOM     52  C   UNL     1       6.066   3.937  22.945  0.00  0.00    +0.401 C 
ATOM     53  O   UNL     1       6.724   3.222  22.209  0.00  0.00    -0.226 OA
BRANCH  52  54
ATOM     54  O   UNL     1       4.805   4.363  22.673  0.00  0.00    -0.454 OA
ATOM     55  C   UNL     1       3.902   3.311  22.326  0.00  0.00    +0.282 C 
ENDBRANCH  52  54
ENDBRANCH  49  50
BRANCH  49  56
ATOM     56  C   UNL     1       7.485   3.525  26.256  0.00  0.00    +0.012 C 
ATOM     57  C   UNL     1       7.030   2.063  26.267  0.00  0.00    +0.009 C 
ATOM     58  C   UNL     1       6.443   4.370  27.007  0.00  0.00    +0.009 C 
ENDBRANCH  49  56
ENDBRANCH  44  49
ENDBRANCH  39  42
ENDBRANCH  33  36
ENDBRANCH   4  30
TORSDOF 13
ENDMDL
MODEL 2
REMARK VINA RESULT:      -3.3      1.858      3.218
REMARK  Name = 
REMARK  19 active torsions:
REMARK  status: ('A' for Active; 'I' for Inactive)
REMARK    1  A    between atoms: C_1  and  C_2
REMARK    2  A    between atoms: C_2  and  C_3
REMARK    3  A    between atoms: C_2  and  C_4
REMARK    4  A    between atoms: C_4  and  C_5
REMARK    5  A    between atoms: C_4  and  N_50
REMARK    6  A    between atoms: C_11  and  C_12
REMARK    7  A    between atoms: C_15  and  C_17
REMARK    8  A    between atoms: C_20  and  C_23
REMARK    9  A    between atoms: C_26  and  C_29
REMARK   10  A    between atoms: C_32  and  C_34
REMARK   11  A    between atoms: C_39  and  C_41
REMARK   12  A    between atoms: C_41  and  C_42
REMARK   13  A    between atoms: C_41  and  N_45
REMARK   14  A    between atoms: C_42  and  C_43
REMARK   15  A    between atoms: C_42  and  C_44
REMARK   16  A    between atoms: C_46  and  O_48
REMARK   17  A    between atoms: O_48  and  C_49
REMARK   18  A    between atoms: C_51  and  O_53
REMARK   19  A    between atoms: O_53  and  C_54
REMARK                            x       y       z     vdW  Elec       q    Type
REMARK                         _______ _______ _______ _____ _____    ______ ____
ROOT
ATOM      1  C   UNL     1       4.365  -5.229  24.850  0.00  0.00    -0.000 A 
ATOM      2  C   UNL     1       3.900  -4.528  23.735  0.00  0.00    +0.010 A 
ATOM      3  C   UNL     1       4.426  -3.274  23.418  0.00  0.00    +0.009 A 
ATOM      4  C   UNL     1       5.409  -2.677  24.222  0.00  0.00    -0.018 A 
ATOM      5  C   UNL     1       5.906  -3.423  25.303  0.00  0.00    +0.009 A 
ATOM      6  C   UNL     1       5.398  -4.682  25.611  0.00  0.00    +0.010 A 
ENDROOT
BRANCH   1  10
ATOM      7  C   UNL     1       2.265  -7.868  26.151  0.00  0.00    +0.128 A 
ATOM      8  N   UNL     1       2.649  -6.557  26.077  0.00  0.00    -0.340 N 
ATOM      9  H   UNL     1       2.165  -5.784  26.513  0.00  0.00    +0.167 HD
ATOM     10  C   UNL     1       3.739  -6.475  25.248  0.00  0.00    +0.066 A 
ATOM     11  C   UNL     1       3.990  -7.783  24.886  0.00  0.00    +0.139 A 
ATOM     12  N   UNL     1       3.078  -8.633  25.446  0.00  0.00    -0.238 NA
BRANCH   7  15
ATOM     13  C   UNL     1       1.776  -7.889  29.321  0.00  0.00    +0.237 C 
ATOM     14  N   UNL     1       1.286  -8.674  28.276  0.00  0.00    -0.290 N 
ATOM     15  C   UNL     1       1.044  -8.311  26.876  0.00  0.00    +0.142 C 
ATOM     16  C   UNL     1       0.444  -9.585  26.241  0.00  0.00    +0.032 C 
ATOM     17  C   UNL     1       0.444 -10.632  27.354  0.00  0.00    +0.021 C 
ATOM     18  C   UNL     1       0.445  -9.805  28.619  0.00  0.00    +0.108 C 
ATOM     19  O   UNL     1       1.602  -8.258  30.484  0.00  0.00    -0.274 OA
BRANCH  13  20
ATOM     20  C   UNL     1       2.684  -6.664  28.993  0.00  0.00    +0.165 C 
BRANCH  20  21
ATOM     21  N   UNL     1       2.042  -5.428  29.416  0.00  0.00    -0.270 N 
ATOM     22  H   UNL     1       1.540  -5.403  30.299  0.00  0.00    +0.153 HD
ATOM     23  C   UNL     1       1.940  -4.339  28.615  0.00  0.00    +0.401 C 
ATOM     24  O   UNL     1       2.528  -4.186  27.556  0.00  0.00    -0.226 OA
BRANCH  23  25
ATOM     25  O   UNL     1       1.072  -3.457  29.162  0.00  0.00    -0.454 OA
ATOM     26  C   UNL     1       1.439  -3.068  30.485  0.00  0.00    +0.282 C 
ENDBRANCH  23  25
ENDBRANCH  20  21
BRANCH  20  28
ATOM     27  C   UNL     1       5.159  -7.076  28.397  0.00  0.00    +0.009 C 
ATOM     28  C   UNL     1       4.151  -6.749  29.506  0.00  0.00    +0.012 C 
ATOM     29  C   UNL     1       4.582  -5.412  30.141  0.00  0.00    +0.009 C 
ENDBRANCH  20  28
ENDBRANCH  13  20
ENDBRANCH   7  15
ENDBRANCH   1  10
BRANCH   4  30
ATOM     30  C   UNL     1       5.858  -1.289  24.003  0.00  0.00    -0.018 A 
ATOM     31  C   UNL     1       6.715  -0.957  22.940  0.00  0.00    +0.009 A 
ATOM     32  C   UNL     1       7.064   0.368  22.673  0.00  0.00    +0.010 A 
ATOM     33  C   UNL     1       6.551   1.403  23.456  0.00  0.00    -0.000 A 
ATOM     34  C   UNL     1       5.711   1.086  24.527  0.00  0.00    +0.010 A 
ATOM     35  C   UNL     1       5.382  -0.240  24.803  0.00  0.00    +0.009 A 
BRANCH  33  36
ATOM     36  C   UNL     1       6.915   2.783  23.191  0.00  0.00    +0.066 A 
ATOM     37  N   UNL     1       6.611   3.823  24.031  0.00  0.00    -0.340 N 
ATOM     38  H   UNL     1       6.084   3.751  24.890  0.00  0.00    +0.167 HD
ATOM     39  C   UNL     1       7.282   4.938  23.597  0.00  0.00    +0.128 A 
ATOM     40  N   UNL     1       7.843   4.708  22.429  0.00  0.00    -0.238 NA
ATOM     41  C   UNL     1       7.630   3.377  22.173  0.00  0.00    +0.139 A 
BRANCH  39  42
ATOM     42  C   UNL     1       7.393   6.127  24.482  0.00  0.00    +0.142 C 
ATOM     43  N   UNL     1       8.414   6.063  25.529  0.00  0.00    -0.290 N 
ATOM     44  C   UNL     1       9.787   5.923  25.427  0.00  0.00    +0.237 C 
ATOM     45  O   UNL     1      10.495   6.235  26.390  0.00  0.00    -0.274 OA
ATOM     46  C   UNL     1       7.867   6.583  26.784  0.00  0.00    +0.108 C 
ATOM     47  C   UNL     1       6.476   7.107  26.463  0.00  0.00    +0.021 C 
ATOM     48  C   UNL     1       6.075   6.275  25.264  0.00  0.00    +0.032 C 
BRANCH  44  49
ATOM     49  C   UNL     1      10.434   5.299  24.155  0.00  0.00    +0.165 C 
BRANCH  49  50
ATOM     50  N   UNL     1      10.616   3.861  24.366  0.00  0.00    -0.270 N 
ATOM     51  H   UNL     1      10.970   3.558  25.268  0.00  0.00    +0.153 HD
ATOM     52  C   UNL     1      10.802   2.961  23.361  0.00  0.00    +0.401 C 
ATOM     53  O   UNL     1      10.762   3.199  22.166  0.00  0.00    -0.226 OA
BRANCH  52  54
ATOM     54  O   UNL     1      11.059   1.737  23.891  0.00  0.00    -0.454 OA
ATOM     55  C   UNL     1      10.047   1.271  24.786  0.00  0.00    +0.282 C 
ENDBRANCH  52  54
ENDBRANCH  49  50
BRANCH  49  56
ATOM     56  C   UNL     1      11.760   5.994  23.736  0.00  0.00    +0.012 C 
ATOM     57  C   UNL     1      12.879   4.988  23.454  0.00  0.00    +0.009 C 
ATOM     58  C   UNL     1      12.243   6.978  24.815  0.00  0.00    +0.009 C 
ENDBRANCH  49  56
ENDBRANCH  44  49
ENDBRANCH  39  42
ENDBRANCH  33  36
ENDBRANCH   4  30
TORSDOF 13
ENDMDL
