MODEL 1
REMARK VINA RESULT:      -6.0      0.000      0.000
REMARK  Name = 
REMARK  3 active torsions:
REMARK  status: ('A' for Active; 'I' for Inactive)
REMARK    1  A    between atoms: C_2  and  N_8
REMARK    2  A    between atoms: C_4  and  C_6
REMARK    3  A    between atoms: C_6  and  O_7
REMARK                            x       y       z     vdW  Elec       q    Type
REMARK                         _______ _______ _______ _____ _____    ______ ____
ROOT
ATOM      1  N   UNL     1       9.855  -0.569  22.918  0.00  0.00    -0.272 N 
ATOM      2  C   UNL     1       9.638   0.331  21.866  0.00  0.00    +0.352 A 
ATOM      3  O   UNL     1       9.254  -0.064  20.767  0.00  0.00    -0.244 OA
ATOM      4  N   UNL     1       9.871   1.670  22.082  0.00  0.00    -0.178 NA
ATOM      5  C   UNL     1      10.380   2.062  23.205  0.00  0.00    +0.123 A 
ATOM      6  N   UNL     1      10.628   3.399  23.353  0.00  0.00    -0.343 N 
ATOM      7  H   UNL     1      10.177   3.972  22.647  0.00  0.00    +0.144 HD
ATOM      8  H   UNL     1      10.595   3.793  24.286  0.00  0.00    +0.144 HD
ATOM      9  C   UNL     1      10.713   1.147  24.306  0.00  0.00    +0.061 A 
ATOM     10  C   UNL     1      10.451  -0.138  24.085  0.00  0.00    +0.096 A 
ENDROOT
BRANCH   1  15
ATOM     11  C   UNL     1       8.187  -2.447  22.394  0.00  0.00    +0.126 C 
ATOM     12  S   UNL     1       7.497  -2.674  24.043  0.00  0.00    -0.123 S 
ATOM     13  C   UNL     1       9.141  -2.924  24.755  0.00  0.00    +0.203 C 
ATOM     14  O   UNL     1      10.138  -2.819  23.721  0.00  0.00    -0.340 OA
ATOM     15  C   UNL     1       9.638  -1.998  22.643  0.00  0.00    +0.235 C 
BRANCH  13  16
ATOM     16  C   UNL     1       9.260  -4.287  25.449  0.00  0.00    +0.198 C 
BRANCH  16  17
ATOM     17  O   UNL     1      10.326  -5.079  24.918  0.00  0.00    -0.392 OA
ATOM     18  H   UNL     1      10.273  -4.994  23.949  0.00  0.00    +0.210 HD
ENDBRANCH  16  17
ENDBRANCH  13  16
ENDBRANCH   1  15
TORSDOF 3
ENDMDL
MODEL 2
REMARK VINA RESULT:      -5.5      2.040      2.427
REMARK  Name = 
REMARK  3 active torsions:
REMARK  status: ('A' for Active; 'I' for Inactive)
REMARK    1  A    between atoms: C_2  and  N_8
REMARK    2  A    between atoms: C_4  and  C_6
REMARK    3  A    between atoms: C_6  and  O_7
REMARK                            x       y       z     vdW  Elec       q    Type
REMARK                         _______ _______ _______ _____ _____    ______ ____
ROOT
ATOM      1  N   UNL     1       8.010  -1.270  23.101  0.00  0.00    -0.272 N 
ATOM      2  C   UNL     1       7.417  -0.006  23.223  0.00  0.00    +0.352 A 
ATOM      3  O   UNL     1       6.337   0.132  23.794  0.00  0.00    -0.244 OA
ATOM      4  N   UNL     1       8.063   1.082  22.682  0.00  0.00    -0.178 NA
ATOM      5  C   UNL     1       9.141   0.912  21.987  0.00  0.00    +0.123 A 
ATOM      6  N   UNL     1       9.721   2.022  21.440  0.00  0.00    -0.343 N 
ATOM      7  H   UNL     1       9.367   2.892  21.824  0.00  0.00    +0.144 HD
ATOM      8  H   UNL     1      10.723   2.016  21.289  0.00  0.00    +0.144 HD
ATOM      9  C   UNL     1       9.751  -0.404  21.751  0.00  0.00    +0.061 A 
ATOM     10  C   UNL     1       9.127  -1.437  22.308  0.00  0.00    +0.096 A 
ENDROOT
BRANCH   1  15
ATOM     11  C   UNL     1       6.887  -2.351  25.140  0.00  0.00    +0.126 C 
ATOM     12  S   UNL     1       8.365  -2.895  26.015  0.00  0.00    -0.123 S 
ATOM     13  C   UNL     1       8.956  -3.799  24.564  0.00  0.00    +0.203 C 
ATOM     14  O   UNL     1       8.018  -3.646  23.482  0.00  0.00    -0.340 OA
ATOM     15  C   UNL     1       7.274  -2.420  23.652  0.00  0.00    +0.235 C 
BRANCH  13  16
ATOM     16  C   UNL     1       9.158  -5.289  24.864  0.00  0.00    +0.198 C 
BRANCH  16  17
ATOM     17  O   UNL     1      10.427  -5.558  25.466  0.00  0.00    -0.392 OA
ATOM     18  H   UNL     1      10.903  -6.145  24.852  0.00  0.00    +0.210 HD
ENDBRANCH  16  17
ENDBRANCH  13  16
ENDBRANCH   1  15
TORSDOF 3
ENDMDL
MODEL 3
REMARK VINA RESULT:      -5.5      3.031      5.962
REMARK  Name = 
REMARK  3 active torsions:
REMARK  status: ('A' for Active; 'I' for Inactive)
REMARK    1  A    between atoms: C_2  and  N_8
REMARK    2  A    between atoms: C_4  and  C_6
REMARK    3  A    between atoms: C_6  and  O_7
REMARK                            x       y       z     vdW  Elec       q    Type
REMARK                         _______ _______ _______ _____ _____    ______ ____
ROOT
ATOM      1  N   UNL     1       8.144  -3.385  23.205  0.00  0.00    -0.272 N 
ATOM      2  C   UNL     1       8.143  -4.686  23.727  0.00  0.00    +0.352 A 
ATOM      3  O   UNL     1       9.062  -5.078  24.443  0.00  0.00    -0.244 OA
ATOM      4  N   UNL     1       7.096  -5.523  23.415  0.00  0.00    -0.178 NA
ATOM      5  C   UNL     1       6.193  -5.138  22.572  0.00  0.00    +0.123 A 
ATOM      6  N   UNL     1       5.197  -6.023  22.268  0.00  0.00    -0.343 N 
ATOM      7  H   UNL     1       5.147  -6.810  22.908  0.00  0.00    +0.144 HD
ATOM      8  H   UNL     1       4.292  -5.654  21.998  0.00  0.00    +0.144 HD
ATOM      9  C   UNL     1       6.200  -3.819  21.925  0.00  0.00    +0.061 A 
ATOM     10  C   UNL     1       7.204  -3.016  22.265  0.00  0.00    +0.096 A 
ENDROOT
BRANCH   1  15
ATOM     11  C   UNL     1       9.145  -1.565  24.711  0.00  0.00    +0.126 C 
ATOM     12  S   UNL     1       8.291  -0.134  24.025  0.00  0.00    -0.123 S 
ATOM     13  C   UNL     1       8.868  -0.524  22.356  0.00  0.00    +0.203 C 
ATOM     14  O   UNL     1       9.674  -1.717  22.387  0.00  0.00    -0.340 OA
ATOM     15  C   UNL     1       9.299  -2.528  23.522  0.00  0.00    +0.235 C 
BRANCH  13  16
ATOM     16  C   UNL     1       9.679   0.629  21.750  0.00  0.00    +0.198 C 
BRANCH  16  17
ATOM     17  O   UNL     1       8.859   1.549  21.023  0.00  0.00    -0.392 OA
ATOM     18  H   UNL     1       8.065   1.697  21.567  0.00  0.00    +0.210 HD
ENDBRANCH  16  17
ENDBRANCH  13  16
ENDBRANCH   1  15
TORSDOF 3
ENDMDL
MODEL 4
REMARK VINA RESULT:      -5.4      4.052      6.720
REMARK  Name = 
REMARK  3 active torsions:
REMARK  status: ('A' for Active; 'I' for Inactive)
REMARK    1  A    between atoms: C_2  and  N_8
REMARK    2  A    between atoms: C_4  and  C_6
REMARK    3  A    between atoms: C_6  and  O_7
REMARK                            x       y       z     vdW  Elec       q    Type
REMARK                         _______ _______ _______ _____ _____    ______ ____
ROOT
ATOM      1  N   UNL     1       7.315  -4.868  24.812  0.00  0.00    -0.272 N 
ATOM      2  C   UNL     1       6.608  -5.644  25.742  0.00  0.00    +0.352 A 
ATOM      3  O   UNL     1       7.009  -5.764  26.898  0.00  0.00    -0.244 OA
ATOM      4  N   UNL     1       5.456  -6.278  25.334  0.00  0.00    -0.178 NA
ATOM      5  C   UNL     1       5.104  -6.237  24.090  0.00  0.00    +0.123 A 
ATOM      6  N   UNL     1       3.973  -6.917  23.731  0.00  0.00    -0.343 N 
ATOM      7  H   UNL     1       3.405  -7.199  24.524  0.00  0.00    +0.144 HD
ATOM      8  H   UNL     1       3.438  -6.576  22.942  0.00  0.00    +0.144 HD
ATOM      9  C   UNL     1       5.862  -5.515  23.058  0.00  0.00    +0.061 A 
ATOM     10  C   UNL     1       6.953  -4.885  23.481  0.00  0.00    +0.096 A 
ENDROOT
BRANCH   1  15
ATOM     11  C   UNL     1       8.431  -2.968  26.127  0.00  0.00    +0.126 C 
ATOM     12  S   UNL     1       8.209  -1.636  24.934  0.00  0.00    -0.123 S 
ATOM     13  C   UNL     1       9.013  -2.599  23.631  0.00  0.00    +0.203 C 
ATOM     14  O   UNL     1       9.407  -3.883  24.149  0.00  0.00    -0.340 OA
ATOM     15  C   UNL     1       8.564  -4.237  25.267  0.00  0.00    +0.235 C 
BRANCH  13  16
ATOM     16  C   UNL     1      10.239  -1.874  23.061  0.00  0.00    +0.198 C 
BRANCH  16  17
ATOM     17  O   UNL     1      10.157  -1.693  21.645  0.00  0.00    -0.392 OA
ATOM     18  H   UNL     1      11.072  -1.704  21.314  0.00  0.00    +0.210 HD
ENDBRANCH  16  17
ENDBRANCH  13  16
ENDBRANCH   1  15
TORSDOF 3
ENDMDL
MODEL 5
REMARK VINA RESULT:      -5.3      2.707      3.223
REMARK  Name = 
REMARK  3 active torsions:
REMARK  status: ('A' for Active; 'I' for Inactive)
REMARK    1  A    between atoms: C_2  and  N_8
REMARK    2  A    between atoms: C_4  and  C_6
REMARK    3  A    between atoms: C_6  and  O_7
REMARK                            x       y       z     vdW  Elec       q    Type
REMARK                         _______ _______ _______ _____ _____    ______ ____
ROOT
ATOM      1  N   UNL     1       7.633  -0.821  22.762  0.00  0.00    -0.272 N 
ATOM      2  C   UNL     1       7.368   0.514  23.098  0.00  0.00    +0.352 A 
ATOM      3  O   UNL     1       6.336   0.821  23.693  0.00  0.00    -0.244 OA
ATOM      4  N   UNL     1       8.281   1.479  22.742  0.00  0.00    -0.178 NA
ATOM      5  C   UNL     1       9.307   1.161  22.020  0.00  0.00    +0.123 A 
ATOM      6  N   UNL     1      10.162   2.166  21.661  0.00  0.00    -0.343 N 
ATOM      7  H   UNL     1      10.021   3.022  22.189  0.00  0.00    +0.144 HD
ATOM      8  H   UNL     1      11.136   1.935  21.505  0.00  0.00    +0.144 HD
ATOM      9  C   UNL     1       9.581  -0.208  21.563  0.00  0.00    +0.061 A 
ATOM     10  C   UNL     1       8.701  -1.129  21.945  0.00  0.00    +0.096 A 
ENDROOT
BRANCH   1  15
ATOM     11  C   UNL     1       6.799  -2.552  24.463  0.00  0.00    +0.126 C 
ATOM     12  S   UNL     1       7.964  -3.879  24.104  0.00  0.00    -0.123 S 
ATOM     13  C   UNL     1       7.523  -3.862  22.350  0.00  0.00    +0.203 C 
ATOM     14  O   UNL     1       6.524  -2.854  22.110  0.00  0.00    -0.340 OA
ATOM     15  C   UNL     1       6.618  -1.825  23.119  0.00  0.00    +0.235 C 
BRANCH  13  16
ATOM     16  C   UNL     1       7.002  -5.226  21.880  0.00  0.00    +0.198 C 
BRANCH  16  17
ATOM     17  O   UNL     1       5.885  -5.108  20.995  0.00  0.00    -0.392 OA
ATOM     18  H   UNL     1       5.963  -4.235  20.570  0.00  0.00    +0.210 HD
ENDBRANCH  16  17
ENDBRANCH  13  16
ENDBRANCH   1  15
TORSDOF 3
ENDMDL
MODEL 6
REMARK VINA RESULT:      -5.3      1.754      2.112
REMARK  Name = 
REMARK  3 active torsions:
REMARK  status: ('A' for Active; 'I' for Inactive)
REMARK    1  A    between atoms: C_2  and  N_8
REMARK    2  A    between atoms: C_4  and  C_6
REMARK    3  A    between atoms: C_6  and  O_7
REMARK                            x       y       z     vdW  Elec       q    Type
REMARK                         _______ _______ _______ _____ _____    ______ ____
ROOT
ATOM      1  N   UNL     1       8.408  -1.595  22.664  0.00  0.00    -0.272 N 
ATOM      2  C   UNL     1       9.683  -1.170  22.266  0.00  0.00    +0.352 A 
ATOM      3  O   UNL     1      10.626  -1.958  22.226  0.00  0.00    -0.244 OA
ATOM      4  N   UNL     1       9.864   0.152  21.928  0.00  0.00    -0.178 NA
ATOM      5  C   UNL     1       8.894   0.994  22.081  0.00  0.00    +0.123 A 
ATOM      6  N   UNL     1       9.139   2.302  21.767  0.00  0.00    -0.343 N 
ATOM      7  H   UNL     1       9.994   2.435  21.235  0.00  0.00    +0.144 HD
ATOM      8  H   UNL     1       8.365   2.874  21.453  0.00  0.00    +0.144 HD
ATOM      9  C   UNL     1       7.566   0.616  22.583  0.00  0.00    +0.061 A 
ATOM     10  C   UNL     1       7.405  -0.671  22.874  0.00  0.00    +0.096 A 
ENDROOT
BRANCH   1  15
ATOM     11  C   UNL     1       6.836  -3.482  23.409  0.00  0.00    +0.126 C 
ATOM     12  S   UNL     1       6.606  -2.990  25.127  0.00  0.00    -0.123 S 
ATOM     13  C   UNL     1       8.391  -2.963  25.413  0.00  0.00    +0.203 C 
ATOM     14  O   UNL     1       9.082  -3.319  24.201  0.00  0.00    -0.340 OA
ATOM     15  C   UNL     1       8.256  -3.005  23.059  0.00  0.00    +0.235 C 
BRANCH  13  16
ATOM     16  C   UNL     1       8.802  -3.919  26.540  0.00  0.00    +0.198 C 
BRANCH  16  17
ATOM     17  O   UNL     1       8.921  -5.272  26.092  0.00  0.00    -0.392 OA
ATOM     18  H   UNL     1       9.354  -5.763  26.814  0.00  0.00    +0.210 HD
ENDBRANCH  16  17
ENDBRANCH  13  16
ENDBRANCH   1  15
TORSDOF 3
ENDMDL
MODEL 7
REMARK VINA RESULT:      -5.3      1.917      2.342
REMARK  Name = 
REMARK  3 active torsions:
REMARK  status: ('A' for Active; 'I' for Inactive)
REMARK    1  A    between atoms: C_2  and  N_8
REMARK    2  A    between atoms: C_4  and  C_6
REMARK    3  A    between atoms: C_6  and  O_7
REMARK                            x       y       z     vdW  Elec       q    Type
REMARK                         _______ _______ _______ _____ _____    ______ ____
ROOT
ATOM      1  N   UNL     1       9.085  -2.082  24.154  0.00  0.00    -0.272 N 
ATOM      2  C   UNL     1       9.739  -1.347  23.155  0.00  0.00    +0.352 A 
ATOM      3  O   UNL     1      10.094  -1.885  22.108  0.00  0.00    -0.244 OA
ATOM      4  N   UNL     1       9.987  -0.011  23.371  0.00  0.00    -0.178 NA
ATOM      5  C   UNL     1       9.711   0.518  24.520  0.00  0.00    +0.123 A 
ATOM      6  N   UNL     1      10.013   1.839  24.695  0.00  0.00    -0.343 N 
ATOM      7  H   UNL     1      10.218   2.324  23.826  0.00  0.00    +0.144 HD
ATOM      8  H   UNL     1       9.452   2.379  25.344  0.00  0.00    +0.144 HD
ATOM      9  C   UNL     1       9.110  -0.232  25.632  0.00  0.00    +0.061 A 
ATOM     10  C   UNL     1       8.852  -1.513  25.389  0.00  0.00    +0.096 A 
ENDROOT
BRANCH   1  15
ATOM     11  C   UNL     1       7.658  -3.906  23.049  0.00  0.00    +0.126 C 
ATOM     12  S   UNL     1       6.272  -3.911  24.202  0.00  0.00    -0.123 S 
ATOM     13  C   UNL     1       7.375  -4.177  25.610  0.00  0.00    +0.203 C 
ATOM     14  O   UNL     1       8.739  -4.243  25.152  0.00  0.00    -0.340 OA
ATOM     15  C   UNL     1       8.872  -3.517  23.910  0.00  0.00    +0.235 C 
BRANCH  13  16
ATOM     16  C   UNL     1       7.025  -5.459  26.374  0.00  0.00    +0.198 C 
BRANCH  16  17
ATOM     17  O   UNL     1       7.946  -5.732  27.434  0.00  0.00    -0.392 OA
ATOM     18  H   UNL     1       7.610  -6.522  27.893  0.00  0.00    +0.210 HD
ENDBRANCH  16  17
ENDBRANCH  13  16
ENDBRANCH   1  15
TORSDOF 3
ENDMDL
MODEL 8
REMARK VINA RESULT:      -5.2      2.671      3.255
REMARK  Name = 
REMARK  3 active torsions:
REMARK  status: ('A' for Active; 'I' for Inactive)
REMARK    1  A    between atoms: C_2  and  N_8
REMARK    2  A    between atoms: C_4  and  C_6
REMARK    3  A    between atoms: C_6  and  O_7
REMARK                            x       y       z     vdW  Elec       q    Type
REMARK                         _______ _______ _______ _____ _____    ______ ____
ROOT
ATOM      1  N   UNL     1       8.380  -1.433  22.850  0.00  0.00    -0.272 N 
ATOM      2  C   UNL     1       9.712  -1.285  22.439  0.00  0.00    +0.352 A 
ATOM      3  O   UNL     1      10.506  -2.220  22.522  0.00  0.00    -0.244 OA
ATOM      4  N   UNL     1      10.121  -0.066  21.948  0.00  0.00    -0.178 NA
ATOM      5  C   UNL     1       9.309   0.942  21.970  0.00  0.00    +0.123 A 
ATOM      6  N   UNL     1       9.778   2.140  21.506  0.00  0.00    -0.343 N 
ATOM      7  H   UNL     1      10.646   2.058  20.985  0.00  0.00    +0.144 HD
ATOM      8  H   UNL     1       9.116   2.791  21.102  0.00  0.00    +0.144 HD
ATOM      9  C   UNL     1       7.933   0.861  22.477  0.00  0.00    +0.061 A 
ATOM     10  C   UNL     1       7.551  -0.334  22.918  0.00  0.00    +0.096 A 
ENDROOT
BRANCH   1  15
ATOM     11  C   UNL     1       7.426  -3.777  22.425  0.00  0.00    +0.126 C 
ATOM     12  S   UNL     1       5.686  -3.342  22.249  0.00  0.00    -0.123 S 
ATOM     13  C   UNL     1       5.680  -2.501  23.850  0.00  0.00    +0.203 C 
ATOM     14  O   UNL     1       6.990  -2.579  24.444  0.00  0.00    -0.340 OA
ATOM     15  C   UNL     1       7.985  -2.736  23.410  0.00  0.00    +0.235 C 
BRANCH  13  16
ATOM     16  C   UNL     1       4.644  -3.104  24.807  0.00  0.00    +0.198 C 
BRANCH  16  17
ATOM     17  O   UNL     1       3.917  -2.103  25.526  0.00  0.00    -0.392 OA
ATOM     18  H   UNL     1       3.044  -2.487  25.724  0.00  0.00    +0.210 HD
ENDBRANCH  16  17
ENDBRANCH  13  16
ENDBRANCH   1  15
TORSDOF 3
ENDMDL
MODEL 9
REMARK VINA RESULT:      -5.1      2.945      5.545
REMARK  Name = 
REMARK  3 active torsions:
REMARK  status: ('A' for Active; 'I' for Inactive)
REMARK    1  A    between atoms: C_2  and  N_8
REMARK    2  A    between atoms: C_4  and  C_6
REMARK    3  A    between atoms: C_6  and  O_7
REMARK                            x       y       z     vdW  Elec       q    Type
REMARK                         _______ _______ _______ _____ _____    ______ ____
ROOT
ATOM      1  N   UNL     1       9.071  -1.764  25.063  0.00  0.00    -0.272 N 
ATOM      2  C   UNL     1       8.561  -2.020  26.343  0.00  0.00    +0.352 A 
ATOM      3  O   UNL     1       8.338  -1.101  27.128  0.00  0.00    -0.244 OA
ATOM      4  N   UNL     1       8.323  -3.325  26.711  0.00  0.00    -0.178 NA
ATOM      5  C   UNL     1       8.667  -4.290  25.921  0.00  0.00    +0.123 A 
ATOM      6  N   UNL     1       8.443  -5.568  26.352  0.00  0.00    -0.343 N 
ATOM      7  H   UNL     1       7.825  -5.620  27.156  0.00  0.00    +0.144 HD
ATOM      8  H   UNL     1       8.277  -6.287  25.658  0.00  0.00    +0.144 HD
ATOM      9  C   UNL     1       9.289  -4.077  24.607  0.00  0.00    +0.061 A 
ATOM     10  C   UNL     1       9.482  -2.808  24.260  0.00  0.00    +0.096 A 
ENDROOT
BRANCH   1  15
ATOM     11  C   UNL     1       8.181   0.629  24.803  0.00  0.00    +0.126 C 
ATOM     12  S   UNL     1       7.306   0.433  23.240  0.00  0.00    -0.123 S 
ATOM     13  C   UNL     1       8.789  -0.209  22.429  0.00  0.00    +0.203 C 
ATOM     14  O   UNL     1       9.877  -0.253  23.372  0.00  0.00    -0.340 OA
ATOM     15  C   UNL     1       9.354  -0.362  24.714  0.00  0.00    +0.235 C 
BRANCH  13  16
ATOM     16  C   UNL     1       9.191   0.644  21.219  0.00  0.00    +0.198 C 
BRANCH  16  17
ATOM     17  O   UNL     1       9.792   1.885  21.601  0.00  0.00    -0.392 OA
ATOM     18  H   UNL     1       9.964   1.823  22.558  0.00  0.00    +0.210 HD
ENDBRANCH  16  17
ENDBRANCH  13  16
ENDBRANCH   1  15
TORSDOF 3
ENDMDL
