MODEL 1
REMARK VINA RESULT:      -6.9      0.000      0.000
REMARK  Name = 
REMARK  16 active torsions:
REMARK  status: ('A' for Active; 'I' for Inactive)
REMARK    1  A    between atoms: C_1  and  C_2
REMARK    2  A    between atoms: C_2  and  C_3
REMARK    3  A    between atoms: C_2  and  C_4
REMARK    4  A    between atoms: C_4  and  N_5
REMARK    5  A    between atoms: N_5  and  C_6
REMARK    6  A    between atoms: N_5  and  S_34
REMARK    7  A    between atoms: C_6  and  C_7
REMARK    8  A    between atoms: C_7  and  C_9
REMARK    9  A    between atoms: C_7  and  O_33
REMARK   10  A    between atoms: C_9  and  C_11
REMARK   11  A    between atoms: C_9  and  N_18
REMARK   12  A    between atoms: C_11  and  C_12
REMARK   13  A    between atoms: C_19  and  O_21
REMARK   14  A    between atoms: O_21  and  C_22
REMARK   15  A    between atoms: S_34  and  C_37
REMARK   16  A    between atoms: C_40  and  N_43
REMARK                            x       y       z     vdW  Elec       q    Type
REMARK                         _______ _______ _______ _____ _____    ______ ____
ROOT
ATOM      1  C   UNL     1       8.470  -1.844  25.787  0.00  0.00    +0.151 C 
ENDROOT
BRANCH   1   2
ATOM      2  O   UNL     1       8.827  -1.402  27.117  0.00  0.00    -0.389 OA
ATOM      3  H   UNL     1       7.995  -1.222  27.591  0.00  0.00    +0.210 HD
ENDBRANCH   1   2
BRANCH   1   4
ATOM      4  C   UNL     1       7.217  -1.057  25.366  0.00  0.00    +0.142 C 
BRANCH   4   5
ATOM      5  N   UNL     1       7.284   0.043  24.314  0.00  0.00    -0.174 NA
BRANCH   5   6
ATOM      6  S   UNL     1       6.459   1.451  25.091  0.00  0.00    +0.061 S 
ATOM      7  O   UNL     1       7.133   1.680  26.353  0.00  0.00    -0.153 OA
ATOM      8  O   UNL     1       5.029   1.203  25.049  0.00  0.00    -0.153 OA
BRANCH   6   9
ATOM      9  C   UNL     1       6.763   2.830  24.024  0.00  0.00    +0.106 A 
ATOM     10  C   UNL     1       6.198   2.871  22.744  0.00  0.00    +0.030 A 
ATOM     11  C   UNL     1       6.464   3.963  21.913  0.00  0.00    +0.024 A 
ATOM     12  C   UNL     1       7.247   5.028  22.366  0.00  0.00    +0.025 A 
ATOM     13  C   UNL     1       7.913   4.901  23.590  0.00  0.00    +0.024 A 
ATOM     14  C   UNL     1       7.660   3.815  24.430  0.00  0.00    +0.030 A 
BRANCH  12  15
ATOM     15  N   UNL     1       7.537   6.102  21.517  0.00  0.00    -0.358 N 
ATOM     16  H   UNL     1       8.350   6.638  21.810  0.00  0.00    +0.142 HD
ATOM     17  H   UNL     1       7.604   5.829  20.540  0.00  0.00    +0.142 HD
ENDBRANCH  12  15
ENDBRANCH   6   9
ENDBRANCH   5   6
BRANCH   5  18
ATOM     18  C   UNL     1       8.674   0.470  23.856  0.00  0.00    +0.112 C 
BRANCH  18  20
ATOM     19  C   UNL     1       9.733   1.582  21.784  0.00  0.00    +0.008 C 
ATOM     20  C   UNL     1       8.948   0.395  22.340  0.00  0.00    -0.001 C 
ATOM     21  C   UNL     1       9.697  -0.894  21.971  0.00  0.00    +0.008 C 
ENDBRANCH  18  20
ENDBRANCH   5  18
ENDBRANCH   4   5
ENDBRANCH   1   4
BRANCH   1  22
ATOM     22  C   UNL     1       8.392  -3.407  25.803  0.00  0.00    +0.110 C 
BRANCH  22  23
ATOM     23  N   UNL     1       7.057  -3.956  26.184  0.00  0.00    -0.275 N 
ATOM     24  H   UNL     1       6.249  -3.575  25.709  0.00  0.00    +0.152 HD
ATOM     25  C   UNL     1       6.793  -5.062  26.944  0.00  0.00    +0.401 C 
ATOM     26  O   UNL     1       7.606  -5.731  27.560  0.00  0.00    -0.226 OA
BRANCH  25  27
ATOM     27  O   UNL     1       5.451  -5.309  26.970  0.00  0.00    -0.444 OA
BRANCH  27  28
ATOM     28  C   UNL     1       4.672  -4.581  25.997  0.00  0.00    +0.212 C 
ATOM     29  C   UNL     1       4.230  -5.431  24.803  0.00  0.00    +0.090 C 
ATOM     30  C   UNL     1       4.525  -6.914  24.796  0.00  0.00    +0.040 C 
ATOM     31  C   UNL     1       3.208  -7.582  25.147  0.00  0.00    +0.163 C 
ATOM     32  O   UNL     1       2.278  -6.552  25.480  0.00  0.00    -0.351 OA
ATOM     33  C   UNL     1       2.719  -5.361  24.835  0.00  0.00    +0.257 C 
ATOM     34  O   UNL     1       2.344  -4.203  25.557  0.00  0.00    -0.347 OA
ATOM     35  C   UNL     1       3.383  -3.925  26.499  0.00  0.00    +0.208 C 
ENDBRANCH  27  28
ENDBRANCH  25  27
ENDBRANCH  22  23
BRANCH  22  36
ATOM     36  C   UNL     1       8.859  -4.000  24.445  0.00  0.00    +0.060 C 
BRANCH  36  37
ATOM     37  C   UNL     1       7.839  -4.472  23.416  0.00  0.00    -0.046 A 
ATOM     38  C   UNL     1       7.712  -5.811  23.004  0.00  0.00    +0.004 A 
ATOM     39  C   UNL     1       6.855  -6.148  21.948  0.00  0.00    +0.000 A 
ATOM     40  C   UNL     1       6.124  -5.161  21.282  0.00  0.00    +0.000 A 
ATOM     41  C   UNL     1       6.241  -3.836  21.676  0.00  0.00    +0.000 A 
ATOM     42  C   UNL     1       7.093  -3.500  22.731  0.00  0.00    +0.004 A 
ENDBRANCH  36  37
ENDBRANCH  22  36
ENDBRANCH   1  22
TORSDOF 14
ENDMDL
MODEL 2
REMARK VINA RESULT:      -6.9      2.748      8.052
REMARK  Name = 
REMARK  16 active torsions:
REMARK  status: ('A' for Active; 'I' for Inactive)
REMARK    1  A    between atoms: C_1  and  C_2
REMARK    2  A    between atoms: C_2  and  C_3
REMARK    3  A    between atoms: C_2  and  C_4
REMARK    4  A    between atoms: C_4  and  N_5
REMARK    5  A    between atoms: N_5  and  C_6
REMARK    6  A    between atoms: N_5  and  S_34
REMARK    7  A    between atoms: C_6  and  C_7
REMARK    8  A    between atoms: C_7  and  C_9
REMARK    9  A    between atoms: C_7  and  O_33
REMARK   10  A    between atoms: C_9  and  C_11
REMARK   11  A    between atoms: C_9  and  N_18
REMARK   12  A    between atoms: C_11  and  C_12
REMARK   13  A    between atoms: C_19  and  O_21
REMARK   14  A    between atoms: O_21  and  C_22
REMARK   15  A    between atoms: S_34  and  C_37
REMARK   16  A    between atoms: C_40  and  N_43
REMARK                            x       y       z     vdW  Elec       q    Type
REMARK                         _______ _______ _______ _____ _____    ______ ____
ROOT
ATOM      1  C   UNL     1       9.348  -3.334  25.008  0.00  0.00    +0.151 C 
ENDROOT
BRANCH   1   2
ATOM      2  O   UNL     1       9.431  -4.704  24.548  0.00  0.00    -0.389 OA
ATOM      3  H   UNL     1       8.847  -5.233  25.121  0.00  0.00    +0.210 HD
ENDBRANCH   1   2
BRANCH   1   4
ATOM      4  C   UNL     1       8.515  -3.338  26.301  0.00  0.00    +0.142 C 
BRANCH   4   5
ATOM      5  N   UNL     1       7.008  -3.563  26.277  0.00  0.00    -0.174 NA
BRANCH   5   6
ATOM      6  S   UNL     1       6.798  -5.230  26.943  0.00  0.00    +0.061 S 
ATOM      7  O   UNL     1       6.281  -5.076  28.287  0.00  0.00    -0.153 OA
ATOM      8  O   UNL     1       8.029  -5.961  26.700  0.00  0.00    -0.153 OA
BRANCH   6   9
ATOM      9  C   UNL     1       5.554  -5.991  25.938  0.00  0.00    +0.106 A 
ATOM     10  C   UNL     1       5.491  -5.720  24.566  0.00  0.00    +0.030 A 
ATOM     11  C   UNL     1       4.492  -6.320  23.795  0.00  0.00    +0.024 A 
ATOM     12  C   UNL     1       3.591  -7.219  24.373  0.00  0.00    +0.025 A 
ATOM     13  C   UNL     1       3.585  -7.365  25.764  0.00  0.00    +0.024 A 
ATOM     14  C   UNL     1       4.575  -6.771  26.549  0.00  0.00    +0.030 A 
BRANCH  12  15
ATOM     15  N   UNL     1       2.572  -7.791  23.602  0.00  0.00    -0.358 N 
ATOM     16  H   UNL     1       1.759  -8.063  24.149  0.00  0.00    +0.142 HD
ATOM     17  H   UNL     1       2.310  -7.219  22.804  0.00  0.00    +0.142 HD
ENDBRANCH  12  15
ENDBRANCH   6   9
ENDBRANCH   5   6
BRANCH   5  18
ATOM     18  C   UNL     1       6.155  -2.591  27.085  0.00  0.00    +0.112 C 
BRANCH  18  20
ATOM     19  C   UNL     1       3.647  -3.158  26.911  0.00  0.00    +0.008 C 
ATOM     20  C   UNL     1       4.782  -2.227  26.489  0.00  0.00    -0.001 C 
ATOM     21  C   UNL     1       4.382  -0.787  26.845  0.00  0.00    +0.008 C 
ENDBRANCH  18  20
ENDBRANCH   5  18
ENDBRANCH   4   5
ENDBRANCH   1   4
BRANCH   1  22
ATOM     22  C   UNL     1       8.857  -2.454  23.812  0.00  0.00    +0.110 C 
BRANCH  22  23
ATOM     23  N   UNL     1       7.887  -1.383  24.189  0.00  0.00    -0.275 N 
ATOM     24  H   UNL     1       8.179  -0.725  24.900  0.00  0.00    +0.152 HD
ATOM     25  C   UNL     1       6.726  -1.042  23.551  0.00  0.00    +0.401 C 
ATOM     26  O   UNL     1       6.205  -1.641  22.624  0.00  0.00    -0.226 OA
BRANCH  25  27
ATOM     27  O   UNL     1       6.175   0.064  24.128  0.00  0.00    -0.444 OA
BRANCH  27  28
ATOM     28  C   UNL     1       7.108   1.112  24.465  0.00  0.00    +0.212 C 
ATOM     29  C   UNL     1       6.868   2.417  23.702  0.00  0.00    +0.090 C 
ATOM     30  C   UNL     1       5.663   2.538  22.796  0.00  0.00    +0.040 C 
ATOM     31  C   UNL     1       4.661   3.369  23.576  0.00  0.00    +0.163 C 
ATOM     32  O   UNL     1       5.195   3.572  24.884  0.00  0.00    -0.351 OA
ATOM     33  C   UNL     1       6.610   3.441  24.786  0.00  0.00    +0.257 C 
ATOM     34  O   UNL     1       7.177   2.962  25.991  0.00  0.00    -0.347 OA
ATOM     35  C   UNL     1       7.170   1.533  25.935  0.00  0.00    +0.208 C 
ENDBRANCH  27  28
ENDBRANCH  25  27
ENDBRANCH  22  23
BRANCH  22  36
ATOM     36  C   UNL     1      10.061  -1.850  23.037  0.00  0.00    +0.060 C 
BRANCH  36  37
ATOM     37  C   UNL     1      10.286  -0.344  23.010  0.00  0.00    -0.046 A 
ATOM     38  C   UNL     1      10.751   0.394  24.114  0.00  0.00    +0.004 A 
ATOM     39  C   UNL     1      10.793   1.794  24.064  0.00  0.00    +0.000 A 
ATOM     40  C   UNL     1      10.364   2.478  22.924  0.00  0.00    +0.000 A 
ATOM     41  C   UNL     1       9.901   1.764  21.827  0.00  0.00    +0.000 A 
ATOM     42  C   UNL     1       9.862   0.368  21.876  0.00  0.00    +0.004 A 
ENDBRANCH  36  37
ENDBRANCH  22  36
ENDBRANCH   1  22
TORSDOF 14
ENDMDL
MODEL 3
REMARK VINA RESULT:      -6.8      2.233      4.537
REMARK  Name = 
REMARK  16 active torsions:
REMARK  status: ('A' for Active; 'I' for Inactive)
REMARK    1  A    between atoms: C_1  and  C_2
REMARK    2  A    between atoms: C_2  and  C_3
REMARK    3  A    between atoms: C_2  and  C_4
REMARK    4  A    between atoms: C_4  and  N_5
REMARK    5  A    between atoms: N_5  and  C_6
REMARK    6  A    between atoms: N_5  and  S_34
REMARK    7  A    between atoms: C_6  and  C_7
REMARK    8  A    between atoms: C_7  and  C_9
REMARK    9  A    between atoms: C_7  and  O_33
REMARK   10  A    between atoms: C_9  and  C_11
REMARK   11  A    between atoms: C_9  and  N_18
REMARK   12  A    between atoms: C_11  and  C_12
REMARK   13  A    between atoms: C_19  and  O_21
REMARK   14  A    between atoms: O_21  and  C_22
REMARK   15  A    between atoms: S_34  and  C_37
REMARK   16  A    between atoms: C_40  and  N_43
REMARK                            x       y       z     vdW  Elec       q    Type
REMARK                         _______ _______ _______ _____ _____    ______ ____
ROOT
ATOM      1  C   UNL     1       8.365  -0.457  26.516  0.00  0.00    +0.151 C 
ENDROOT
BRANCH   1   2
ATOM      2  O   UNL     1       9.164  -0.342  27.716  0.00  0.00    -0.389 OA
ATOM      3  H   UNL     1       8.628  -0.691  28.451  0.00  0.00    +0.210 HD
ENDBRANCH   1   2
BRANCH   1   4
ATOM      4  C   UNL     1       6.907  -0.168  26.910  0.00  0.00    +0.142 C 
BRANCH   4   5
ATOM      5  N   UNL     1       6.295   1.217  26.737  0.00  0.00    -0.174 NA
BRANCH   5   6
ATOM      6  S   UNL     1       5.553   1.173  25.090  0.00  0.00    +0.061 S 
ATOM      7  O   UNL     1       4.144   1.462  25.263  0.00  0.00    -0.153 OA
ATOM      8  O   UNL     1       5.985  -0.055  24.445  0.00  0.00    -0.153 OA
BRANCH   6   9
ATOM      9  C   UNL     1       6.303   2.503  24.194  0.00  0.00    +0.106 A 
ATOM     10  C   UNL     1       7.190   3.375  24.836  0.00  0.00    +0.030 A 
ATOM     11  C   UNL     1       7.758   4.428  24.112  0.00  0.00    +0.024 A 
ATOM     12  C   UNL     1       7.483   4.585  22.751  0.00  0.00    +0.025 A 
ATOM     13  C   UNL     1       6.490   3.791  22.168  0.00  0.00    +0.024 A 
ATOM     14  C   UNL     1       5.912   2.736  22.878  0.00  0.00    +0.030 A 
BRANCH  12  15
ATOM     15  N   UNL     1       8.029   5.660  22.041  0.00  0.00    -0.358 N 
ATOM     16  H   UNL     1       7.641   5.764  21.106  0.00  0.00    +0.142 HD
ATOM     17  H   UNL     1       7.995   6.536  22.557  0.00  0.00    +0.142 HD
ENDBRANCH  12  15
ENDBRANCH   6   9
ENDBRANCH   5   6
BRANCH   5  18
ATOM     18  C   UNL     1       5.234   1.630  27.752  0.00  0.00    +0.112 C 
BRANCH  18  20
ATOM     19  C   UNL     1       6.844   3.467  28.577  0.00  0.00    +0.008 C 
ATOM     20  C   UNL     1       5.394   3.030  28.376  0.00  0.00    -0.001 C 
ATOM     21  C   UNL     1       4.680   4.101  27.537  0.00  0.00    +0.008 C 
ENDBRANCH  18  20
ENDBRANCH   5  18
ENDBRANCH   4   5
ENDBRANCH   1   4
BRANCH   1  22
ATOM     22  C   UNL     1       8.694  -1.835  25.849  0.00  0.00    +0.110 C 
BRANCH  22  23
ATOM     23  N   UNL     1       7.496  -2.662  25.518  0.00  0.00    -0.275 N 
ATOM     24  H   UNL     1       7.072  -2.519  24.610  0.00  0.00    +0.152 HD
ATOM     25  C   UNL     1       7.014  -3.746  26.198  0.00  0.00    +0.401 C 
ATOM     26  O   UNL     1       7.403  -4.158  27.279  0.00  0.00    -0.226 OA
BRANCH  25  27
ATOM     27  O   UNL     1       5.972  -4.307  25.519  0.00  0.00    -0.444 OA
BRANCH  27  28
ATOM     28  C   UNL     1       6.343  -5.258  24.499  0.00  0.00    +0.212 C 
ATOM     29  C   UNL     1       5.831  -4.894  23.103  0.00  0.00    +0.090 C 
ATOM     30  C   UNL     1       5.119  -3.577  22.893  0.00  0.00    +0.040 C 
ATOM     31  C   UNL     1       6.142  -2.673  22.230  0.00  0.00    +0.163 C 
ATOM     32  O   UNL     1       7.385  -3.373  22.208  0.00  0.00    -0.351 OA
ATOM     33  C   UNL     1       7.086  -4.765  22.267  0.00  0.00    +0.257 C 
ATOM     34  O   UNL     1       8.118  -5.497  22.901  0.00  0.00    -0.347 OA
ATOM     35  C   UNL     1       7.841  -5.509  24.304  0.00  0.00    +0.208 C 
ENDBRANCH  27  28
ENDBRANCH  25  27
ENDBRANCH  22  23
BRANCH  22  36
ATOM     36  C   UNL     1       9.589  -1.643  24.593  0.00  0.00    +0.060 C 
BRANCH  36  37
ATOM     37  C   UNL     1       9.642  -0.299  23.879  0.00  0.00    -0.046 A 
ATOM     38  C   UNL     1       9.009  -0.046  22.648  0.00  0.00    +0.004 A 
ATOM     39  C   UNL     1       9.224   1.166  21.978  0.00  0.00    +0.000 A 
ATOM     40  C   UNL     1      10.075   2.135  22.515  0.00  0.00    +0.000 A 
ATOM     41  C   UNL     1      10.707   1.898  23.728  0.00  0.00    +0.000 A 
ATOM     42  C   UNL     1      10.491   0.692  24.398  0.00  0.00    +0.004 A 
ENDBRANCH  36  37
ENDBRANCH  22  36
ENDBRANCH   1  22
TORSDOF 14
ENDMDL
MODEL 4
REMARK VINA RESULT:      -6.7      3.010      7.629
REMARK  Name = 
REMARK  16 active torsions:
REMARK  status: ('A' for Active; 'I' for Inactive)
REMARK    1  A    between atoms: C_1  and  C_2
REMARK    2  A    between atoms: C_2  and  C_3
REMARK    3  A    between atoms: C_2  and  C_4
REMARK    4  A    between atoms: C_4  and  N_5
REMARK    5  A    between atoms: N_5  and  C_6
REMARK    6  A    between atoms: N_5  and  S_34
REMARK    7  A    between atoms: C_6  and  C_7
REMARK    8  A    between atoms: C_7  and  C_9
REMARK    9  A    between atoms: C_7  and  O_33
REMARK   10  A    between atoms: C_9  and  C_11
REMARK   11  A    between atoms: C_9  and  N_18
REMARK   12  A    between atoms: C_11  and  C_12
REMARK   13  A    between atoms: C_19  and  O_21
REMARK   14  A    between atoms: O_21  and  C_22
REMARK   15  A    between atoms: S_34  and  C_37
REMARK   16  A    between atoms: C_40  and  N_43
REMARK                            x       y       z     vdW  Elec       q    Type
REMARK                         _______ _______ _______ _____ _____    ______ ____
ROOT
ATOM      1  C   UNL     1       7.756  -4.640  27.025  0.00  0.00    +0.151 C 
ENDROOT
BRANCH   1   2
ATOM      2  O   UNL     1       8.205  -5.982  26.724  0.00  0.00    -0.389 OA
ATOM      3  H   UNL     1       7.649  -6.591  27.241  0.00  0.00    +0.210 HD
ENDBRANCH   1   2
BRANCH   1   4
ATOM      4  C   UNL     1       6.482  -4.766  27.877  0.00  0.00    +0.142 C 
BRANCH   4   5
ATOM      5  N   UNL     1       5.094  -4.648  27.258  0.00  0.00    -0.174 NA
BRANCH   5   6
ATOM      6  S   UNL     1       4.376  -6.294  27.461  0.00  0.00    +0.061 S 
ATOM      7  O   UNL     1       3.336  -6.171  28.462  0.00  0.00    -0.153 OA
ATOM      8  O   UNL     1       5.469  -7.233  27.639  0.00  0.00    -0.153 OA
BRANCH   6   9
ATOM      9  C   UNL     1       3.626  -6.681  25.905  0.00  0.00    +0.106 A 
ATOM     10  C   UNL     1       4.199  -6.225  24.712  0.00  0.00    +0.030 A 
ATOM     11  C   UNL     1       3.581  -6.530  23.496  0.00  0.00    +0.024 A 
ATOM     12  C   UNL     1       2.430  -7.322  23.462  0.00  0.00    +0.025 A 
ATOM     13  C   UNL     1       1.800  -7.646  24.668  0.00  0.00    +0.024 A 
ATOM     14  C   UNL     1       2.403  -7.346  25.891  0.00  0.00    +0.030 A 
BRANCH  12  15
ATOM     15  N   UNL     1       1.798  -7.596  22.243  0.00  0.00    -0.358 N 
ATOM     16  H   UNL     1       2.286  -8.291  21.685  0.00  0.00    +0.142 HD
ATOM     17  H   UNL     1       0.814  -7.828  22.350  0.00  0.00    +0.142 HD
ENDBRANCH  12  15
ENDBRANCH   6   9
ENDBRANCH   5   6
BRANCH   5  18
ATOM     18  C   UNL     1       4.156  -3.614  27.871  0.00  0.00    +0.112 C 
BRANCH  18  20
ATOM     19  C   UNL     1       3.424  -1.195  27.363  0.00  0.00    +0.008 C 
ATOM     20  C   UNL     1       3.469  -2.646  26.888  0.00  0.00    -0.001 C 
ATOM     21  C   UNL     1       4.143  -2.681  25.508  0.00  0.00    +0.008 C 
ENDBRANCH  18  20
ENDBRANCH   5  18
ENDBRANCH   4   5
ENDBRANCH   1   4
BRANCH   1  22
ATOM     22  C   UNL     1       7.671  -3.847  25.678  0.00  0.00    +0.110 C 
BRANCH  22  23
ATOM     23  N   UNL     1       8.364  -2.525  25.695  0.00  0.00    -0.275 N 
ATOM     24  H   UNL     1       9.152  -2.408  25.071  0.00  0.00    +0.152 HD
ATOM     25  C   UNL     1       7.945  -1.368  26.293  0.00  0.00    +0.401 C 
ATOM     26  O   UNL     1       6.985  -1.241  27.036  0.00  0.00    -0.226 OA
BRANCH  25  27
ATOM     27  O   UNL     1       8.790  -0.342  25.985  0.00  0.00    -0.444 OA
BRANCH  27  28
ATOM     28  C   UNL     1       8.347   0.521  24.917  0.00  0.00    +0.212 C 
ATOM     29  C   UNL     1       9.321   0.592  23.739  0.00  0.00    +0.090 C 
ATOM     30  C   UNL     1      10.548  -0.293  23.734  0.00  0.00    +0.040 C 
ATOM     31  C   UNL     1      10.220  -1.421  22.773  0.00  0.00    +0.163 C 
ATOM     32  O   UNL     1       8.855  -1.272  22.384  0.00  0.00    -0.351 OA
ATOM     33  C   UNL     1       8.515   0.101  22.557  0.00  0.00    +0.257 C 
ATOM     34  O   UNL     1       7.142   0.268  22.857  0.00  0.00    -0.347 OA
ATOM     35  C   UNL     1       6.996   0.187  24.277  0.00  0.00    +0.208 C 
ENDBRANCH  27  28
ENDBRANCH  25  27
ENDBRANCH  22  23
BRANCH  22  36
ATOM     36  C   UNL     1       8.178  -4.714  24.492  0.00  0.00    +0.060 C 
BRANCH  36  37
ATOM     37  C   UNL     1       7.337  -4.867  23.232  0.00  0.00    -0.046 A 
ATOM     38  C   UNL     1       7.407  -5.984  22.379  0.00  0.00    +0.004 A 
ATOM     39  C   UNL     1       6.714  -5.989  21.161  0.00  0.00    +0.000 A 
ATOM     40  C   UNL     1       5.954  -4.885  20.770  0.00  0.00    +0.000 A 
ATOM     41  C   UNL     1       5.876  -3.775  21.600  0.00  0.00    +0.000 A 
ATOM     42  C   UNL     1       6.564  -3.770  22.815  0.00  0.00    +0.004 A 
ENDBRANCH  36  37
ENDBRANCH  22  36
ENDBRANCH   1  22
TORSDOF 14
ENDMDL
MODEL 5
REMARK VINA RESULT:      -6.6      3.117      8.525
REMARK  Name = 
REMARK  16 active torsions:
REMARK  status: ('A' for Active; 'I' for Inactive)
REMARK    1  A    between atoms: C_1  and  C_2
REMARK    2  A    between atoms: C_2  and  C_3
REMARK    3  A    between atoms: C_2  and  C_4
REMARK    4  A    between atoms: C_4  and  N_5
REMARK    5  A    between atoms: N_5  and  C_6
REMARK    6  A    between atoms: N_5  and  S_34
REMARK    7  A    between atoms: C_6  and  C_7
REMARK    8  A    between atoms: C_7  and  C_9
REMARK    9  A    between atoms: C_7  and  O_33
REMARK   10  A    between atoms: C_9  and  C_11
REMARK   11  A    between atoms: C_9  and  N_18
REMARK   12  A    between atoms: C_11  and  C_12
REMARK   13  A    between atoms: C_19  and  O_21
REMARK   14  A    between atoms: O_21  and  C_22
REMARK   15  A    between atoms: S_34  and  C_37
REMARK   16  A    between atoms: C_40  and  N_43
REMARK                            x       y       z     vdW  Elec       q    Type
REMARK                         _______ _______ _______ _____ _____    ______ ____
ROOT
ATOM      1  C   UNL     1       9.485   0.552  22.102  0.00  0.00    +0.151 C 
ENDROOT
BRANCH   1   2
ATOM      2  O   UNL     1       9.111   0.172  20.757  0.00  0.00    -0.389 OA
ATOM      3  H   UNL     1       9.776   0.554  20.157  0.00  0.00    +0.210 HD
ENDBRANCH   1   2
BRANCH   1   4
ATOM      4  C   UNL     1       8.968  -0.547  23.046  0.00  0.00    +0.142 C 
BRANCH   4   5
ATOM      5  N   UNL     1       7.477  -0.756  23.283  0.00  0.00    -0.174 NA
BRANCH   5   6
ATOM      6  S   UNL     1       7.159  -2.422  22.658  0.00  0.00    +0.061 S 
ATOM      7  O   UNL     1       8.193  -2.703  21.684  0.00  0.00    -0.153 OA
ATOM      8  O   UNL     1       5.755  -2.496  22.292  0.00  0.00    -0.153 OA
BRANCH   6   9
ATOM      9  C   UNL     1       7.374  -3.500  24.046  0.00  0.00    +0.106 A 
ATOM     10  C   UNL     1       6.282  -3.840  24.852  0.00  0.00    +0.030 A 
ATOM     11  C   UNL     1       6.478  -4.681  25.952  0.00  0.00    +0.024 A 
ATOM     12  C   UNL     1       7.741  -5.217  26.220  0.00  0.00    +0.025 A 
ATOM     13  C   UNL     1       8.839  -4.754  25.487  0.00  0.00    +0.024 A 
ATOM     14  C   UNL     1       8.659  -3.913  24.388  0.00  0.00    +0.030 A 
BRANCH  12  15
ATOM     15  N   UNL     1       7.938  -6.032  27.341  0.00  0.00    -0.358 N 
ATOM     16  H   UNL     1       8.484  -5.584  28.073  0.00  0.00    +0.142 HD
ATOM     17  H   UNL     1       7.072  -6.419  27.708  0.00  0.00    +0.142 HD
ENDBRANCH  12  15
ENDBRANCH   6   9
ENDBRANCH   5   6
BRANCH   5  18
ATOM     18  C   UNL     1       6.991  -0.663  24.725  0.00  0.00    +0.112 C 
BRANCH  18  20
ATOM     19  C   UNL     1       7.415   1.178  26.479  0.00  0.00    +0.008 C 
ATOM     20  C   UNL     1       7.971  -0.036  25.737  0.00  0.00    -0.001 C 
ATOM     21  C   UNL     1       8.434  -1.067  26.777  0.00  0.00    +0.008 C 
ENDBRANCH  18  20
ENDBRANCH   5  18
ENDBRANCH   4   5
ENDBRANCH   1   4
BRANCH   1  22
ATOM     22  C   UNL     1       9.002   2.021  22.340  0.00  0.00    +0.110 C 
BRANCH  22  23
ATOM     23  N   UNL     1       7.521   2.200  22.296  0.00  0.00    -0.275 N 
ATOM     24  H   UNL     1       6.952   1.397  22.531  0.00  0.00    +0.152 HD
ATOM     25  C   UNL     1       6.822   3.370  22.183  0.00  0.00    +0.401 C 
ATOM     26  O   UNL     1       7.289   4.477  21.966  0.00  0.00    -0.226 OA
BRANCH  25  27
ATOM     27  O   UNL     1       5.483   3.136  22.299  0.00  0.00    -0.444 OA
BRANCH  27  28
ATOM     28  C   UNL     1       4.912   3.456  23.585  0.00  0.00    +0.212 C 
ATOM     29  C   UNL     1       3.616   4.266  23.498  0.00  0.00    +0.090 C 
ATOM     30  C   UNL     1       3.004   4.547  22.144  0.00  0.00    +0.040 C 
ATOM     31  C   UNL     1       1.843   3.578  22.024  0.00  0.00    +0.163 C 
ATOM     32  O   UNL     1       1.889   2.708  23.155  0.00  0.00    -0.351 OA
ATOM     33  C   UNL     1       2.586   3.398  24.188  0.00  0.00    +0.257 C 
ATOM     34  O   UNL     1       3.267   2.503  25.049  0.00  0.00    -0.347 OA
ATOM     35  C   UNL     1       4.567   2.277  24.498  0.00  0.00    +0.208 C 
ENDBRANCH  27  28
ENDBRANCH  25  27
ENDBRANCH  22  23
BRANCH  22  36
ATOM     36  C   UNL     1       9.581   2.588  23.666  0.00  0.00    +0.060 C 
BRANCH  36  37
ATOM     37  C   UNL     1      10.409   3.866  23.664  0.00  0.00    -0.046 A 
ATOM     38  C   UNL     1      11.759   3.920  23.271  0.00  0.00    +0.004 A 
ATOM     39  C   UNL     1      12.498   5.099  23.436  0.00  0.00    +0.000 A 
ATOM     40  C   UNL     1      11.912   6.233  24.002  0.00  0.00    +0.000 A 
ATOM     41  C   UNL     1      10.581   6.195  24.396  0.00  0.00    +0.000 A 
ATOM     42  C   UNL     1       9.843   5.021  24.229  0.00  0.00    +0.004 A 
ENDBRANCH  36  37
ENDBRANCH  22  36
ENDBRANCH   1  22
TORSDOF 14
ENDMDL
MODEL 6
REMARK VINA RESULT:      -6.6      2.652      4.885
REMARK  Name = 
REMARK  16 active torsions:
REMARK  status: ('A' for Active; 'I' for Inactive)
REMARK    1  A    between atoms: C_1  and  C_2
REMARK    2  A    between atoms: C_2  and  C_3
REMARK    3  A    between atoms: C_2  and  C_4
REMARK    4  A    between atoms: C_4  and  N_5
REMARK    5  A    between atoms: N_5  and  C_6
REMARK    6  A    between atoms: N_5  and  S_34
REMARK    7  A    between atoms: C_6  and  C_7
REMARK    8  A    between atoms: C_7  and  C_9
REMARK    9  A    between atoms: C_7  and  O_33
REMARK   10  A    between atoms: C_9  and  C_11
REMARK   11  A    between atoms: C_9  and  N_18
REMARK   12  A    between atoms: C_11  and  C_12
REMARK   13  A    between atoms: C_19  and  O_21
REMARK   14  A    between atoms: O_21  and  C_22
REMARK   15  A    between atoms: S_34  and  C_37
REMARK   16  A    between atoms: C_40  and  N_43
REMARK                            x       y       z     vdW  Elec       q    Type
REMARK                         _______ _______ _______ _____ _____    ______ ____
ROOT
ATOM      1  C   UNL     1       6.801  -5.527  25.683  0.00  0.00    +0.151 C 
ENDROOT
BRANCH   1   2
ATOM      2  O   UNL     1       7.672  -5.937  26.762  0.00  0.00    -0.389 OA
ATOM      3  H   UNL     1       7.101  -6.215  27.501  0.00  0.00    +0.210 HD
ENDBRANCH   1   2
BRANCH   1   4
ATOM      4  C   UNL     1       7.025  -4.021  25.463  0.00  0.00    +0.142 C 
BRANCH   4   5
ATOM      5  N   UNL     1       7.589  -3.482  24.155  0.00  0.00    -0.174 NA
BRANCH   5   6
ATOM      6  S   UNL     1       9.208  -2.818  24.610  0.00  0.00    +0.061 S 
ATOM      7  O   UNL     1      10.193  -3.767  24.134  0.00  0.00    -0.153 OA
ATOM      8  O   UNL     1       9.153  -2.446  26.012  0.00  0.00    -0.153 OA
BRANCH   6   9
ATOM      9  C   UNL     1       9.378  -1.312  23.695  0.00  0.00    +0.106 A 
ATOM     10  C   UNL     1       9.426  -0.082  24.362  0.00  0.00    +0.030 A 
ATOM     11  C   UNL     1       9.547   1.095  23.618  0.00  0.00    +0.024 A 
ATOM     12  C   UNL     1       9.664   1.048  22.226  0.00  0.00    +0.025 A 
ATOM     13  C   UNL     1       9.473  -0.175  21.575  0.00  0.00    +0.024 A 
ATOM     14  C   UNL     1       9.349  -1.359  22.304  0.00  0.00    +0.030 A 
BRANCH  12  15
ATOM     15  N   UNL     1       9.750   2.233  21.485  0.00  0.00    -0.358 N 
ATOM     16  H   UNL     1      10.228   2.982  21.979  0.00  0.00    +0.142 HD
ATOM     17  H   UNL     1      10.138   2.093  20.556  0.00  0.00    +0.142 HD
ENDBRANCH  12  15
ENDBRANCH   6   9
ENDBRANCH   5   6
BRANCH   5  18
ATOM     18  C   UNL     1       7.763  -4.484  23.018  0.00  0.00    +0.112 C 
BRANCH  18  20
ATOM     19  C   UNL     1       6.068  -5.678  21.486  0.00  0.00    +0.008 C 
ATOM     20  C   UNL     1       6.768  -4.369  21.847  0.00  0.00    -0.001 C 
ATOM     21  C   UNL     1       5.693  -3.309  22.130  0.00  0.00    +0.008 C 
ENDBRANCH  18  20
ENDBRANCH   5  18
ENDBRANCH   4   5
ENDBRANCH   1   4
BRANCH   1  22
ATOM     22  C   UNL     1       5.354  -6.020  26.019  0.00  0.00    +0.110 C 
BRANCH  22  23
ATOM     23  N   UNL     1       4.903  -5.712  27.408  0.00  0.00    -0.275 N 
ATOM     24  H   UNL     1       4.282  -4.922  27.527  0.00  0.00    +0.152 HD
ATOM     25  C   UNL     1       5.049  -6.485  28.526  0.00  0.00    +0.401 C 
ATOM     26  O   UNL     1       5.693  -7.517  28.617  0.00  0.00    -0.226 OA
BRANCH  25  27
ATOM     27  O   UNL     1       4.400  -5.916  29.584  0.00  0.00    -0.444 OA
BRANCH  27  28
ATOM     28  C   UNL     1       2.985  -6.191  29.657  0.00  0.00    +0.212 C 
ATOM     29  C   UNL     1       2.111  -4.939  29.559  0.00  0.00    +0.090 C 
ATOM     30  C   UNL     1       2.757  -3.599  29.286  0.00  0.00    +0.040 C 
ATOM     31  C   UNL     1       2.487  -3.319  27.819  0.00  0.00    +0.163 C 
ATOM     32  O   UNL     1       1.871  -4.482  27.265  0.00  0.00    -0.351 OA
ATOM     33  C   UNL     1       1.248  -5.181  28.340  0.00  0.00    +0.257 C 
ATOM     34  O   UNL     1       1.200  -6.575  28.100  0.00  0.00    -0.347 OA
ATOM     35  C   UNL     1       2.413  -7.142  28.604  0.00  0.00    +0.208 C 
ENDBRANCH  27  28
ENDBRANCH  25  27
ENDBRANCH  22  23
BRANCH  22  36
ATOM     36  C   UNL     1       4.330  -5.483  24.980  0.00  0.00    +0.060 C 
BRANCH  36  37
ATOM     37  C   UNL     1       3.354  -6.431  24.296  0.00  0.00    -0.046 A 
ATOM     38  C   UNL     1       2.676  -6.123  23.102  0.00  0.00    +0.004 A 
ATOM     39  C   UNL     1       1.682  -6.980  22.611  0.00  0.00    +0.000 A 
ATOM     40  C   UNL     1       1.342  -8.145  23.302  0.00  0.00    +0.000 A 
ATOM     41  C   UNL     1       2.001  -8.462  24.482  0.00  0.00    +0.000 A 
ATOM     42  C   UNL     1       2.994  -7.609  24.970  0.00  0.00    +0.004 A 
ENDBRANCH  36  37
ENDBRANCH  22  36
ENDBRANCH   1  22
TORSDOF 14
ENDMDL
MODEL 7
REMARK VINA RESULT:      -6.5      3.029      7.039
REMARK  Name = 
REMARK  16 active torsions:
REMARK  status: ('A' for Active; 'I' for Inactive)
REMARK    1  A    between atoms: C_1  and  C_2
REMARK    2  A    between atoms: C_2  and  C_3
REMARK    3  A    between atoms: C_2  and  C_4
REMARK    4  A    between atoms: C_4  and  N_5
REMARK    5  A    between atoms: N_5  and  C_6
REMARK    6  A    between atoms: N_5  and  S_34
REMARK    7  A    between atoms: C_6  and  C_7
REMARK    8  A    between atoms: C_7  and  C_9
REMARK    9  A    between atoms: C_7  and  O_33
REMARK   10  A    between atoms: C_9  and  C_11
REMARK   11  A    between atoms: C_9  and  N_18
REMARK   12  A    between atoms: C_11  and  C_12
REMARK   13  A    between atoms: C_19  and  O_21
REMARK   14  A    between atoms: O_21  and  C_22
REMARK   15  A    between atoms: S_34  and  C_37
REMARK   16  A    between atoms: C_40  and  N_43
REMARK                            x       y       z     vdW  Elec       q    Type
REMARK                         _______ _______ _______ _____ _____    ______ ____
ROOT
ATOM      1  C   UNL     1       6.811  -1.422  23.789  0.00  0.00    +0.151 C 
ENDROOT
BRANCH   1   2
ATOM      2  O   UNL     1       6.261  -0.322  23.027  0.00  0.00    -0.389 OA
ATOM      3  H   UNL     1       6.669  -0.355  22.143  0.00  0.00    +0.210 HD
ENDBRANCH   1   2
BRANCH   1   4
ATOM      4  C   UNL     1       6.483  -2.716  23.024  0.00  0.00    +0.142 C 
BRANCH   4   5
ATOM      5  N   UNL     1       6.719  -4.088  23.642  0.00  0.00    -0.174 NA
BRANCH   5   6
ATOM      6  S   UNL     1       5.697  -5.202  22.651  0.00  0.00    +0.061 S 
ATOM      7  O   UNL     1       6.531  -6.338  22.314  0.00  0.00    -0.153 OA
ATOM      8  O   UNL     1       5.064  -4.413  21.610  0.00  0.00    -0.153 OA
BRANCH   6   9
ATOM      9  C   UNL     1       4.403  -5.745  23.730  0.00  0.00    +0.106 A 
ATOM     10  C   UNL     1       4.612  -6.822  24.599  0.00  0.00    +0.030 A 
ATOM     11  C   UNL     1       3.571  -7.243  25.431  0.00  0.00    +0.024 A 
ATOM     12  C   UNL     1       2.346  -6.570  25.432  0.00  0.00    +0.025 A 
ATOM     13  C   UNL     1       2.113  -5.592  24.460  0.00  0.00    +0.024 A 
ATOM     14  C   UNL     1       3.143  -5.162  23.621  0.00  0.00    +0.030 A 
BRANCH  12  15
ATOM     15  N   UNL     1       1.296  -7.018  26.243  0.00  0.00    -0.358 N 
ATOM     16  H   UNL     1       0.693  -6.268  26.570  0.00  0.00    +0.142 HD
ATOM     17  H   UNL     1       0.759  -7.770  25.819  0.00  0.00    +0.142 HD
ENDBRANCH  12  15
ENDBRANCH   6   9
ENDBRANCH   5   6
BRANCH   5  18
ATOM     18  C   UNL     1       8.156  -4.600  23.647  0.00  0.00    +0.112 C 
BRANCH  18  20
ATOM     19  C   UNL     1       9.927  -4.978  25.481  0.00  0.00    +0.008 C 
ATOM     20  C   UNL     1       9.103  -3.968  24.685  0.00  0.00    -0.001 C 
ATOM     21  C   UNL     1      10.068  -2.971  24.027  0.00  0.00    +0.008 C 
ENDBRANCH  18  20
ENDBRANCH   5  18
ENDBRANCH   4   5
ENDBRANCH   1   4
BRANCH   1  22
ATOM     22  C   UNL     1       6.307  -1.285  25.264  0.00  0.00    +0.110 C 
BRANCH  22  23
ATOM     23  N   UNL     1       5.825  -2.560  25.874  0.00  0.00    -0.275 N 
ATOM     24  H   UNL     1       6.527  -3.190  26.241  0.00  0.00    +0.152 HD
ATOM     25  C   UNL     1       4.540  -2.902  26.193  0.00  0.00    +0.401 C 
ATOM     26  O   UNL     1       3.531  -2.273  25.919  0.00  0.00    -0.226 OA
BRANCH  25  27
ATOM     27  O   UNL     1       4.516  -4.102  26.842  0.00  0.00    -0.444 OA
BRANCH  27  28
ATOM     28  C   UNL     1       5.606  -4.327  27.761  0.00  0.00    +0.212 C 
ATOM     29  C   UNL     1       5.168  -4.924  29.100  0.00  0.00    +0.090 C 
ATOM     30  C   UNL     1       3.723  -5.322  29.300  0.00  0.00    +0.040 C 
ATOM     31  C   UNL     1       3.706  -6.834  29.166  0.00  0.00    +0.163 C 
ATOM     32  O   UNL     1       5.012  -7.246  28.767  0.00  0.00    -0.351 OA
ATOM     33  C   UNL     1       5.921  -6.233  29.190  0.00  0.00    +0.257 C 
ATOM     34  O   UNL     1       7.050  -6.153  28.340  0.00  0.00    -0.347 OA
ATOM     35  C   UNL     1       6.732  -5.246  27.282  0.00  0.00    +0.208 C 
ENDBRANCH  27  28
ENDBRANCH  25  27
ENDBRANCH  22  23
BRANCH  22  36
ATOM     36  C   UNL     1       7.391  -0.627  26.162  0.00  0.00    +0.060 C 
BRANCH  36  37
ATOM     37  C   UNL     1       8.360   0.394  25.581  0.00  0.00    -0.046 A 
ATOM     38  C   UNL     1       7.984   1.694  25.195  0.00  0.00    +0.004 A 
ATOM     39  C   UNL     1       8.895   2.527  24.531  0.00  0.00    +0.000 A 
ATOM     40  C   UNL     1      10.183   2.077  24.232  0.00  0.00    +0.000 A 
ATOM     41  C   UNL     1      10.568   0.797  24.605  0.00  0.00    +0.000 A 
ATOM     42  C   UNL     1       9.662  -0.033  25.270  0.00  0.00    +0.004 A 
ENDBRANCH  36  37
ENDBRANCH  22  36
ENDBRANCH   1  22
TORSDOF 14
ENDMDL
MODEL 8
REMARK VINA RESULT:      -6.5      2.433      4.527
REMARK  Name = 
REMARK  16 active torsions:
REMARK  status: ('A' for Active; 'I' for Inactive)
REMARK    1  A    between atoms: C_1  and  C_2
REMARK    2  A    between atoms: C_2  and  C_3
REMARK    3  A    between atoms: C_2  and  C_4
REMARK    4  A    between atoms: C_4  and  N_5
REMARK    5  A    between atoms: N_5  and  C_6
REMARK    6  A    between atoms: N_5  and  S_34
REMARK    7  A    between atoms: C_6  and  C_7
REMARK    8  A    between atoms: C_7  and  C_9
REMARK    9  A    between atoms: C_7  and  O_33
REMARK   10  A    between atoms: C_9  and  C_11
REMARK   11  A    between atoms: C_9  and  N_18
REMARK   12  A    between atoms: C_11  and  C_12
REMARK   13  A    between atoms: C_19  and  O_21
REMARK   14  A    between atoms: O_21  and  C_22
REMARK   15  A    between atoms: S_34  and  C_37
REMARK   16  A    between atoms: C_40  and  N_43
REMARK                            x       y       z     vdW  Elec       q    Type
REMARK                         _______ _______ _______ _____ _____    ______ ____
ROOT
ATOM      1  C   UNL     1       6.680  -1.143  26.477  0.00  0.00    +0.151 C 
ENDROOT
BRANCH   1   2
ATOM      2  O   UNL     1       5.809  -2.265  26.750  0.00  0.00    -0.389 OA
ATOM      3  H   UNL     1       5.948  -2.914  26.037  0.00  0.00    +0.210 HD
ENDBRANCH   1   2
BRANCH   1   4
ATOM      4  C   UNL     1       5.783   0.087  26.255  0.00  0.00    +0.142 C 
BRANCH   4   5
ATOM      5  N   UNL     1       6.240   1.487  26.646  0.00  0.00    -0.174 NA
BRANCH   5   6
ATOM      6  S   UNL     1       5.416   2.571  25.458  0.00  0.00    +0.061 S 
ATOM      7  O   UNL     1       4.535   3.429  26.222  0.00  0.00    -0.153 OA
ATOM      8  O   UNL     1       4.895   1.738  24.388  0.00  0.00    -0.153 OA
BRANCH   6   9
ATOM      9  C   UNL     1       6.700   3.560  24.746  0.00  0.00    +0.106 A 
ATOM     10  C   UNL     1       7.746   4.040  25.543  0.00  0.00    +0.030 A 
ATOM     11  C   UNL     1       8.741   4.832  24.962  0.00  0.00    +0.024 A 
ATOM     12  C   UNL     1       8.722   5.107  23.592  0.00  0.00    +0.025 A 
ATOM     13  C   UNL     1       7.597   4.737  22.846  0.00  0.00    +0.024 A 
ATOM     14  C   UNL     1       6.594   3.947  23.412  0.00  0.00    +0.030 A 
BRANCH  12  15
ATOM     15  N   UNL     1       9.702   5.928  23.024  0.00  0.00    -0.358 N 
ATOM     16  H   UNL     1       9.715   6.867  23.413  0.00  0.00    +0.142 HD
ATOM     17  H   UNL     1      10.628   5.508  23.035  0.00  0.00    +0.142 HD
ENDBRANCH  12  15
ENDBRANCH   6   9
ENDBRANCH   5   6
BRANCH   5  18
ATOM     18  C   UNL     1       5.904   1.949  28.060  0.00  0.00    +0.112 C 
BRANCH  18  20
ATOM     19  C   UNL     1       6.693   4.093  29.254  0.00  0.00    +0.008 C 
ATOM     20  C   UNL     1       7.030   2.664  28.831  0.00  0.00    -0.001 C 
ATOM     21  C   UNL     1       7.438   1.875  30.084  0.00  0.00    +0.008 C 
ENDBRANCH  18  20
ENDBRANCH   5  18
ENDBRANCH   4   5
ENDBRANCH   1   4
BRANCH   1  22
ATOM     22  C   UNL     1       7.660  -1.562  25.331  0.00  0.00    +0.110 C 
BRANCH  22  23
ATOM     23  N   UNL     1       7.577  -3.001  24.942  0.00  0.00    -0.275 N 
ATOM     24  H   UNL     1       6.679  -3.457  25.046  0.00  0.00    +0.152 HD
ATOM     25  C   UNL     1       8.506  -3.739  24.262  0.00  0.00    +0.401 C 
ATOM     26  O   UNL     1       9.634  -3.386  23.960  0.00  0.00    -0.226 OA
BRANCH  25  27
ATOM     27  O   UNL     1       8.017  -4.984  23.991  0.00  0.00    -0.444 OA
BRANCH  27  28
ATOM     28  C   UNL     1       7.102  -5.057  22.877  0.00  0.00    +0.212 C 
ATOM     29  C   UNL     1       5.720  -5.597  23.252  0.00  0.00    +0.090 C 
ATOM     30  C   UNL     1       5.401  -5.883  24.702  0.00  0.00    +0.040 C 
ATOM     31  C   UNL     1       4.539  -4.718  25.155  0.00  0.00    +0.163 C 
ATOM     32  O   UNL     1       4.503  -3.769  24.090  0.00  0.00    -0.351 OA
ATOM     33  C   UNL     1       4.770  -4.479  22.884  0.00  0.00    +0.257 C 
ATOM     34  O   UNL     1       5.404  -3.658  21.921  0.00  0.00    -0.347 OA
ATOM     35  C   UNL     1       6.815  -3.749  22.136  0.00  0.00    +0.208 C 
ENDBRANCH  27  28
ENDBRANCH  25  27
ENDBRANCH  22  23
BRANCH  22  36
ATOM     36  C   UNL     1       7.480  -0.650  24.086  0.00  0.00    +0.060 C 
BRANCH  36  37
ATOM     37  C   UNL     1       8.606   0.271  23.633  0.00  0.00    -0.046 A 
ATOM     38  C   UNL     1       9.573   0.805  24.504  0.00  0.00    +0.004 A 
ATOM     39  C   UNL     1      10.489   1.761  24.044  0.00  0.00    +0.000 A 
ATOM     40  C   UNL     1      10.449   2.206  22.721  0.00  0.00    +0.000 A 
ATOM     41  C   UNL     1       9.500   1.689  21.850  0.00  0.00    +0.000 A 
ATOM     42  C   UNL     1       8.589   0.734  22.307  0.00  0.00    +0.004 A 
ENDBRANCH  36  37
ENDBRANCH  22  36
ENDBRANCH   1  22
TORSDOF 14
ENDMDL
MODEL 9
REMARK VINA RESULT:      -6.4      3.290      8.542
REMARK  Name = 
REMARK  16 active torsions:
REMARK  status: ('A' for Active; 'I' for Inactive)
REMARK    1  A    between atoms: C_1  and  C_2
REMARK    2  A    between atoms: C_2  and  C_3
REMARK    3  A    between atoms: C_2  and  C_4
REMARK    4  A    between atoms: C_4  and  N_5
REMARK    5  A    between atoms: N_5  and  C_6
REMARK    6  A    between atoms: N_5  and  S_34
REMARK    7  A    between atoms: C_6  and  C_7
REMARK    8  A    between atoms: C_7  and  C_9
REMARK    9  A    between atoms: C_7  and  O_33
REMARK   10  A    between atoms: C_9  and  C_11
REMARK   11  A    between atoms: C_9  and  N_18
REMARK   12  A    between atoms: C_11  and  C_12
REMARK   13  A    between atoms: C_19  and  O_21
REMARK   14  A    between atoms: O_21  and  C_22
REMARK   15  A    between atoms: S_34  and  C_37
REMARK   16  A    between atoms: C_40  and  N_43
REMARK                            x       y       z     vdW  Elec       q    Type
REMARK                         _______ _______ _______ _____ _____    ______ ____
ROOT
ATOM      1  C   UNL     1       9.866   1.433  22.105  0.00  0.00    +0.151 C 
ENDROOT
BRANCH   1   2
ATOM      2  O   UNL     1       9.089   0.877  21.018  0.00  0.00    -0.389 OA
ATOM      3  H   UNL     1       9.316   1.383  20.218  0.00  0.00    +0.210 HD
ENDBRANCH   1   2
BRANCH   1   4
ATOM      4  C   UNL     1      10.106   0.301  23.119  0.00  0.00    +0.142 C 
BRANCH   4   5
ATOM      5  N   UNL     1       8.958  -0.545  23.655  0.00  0.00    -0.174 NA
BRANCH   5   6
ATOM      6  S   UNL     1       9.274  -2.195  22.989  0.00  0.00    +0.061 S 
ATOM      7  O   UNL     1      10.219  -2.829  23.886  0.00  0.00    -0.153 OA
ATOM      8  O   UNL     1       9.576  -2.050  21.576  0.00  0.00    -0.153 OA
BRANCH   6   9
ATOM      9  C   UNL     1       7.729  -3.053  23.089  0.00  0.00    +0.106 A 
ATOM     10  C   UNL     1       6.590  -2.531  22.466  0.00  0.00    +0.030 A 
ATOM     11  C   UNL     1       5.377  -3.218  22.570  0.00  0.00    +0.024 A 
ATOM     12  C   UNL     1       5.307  -4.438  23.249  0.00  0.00    +0.025 A 
ATOM     13  C   UNL     1       6.420  -4.867  23.980  0.00  0.00    +0.024 A 
ATOM     14  C   UNL     1       7.638  -4.190  23.887  0.00  0.00    +0.030 A 
BRANCH  12  15
ATOM     15  N   UNL     1       4.083  -5.104  23.379  0.00  0.00    -0.358 N 
ATOM     16  H   UNL     1       4.158  -5.991  23.871  0.00  0.00    +0.142 HD
ATOM     17  H   UNL     1       3.352  -4.519  23.776  0.00  0.00    +0.142 HD
ENDBRANCH  12  15
ENDBRANCH   6   9
ENDBRANCH   5   6
BRANCH   5  18
ATOM     18  C   UNL     1       8.822  -0.635  25.171  0.00  0.00    +0.112 C 
BRANCH  18  20
ATOM     19  C   UNL     1       6.885  -1.494  26.640  0.00  0.00    +0.008 C 
ATOM     20  C   UNL     1       7.416  -0.374  25.748  0.00  0.00    -0.001 C 
ATOM     21  C   UNL     1       7.376   0.938  26.546  0.00  0.00    +0.008 C 
ENDBRANCH  18  20
ENDBRANCH   5  18
ENDBRANCH   4   5
ENDBRANCH   1   4
BRANCH   1  22
ATOM     22  C   UNL     1       9.142   2.730  22.599  0.00  0.00    +0.110 C 
BRANCH  22  23
ATOM     23  N   UNL     1       7.656   2.702  22.456  0.00  0.00    -0.275 N 
ATOM     24  H   UNL     1       7.182   1.851  22.729  0.00  0.00    +0.152 HD
ATOM     25  C   UNL     1       6.820   3.753  22.198  0.00  0.00    +0.401 C 
ATOM     26  O   UNL     1       7.153   4.891  21.909  0.00  0.00    -0.226 OA
BRANCH  25  27
ATOM     27  O   UNL     1       5.518   3.349  22.258  0.00  0.00    -0.444 OA
BRANCH  27  28
ATOM     28  C   UNL     1       4.844   3.634  23.502  0.00  0.00    +0.212 C 
ATOM     29  C   UNL     1       3.507   4.359  23.325  0.00  0.00    +0.090 C 
ATOM     30  C   UNL     1       2.971   4.599  21.932  0.00  0.00    +0.040 C 
ATOM     31  C   UNL     1       1.884   3.558  21.739  0.00  0.00    +0.163 C 
ATOM     32  O   UNL     1       1.909   2.694  22.875  0.00  0.00    -0.351 OA
ATOM     33  C   UNL     1       2.491   3.428  23.949  0.00  0.00    +0.257 C 
ATOM     34  O   UNL     1       3.168   2.580  24.858  0.00  0.00    -0.347 OA
ATOM     35  C   UNL     1       4.514   2.436  24.397  0.00  0.00    +0.208 C 
ENDBRANCH  27  28
ENDBRANCH  25  27
ENDBRANCH  22  23
BRANCH  22  36
ATOM     36  C   UNL     1       9.543   3.065  24.063  0.00  0.00    +0.060 C 
BRANCH  36  37
ATOM     37  C   UNL     1       9.217   4.428  24.660  0.00  0.00    -0.046 A 
ATOM     38  C   UNL     1       8.210   4.637  25.620  0.00  0.00    +0.004 A 
ATOM     39  C   UNL     1       7.866   5.937  26.015  0.00  0.00    +0.000 A 
ATOM     40  C   UNL     1       8.509   7.043  25.455  0.00  0.00    +0.000 A 
ATOM     41  C   UNL     1       9.504   6.853  24.506  0.00  0.00    +0.000 A 
ATOM     42  C   UNL     1       9.849   5.557  24.114  0.00  0.00    +0.004 A 
ENDBRANCH  36  37
ENDBRANCH  22  36
ENDBRANCH   1  22
TORSDOF 14
ENDMDL
