MODEL 1
REMARK VINA RESULT:      -7.6      0.000      0.000
REMARK  Name = 
REMARK  11 active torsions:
REMARK  status: ('A' for Active; 'I' for Inactive)
REMARK    1  A    between atoms: C_1  and  C_2
REMARK    2  A    between atoms: C_2  and  C_3
REMARK    3  A    between atoms: C_2  and  C_4
REMARK    4  A    between atoms: C_4  and  C_6
REMARK    5  A    between atoms: C_4  and  N_24
REMARK    6  A    between atoms: C_6  and  O_8
REMARK    7  A    between atoms: O_8  and  C_9
REMARK    8  A    between atoms: C_9  and  C_10
REMARK    9  A    between atoms: C_10  and  O_11
REMARK   10  A    between atoms: O_11  and  C_12
REMARK   11  A    between atoms: C_12  and  N_13
REMARK                            x       y       z     vdW  Elec       q    Type
REMARK                         _______ _______ _______ _____ _____    ______ ____
ROOT
ATOM      1  C   UNL     1       7.756  -3.055  22.359  0.00  0.00    +0.400 C 
ENDROOT
BRANCH   1   2
ATOM      2  N   UNL     1       8.869  -1.660  21.814  0.00  0.00    -0.154 N 
ATOM      3  C   UNL     1       9.465   0.009  21.775  0.00  0.00    +0.338 C 
ATOM      4  N   UNL     1       9.934   1.302  21.772  0.00  0.00    +0.023 NA
ATOM      5  C   UNL     1      10.481   2.312  22.880  0.00  0.00    +0.450 C 
ATOM      6  N   UNL     1      10.868   3.688  22.974  0.00  0.00    -0.241 N 
ATOM      7  H   UNL     1      11.023   4.047  23.945  0.00  0.00    +0.242 HD
ATOM      8  H   UNL     1      11.238   4.379  22.330  0.00  0.00    +0.242 HD
ATOM      9  N   UNL     1      10.664   1.923  24.100  0.00  0.00    +0.008 NA
ATOM     10  C   UNL     1      10.432   0.636  24.270  0.00  0.00    +0.347 C 
ATOM     11  O   UNL     1      10.341   0.133  25.394  0.00  0.00    -0.251 OA
ATOM     12  C   UNL     1      10.208  -0.218  23.091  0.00  0.00    +0.329 C 
ATOM     13  N   UNL     1       9.049  -0.779  23.714  0.00  0.00    -0.228 NA
ATOM     14  C   UNL     1       9.265  -1.841  23.077  0.00  0.00    +0.304 C 
ENDBRANCH   1   2
BRANCH   1  15
ATOM     15  O   UNL     1       7.041  -4.410  21.809  0.00  0.00    -0.338 OA
BRANCH  15  16
ATOM     16  C   UNL     1       6.909  -5.726  22.806  0.00  0.00    +0.205 C 
BRANCH  16  17
ATOM     17  C   UNL     1       5.486  -5.887  23.618  0.00  0.00    +0.260 C 
BRANCH  17  18
ATOM     18  O   UNL     1       5.344  -5.132  24.896  0.00  0.00    -0.461 OA
BRANCH  18  19
ATOM     19  C   UNL     1       5.763  -5.779  26.058  0.00  0.00    +0.324 C 
ATOM     20  O   UNL     1       5.312  -6.866  26.410  0.00  0.00    -0.249 OA
BRANCH  19  21
ATOM     21  C   UNL     1       6.886  -5.015  26.878  0.00  0.00    +0.163 C 
BRANCH  21  23
ATOM     22  C   UNL     1       7.863  -2.723  26.453  0.00  0.00    +0.009 C 
ATOM     23  C   UNL     1       7.826  -4.175  25.982  0.00  0.00    +0.010 C 
ATOM     24  C   UNL     1       9.270  -4.704  25.995  0.00  0.00    +0.009 C 
ENDBRANCH  21  23
BRANCH  21  25
ATOM     25  N   UNL     1       7.703  -6.012  27.638  0.00  0.00    -0.318 NA
ATOM     26  H   UNL     1       7.089  -6.519  28.279  0.00  0.00    +0.119 HD
ATOM     27  H   UNL     1       8.112  -6.713  27.023  0.00  0.00    +0.119 HD
ENDBRANCH  21  25
ENDBRANCH  19  21
ENDBRANCH  18  19
ENDBRANCH  17  18
ENDBRANCH  16  17
ENDBRANCH  15  16
ENDBRANCH   1  15
TORSDOF 9
ENDMDL
MODEL 2
REMARK VINA RESULT:      -7.0      2.079      3.245
REMARK  Name = 
REMARK  11 active torsions:
REMARK  status: ('A' for Active; 'I' for Inactive)
REMARK    1  A    between atoms: C_1  and  C_2
REMARK    2  A    between atoms: C_2  and  C_3
REMARK    3  A    between atoms: C_2  and  C_4
REMARK    4  A    between atoms: C_4  and  C_6
REMARK    5  A    between atoms: C_4  and  N_24
REMARK    6  A    between atoms: C_6  and  O_8
REMARK    7  A    between atoms: O_8  and  C_9
REMARK    8  A    between atoms: C_9  and  C_10
REMARK    9  A    between atoms: C_10  and  O_11
REMARK   10  A    between atoms: O_11  and  C_12
REMARK   11  A    between atoms: C_12  and  N_13
REMARK                            x       y       z     vdW  Elec       q    Type
REMARK                         _______ _______ _______ _____ _____    ______ ____
ROOT
ATOM      1  C   UNL     1       9.303  -3.368  24.343  0.00  0.00    +0.400 C 
ENDROOT
BRANCH   1   2
ATOM      2  N   UNL     1       9.350  -1.547  24.750  0.00  0.00    -0.154 N 
ATOM      3  C   UNL     1       9.948   0.117  24.638  0.00  0.00    +0.338 C 
ATOM      4  N   UNL     1      10.406   1.409  24.524  0.00  0.00    +0.023 NA
ATOM      5  C   UNL     1      10.578   2.450  23.326  0.00  0.00    +0.450 C 
ATOM      6  N   UNL     1      11.147   3.746  23.110  0.00  0.00    -0.241 N 
ATOM      7  H   UNL     1      11.216   4.047  22.110  0.00  0.00    +0.242 HD
ATOM      8  H   UNL     1      11.325   4.561  23.687  0.00  0.00    +0.242 HD
ATOM      9  N   UNL     1      10.140   2.174  22.140  0.00  0.00    +0.008 NA
ATOM     10  C   UNL     1       9.497   1.025  22.084  0.00  0.00    +0.347 C 
ATOM     11  O   UNL     1       9.203   0.494  21.007  0.00  0.00    -0.251 OA
ATOM     12  C   UNL     1       9.177   0.315  23.334  0.00  0.00    +0.329 C 
ATOM     13  N   UNL     1       9.691  -0.900  22.779  0.00  0.00    -0.228 NA
ATOM     14  C   UNL     1       8.878  -1.531  23.500  0.00  0.00    +0.304 C 
ENDBRANCH   1   2
BRANCH   1  15
ATOM     15  O   UNL     1       9.150  -4.831  25.040  0.00  0.00    -0.338 OA
BRANCH  15  16
ATOM     16  C   UNL     1       8.426  -4.956  26.524  0.00  0.00    +0.205 C 
BRANCH  16  17
ATOM     17  C   UNL     1       6.898  -5.571  26.542  0.00  0.00    +0.260 C 
BRANCH  17  18
ATOM     18  O   UNL     1       5.952  -5.070  25.503  0.00  0.00    -0.461 OA
BRANCH  18  19
ATOM     19  C   UNL     1       5.136  -6.018  24.888  0.00  0.00    +0.324 C 
ATOM     20  O   UNL     1       4.314  -6.688  25.510  0.00  0.00    -0.249 OA
BRANCH  19  21
ATOM     21  C   UNL     1       5.333  -6.150  23.319  0.00  0.00    +0.163 C 
BRANCH  21  23
ATOM     22  C   UNL     1       7.125  -5.750  21.583  0.00  0.00    +0.009 C 
ATOM     23  C   UNL     1       6.352  -5.136  22.748  0.00  0.00    +0.010 C 
ATOM     24  C   UNL     1       5.675  -3.855  22.234  0.00  0.00    +0.009 C 
ENDBRANCH  21  23
BRANCH  21  25
ATOM     25  N   UNL     1       4.015  -5.947  22.640  0.00  0.00    -0.318 NA
ATOM     26  H   UNL     1       4.182  -5.611  21.690  0.00  0.00    +0.119 HD
ATOM     27  H   UNL     1       3.501  -6.822  22.545  0.00  0.00    +0.119 HD
ENDBRANCH  21  25
ENDBRANCH  19  21
ENDBRANCH  18  19
ENDBRANCH  17  18
ENDBRANCH  16  17
ENDBRANCH  15  16
ENDBRANCH   1  15
TORSDOF 9
ENDMDL
MODEL 3
REMARK VINA RESULT:      -7.0      3.271      8.088
REMARK  Name = 
REMARK  11 active torsions:
REMARK  status: ('A' for Active; 'I' for Inactive)
REMARK    1  A    between atoms: C_1  and  C_2
REMARK    2  A    between atoms: C_2  and  C_3
REMARK    3  A    between atoms: C_2  and  C_4
REMARK    4  A    between atoms: C_4  and  C_6
REMARK    5  A    between atoms: C_4  and  N_24
REMARK    6  A    between atoms: C_6  and  O_8
REMARK    7  A    between atoms: O_8  and  C_9
REMARK    8  A    between atoms: C_9  and  C_10
REMARK    9  A    between atoms: C_10  and  O_11
REMARK   10  A    between atoms: O_11  and  C_12
REMARK   11  A    between atoms: C_12  and  N_13
REMARK                            x       y       z     vdW  Elec       q    Type
REMARK                         _______ _______ _______ _____ _____    ______ ____
ROOT
ATOM      1  C   UNL     1       6.545  -4.920  27.084  0.00  0.00    +0.400 C 
ENDROOT
BRANCH   1   2
ATOM      2  N   UNL     1       5.683  -6.323  26.206  0.00  0.00    -0.154 N 
ATOM      3  C   UNL     1       4.323  -7.141  25.418  0.00  0.00    +0.338 C 
ATOM      4  N   UNL     1       3.268  -7.757  24.788  0.00  0.00    +0.023 NA
ATOM      5  C   UNL     1       2.335  -7.411  23.539  0.00  0.00    +0.450 C 
ATOM      6  N   UNL     1       1.161  -7.932  22.906  0.00  0.00    -0.241 N 
ATOM      7  H   UNL     1       0.730  -7.315  22.178  0.00  0.00    +0.242 HD
ATOM      8  H   UNL     1       0.731  -8.847  22.824  0.00  0.00    +0.242 HD
ATOM      9  N   UNL     1       2.575  -6.379  22.798  0.00  0.00    +0.008 NA
ATOM     10  C   UNL     1       3.677  -5.743  23.144  0.00  0.00    +0.347 C 
ATOM     11  O   UNL     1       3.949  -4.622  22.700  0.00  0.00    -0.251 OA
ATOM     12  C   UNL     1       4.579  -6.350  24.137  0.00  0.00    +0.329 C 
ATOM     13  N   UNL     1       4.635  -5.109  24.848  0.00  0.00    -0.228 NA
ATOM     14  C   UNL     1       5.792  -5.420  25.228  0.00  0.00    +0.304 C 
ENDBRANCH   1   2
BRANCH   1  15
ATOM     15  O   UNL     1       7.965  -4.125  27.139  0.00  0.00    -0.338 OA
BRANCH  15  16
ATOM     16  C   UNL     1       9.272  -4.731  26.321  0.00  0.00    +0.205 C 
BRANCH  16  17
ATOM     17  C   UNL     1       9.285  -4.498  24.691  0.00  0.00    +0.260 C 
BRANCH  17  18
ATOM     18  O   UNL     1      10.120  -3.376  24.172  0.00  0.00    -0.461 OA
BRANCH  18  19
ATOM     19  C   UNL     1       9.468  -2.168  23.931  0.00  0.00    +0.324 C 
ATOM     20  O   UNL     1       8.381  -1.891  24.432  0.00  0.00    -0.249 OA
BRANCH  19  21
ATOM     21  C   UNL     1      10.249  -1.167  22.980  0.00  0.00    +0.163 C 
BRANCH  21  23
ATOM     22  C   UNL     1      10.813   0.930  24.272  0.00  0.00    +0.009 C 
ATOM     23  C   UNL     1       9.885   0.315  23.227  0.00  0.00    +0.010 C 
ATOM     24  C   UNL     1       9.997   1.165  21.950  0.00  0.00    +0.009 C 
ENDBRANCH  21  23
BRANCH  21  25
ATOM     25  N   UNL     1       9.949  -1.510  21.554  0.00  0.00    -0.318 NA
ATOM     26  H   UNL     1       9.808  -0.644  21.030  0.00  0.00    +0.119 HD
ATOM     27  H   UNL     1      10.731  -1.987  21.108  0.00  0.00    +0.119 HD
ENDBRANCH  21  25
ENDBRANCH  19  21
ENDBRANCH  18  19
ENDBRANCH  17  18
ENDBRANCH  16  17
ENDBRANCH  15  16
ENDBRANCH   1  15
TORSDOF 9
ENDMDL
MODEL 4
REMARK VINA RESULT:      -7.0      2.163      3.676
REMARK  Name = 
REMARK  11 active torsions:
REMARK  status: ('A' for Active; 'I' for Inactive)
REMARK    1  A    between atoms: C_1  and  C_2
REMARK    2  A    between atoms: C_2  and  C_3
REMARK    3  A    between atoms: C_2  and  C_4
REMARK    4  A    between atoms: C_4  and  C_6
REMARK    5  A    between atoms: C_4  and  N_24
REMARK    6  A    between atoms: C_6  and  O_8
REMARK    7  A    between atoms: O_8  and  C_9
REMARK    8  A    between atoms: C_9  and  C_10
REMARK    9  A    between atoms: C_10  and  O_11
REMARK   10  A    between atoms: O_11  and  C_12
REMARK   11  A    between atoms: C_12  and  N_13
REMARK                            x       y       z     vdW  Elec       q    Type
REMARK                         _______ _______ _______ _____ _____    ______ ____
ROOT
ATOM      1  C   UNL     1       8.560  -3.410  26.470  0.00  0.00    +0.400 C 
ENDROOT
BRANCH   1   2
ATOM      2  N   UNL     1       7.874  -2.191  25.234  0.00  0.00    -0.154 N 
ATOM      3  C   UNL     1       7.898  -0.744  24.210  0.00  0.00    +0.338 C 
ATOM      4  N   UNL     1       7.937   0.367  23.402  0.00  0.00    +0.023 NA
ATOM      5  C   UNL     1       8.898   0.891  22.240  0.00  0.00    +0.450 C 
ATOM      6  N   UNL     1       9.072   2.071  21.448  0.00  0.00    -0.241 N 
ATOM      7  H   UNL     1       9.950   2.107  20.879  0.00  0.00    +0.242 HD
ATOM      8  H   UNL     1       8.467   2.817  21.122  0.00  0.00    +0.242 HD
ATOM      9  N   UNL     1       9.859   0.151  21.790  0.00  0.00    +0.008 NA
ATOM     10  C   UNL     1       9.878  -1.052  22.330  0.00  0.00    +0.347 C 
ATOM     11  O   UNL     1      10.840  -1.814  22.192  0.00  0.00    -0.251 OA
ATOM     12  C   UNL     1       8.752  -1.479  23.179  0.00  0.00    +0.329 C 
ATOM     13  N   UNL     1       9.673  -1.928  24.178  0.00  0.00    -0.228 NA
ATOM     14  C   UNL     1       8.826  -2.794  24.517  0.00  0.00    +0.304 C 
ENDBRANCH   1   2
BRANCH   1  15
ATOM     15  O   UNL     1       8.344  -4.924  27.027  0.00  0.00    -0.338 OA
BRANCH  15  16
ATOM     16  C   UNL     1       6.826  -5.428  27.455  0.00  0.00    +0.205 C 
BRANCH  16  17
ATOM     17  C   UNL     1       5.763  -5.673  26.222  0.00  0.00    +0.260 C 
BRANCH  17  18
ATOM     18  O   UNL     1       5.360  -4.479  25.424  0.00  0.00    -0.461 OA
BRANCH  18  19
ATOM     19  C   UNL     1       4.571  -4.712  24.299  0.00  0.00    +0.324 C 
ATOM     20  O   UNL     1       3.516  -4.116  24.095  0.00  0.00    -0.249 OA
BRANCH  19  21
ATOM     21  C   UNL     1       5.152  -5.790  23.290  0.00  0.00    +0.163 C 
BRANCH  21  23
ATOM     22  C   UNL     1       7.648  -5.672  22.912  0.00  0.00    +0.009 C 
ATOM     23  C   UNL     1       6.281  -5.234  22.392  0.00  0.00    +0.010 C 
ATOM     24  C   UNL     1       6.161  -5.718  20.937  0.00  0.00    +0.009 C 
ENDBRANCH  21  23
BRANCH  21  25
ATOM     25  N   UNL     1       4.044  -6.295  22.420  0.00  0.00    -0.318 NA
ATOM     26  H   UNL     1       4.274  -7.242  22.111  0.00  0.00    +0.119 HD
ATOM     27  H   UNL     1       3.166  -6.371  22.933  0.00  0.00    +0.119 HD
ENDBRANCH  21  25
ENDBRANCH  19  21
ENDBRANCH  18  19
ENDBRANCH  17  18
ENDBRANCH  16  17
ENDBRANCH  15  16
ENDBRANCH   1  15
TORSDOF 9
ENDMDL
MODEL 5
REMARK VINA RESULT:      -6.9      1.941      3.290
REMARK  Name = 
REMARK  11 active torsions:
REMARK  status: ('A' for Active; 'I' for Inactive)
REMARK    1  A    between atoms: C_1  and  C_2
REMARK    2  A    between atoms: C_2  and  C_3
REMARK    3  A    between atoms: C_2  and  C_4
REMARK    4  A    between atoms: C_4  and  C_6
REMARK    5  A    between atoms: C_4  and  N_24
REMARK    6  A    between atoms: C_6  and  O_8
REMARK    7  A    between atoms: O_8  and  C_9
REMARK    8  A    between atoms: C_9  and  C_10
REMARK    9  A    between atoms: C_10  and  O_11
REMARK   10  A    between atoms: O_11  and  C_12
REMARK   11  A    between atoms: C_12  and  N_13
REMARK                            x       y       z     vdW  Elec       q    Type
REMARK                         _______ _______ _______ _____ _____    ______ ____
ROOT
ATOM      1  C   UNL     1       8.615  -4.282  24.797  0.00  0.00    +0.400 C 
ENDROOT
BRANCH   1   2
ATOM      2  N   UNL     1       8.976  -3.166  23.345  0.00  0.00    -0.154 N 
ATOM      3  C   UNL     1       8.967  -1.643  22.438  0.00  0.00    +0.338 C 
ATOM      4  N   UNL     1       8.975  -0.451  21.754  0.00  0.00    +0.023 NA
ATOM      5  C   UNL     1       9.522   1.020  22.046  0.00  0.00    +0.450 C 
ATOM      6  N   UNL     1       9.465   2.320  21.448  0.00  0.00    -0.241 N 
ATOM      7  H   UNL     1       9.822   3.105  22.041  0.00  0.00    +0.242 HD
ATOM      8  H   UNL     1       9.355   2.675  20.504  0.00  0.00    +0.242 HD
ATOM      9  N   UNL     1      10.224   1.269  23.104  0.00  0.00    +0.008 NA
ATOM     10  C   UNL     1      10.480   0.189  23.817  0.00  0.00    +0.347 C 
ATOM     11  O   UNL     1      10.942   0.257  24.961  0.00  0.00    -0.251 OA
ATOM     12  C   UNL     1      10.147  -1.135  23.265  0.00  0.00    +0.329 C 
ATOM     13  N   UNL     1       9.509  -1.490  24.496  0.00  0.00    -0.228 NA
ATOM     14  C   UNL     1       9.815  -2.688  24.268  0.00  0.00    +0.304 C 
ENDBRANCH   1   2
BRANCH   1  15
ATOM     15  O   UNL     1       7.420  -5.160  25.469  0.00  0.00    -0.338 OA
BRANCH  15  16
ATOM     16  C   UNL     1       7.451  -5.472  27.095  0.00  0.00    +0.205 C 
BRANCH  16  17
ATOM     17  C   UNL     1       6.018  -5.897  27.786  0.00  0.00    +0.260 C 
BRANCH  17  18
ATOM     18  O   UNL     1       5.242  -6.987  27.125  0.00  0.00    -0.461 OA
BRANCH  18  19
ATOM     19  C   UNL     1       4.218  -6.594  26.265  0.00  0.00    +0.324 C 
ATOM     20  O   UNL     1       3.201  -6.028  26.660  0.00  0.00    -0.249 OA
BRANCH  19  21
ATOM     21  C   UNL     1       4.475  -6.914  24.732  0.00  0.00    +0.163 C 
BRANCH  21  23
ATOM     22  C   UNL     1       5.291  -5.766  22.633  0.00  0.00    +0.009 C 
ATOM     23  C   UNL     1       4.338  -5.671  23.822  0.00  0.00    +0.010 C 
ATOM     24  C   UNL     1       2.913  -5.512  23.263  0.00  0.00    +0.009 C 
ENDBRANCH  21  23
BRANCH  21  25
ATOM     25  N   UNL     1       3.505  -7.958  24.278  0.00  0.00    -0.318 NA
ATOM     26  H   UNL     1       3.810  -8.867  24.632  0.00  0.00    +0.119 HD
ATOM     27  H   UNL     1       2.575  -7.802  24.663  0.00  0.00    +0.119 HD
ENDBRANCH  21  25
ENDBRANCH  19  21
ENDBRANCH  18  19
ENDBRANCH  17  18
ENDBRANCH  16  17
ENDBRANCH  15  16
ENDBRANCH   1  15
TORSDOF 9
ENDMDL
MODEL 6
REMARK VINA RESULT:      -6.7      2.995      7.604
REMARK  Name = 
REMARK  11 active torsions:
REMARK  status: ('A' for Active; 'I' for Inactive)
REMARK    1  A    between atoms: C_1  and  C_2
REMARK    2  A    between atoms: C_2  and  C_3
REMARK    3  A    between atoms: C_2  and  C_4
REMARK    4  A    between atoms: C_4  and  C_6
REMARK    5  A    between atoms: C_4  and  N_24
REMARK    6  A    between atoms: C_6  and  O_8
REMARK    7  A    between atoms: O_8  and  C_9
REMARK    8  A    between atoms: C_9  and  C_10
REMARK    9  A    between atoms: C_10  and  O_11
REMARK   10  A    between atoms: O_11  and  C_12
REMARK   11  A    between atoms: C_12  and  N_13
REMARK                            x       y       z     vdW  Elec       q    Type
REMARK                         _______ _______ _______ _____ _____    ______ ____
ROOT
ATOM      1  C   UNL     1       9.544  -1.961  24.098  0.00  0.00    +0.400 C 
ENDROOT
BRANCH   1   2
ATOM      2  N   UNL     1       8.729  -3.640  24.095  0.00  0.00    -0.154 N 
ATOM      3  C   UNL     1       7.369  -4.775  24.161  0.00  0.00    +0.338 C 
ATOM      4  N   UNL     1       6.304  -5.644  24.190  0.00  0.00    +0.023 NA
ATOM      5  C   UNL     1       4.978  -5.842  23.323  0.00  0.00    +0.450 C 
ATOM      6  N   UNL     1       3.784  -6.631  23.361  0.00  0.00    -0.241 N 
ATOM      7  H   UNL     1       3.039  -6.354  22.681  0.00  0.00    +0.242 HD
ATOM      8  H   UNL     1       3.531  -7.537  23.740  0.00  0.00    +0.242 HD
ATOM      9  N   UNL     1       4.775  -5.142  22.254  0.00  0.00    +0.008 NA
ATOM     10  C   UNL     1       5.789  -4.356  21.953  0.00  0.00    +0.347 C 
ATOM     11  O   UNL     1       5.693  -3.463  21.104  0.00  0.00    -0.251 OA
ATOM     12  C   UNL     1       7.055  -4.496  22.692  0.00  0.00    +0.329 C 
ATOM     13  N   UNL     1       7.098  -3.080  22.894  0.00  0.00    -0.228 NA
ATOM     14  C   UNL     1       8.353  -3.156  22.908  0.00  0.00    +0.304 C 
ENDBRANCH   1   2
BRANCH   1  15
ATOM     15  O   UNL     1       9.444  -0.492  24.794  0.00  0.00    -0.338 OA
BRANCH  15  16
ATOM     16  C   UNL     1      10.614   0.638  24.486  0.00  0.00    +0.205 C 
BRANCH  16  17
ATOM     17  C   UNL     1      10.089   2.124  24.011  0.00  0.00    +0.260 C 
BRANCH  17  18
ATOM     18  O   UNL     1       9.713   2.284  22.576  0.00  0.00    -0.461 OA
BRANCH  18  19
ATOM     19  C   UNL     1       8.946   1.267  22.011  0.00  0.00    +0.324 C 
ATOM     20  O   UNL     1       9.442   0.336  21.378  0.00  0.00    -0.249 OA
BRANCH  19  21
ATOM     21  C   UNL     1       7.385   1.388  22.268  0.00  0.00    +0.163 C 
BRANCH  21  23
ATOM     22  C   UNL     1       6.468   3.742  22.235  0.00  0.00    +0.009 C 
ATOM     23  C   UNL     1       7.003   2.620  23.120  0.00  0.00    +0.010 C 
ATOM     24  C   UNL     1       5.921   2.295  24.164  0.00  0.00    +0.009 C 
ENDBRANCH  21  23
BRANCH  21  25
ATOM     25  N   UNL     1       6.903   0.151  22.959  0.00  0.00    -0.318 NA
ATOM     26  H   UNL     1       5.967  -0.074  22.617  0.00  0.00    +0.119 HD
ATOM     27  H   UNL     1       7.486  -0.656  22.739  0.00  0.00    +0.119 HD
ENDBRANCH  21  25
ENDBRANCH  19  21
ENDBRANCH  18  19
ENDBRANCH  17  18
ENDBRANCH  16  17
ENDBRANCH  15  16
ENDBRANCH   1  15
TORSDOF 9
ENDMDL
MODEL 7
REMARK VINA RESULT:      -6.7      1.860      2.391
REMARK  Name = 
REMARK  11 active torsions:
REMARK  status: ('A' for Active; 'I' for Inactive)
REMARK    1  A    between atoms: C_1  and  C_2
REMARK    2  A    between atoms: C_2  and  C_3
REMARK    3  A    between atoms: C_2  and  C_4
REMARK    4  A    between atoms: C_4  and  C_6
REMARK    5  A    between atoms: C_4  and  N_24
REMARK    6  A    between atoms: C_6  and  O_8
REMARK    7  A    between atoms: O_8  and  C_9
REMARK    8  A    between atoms: C_9  and  C_10
REMARK    9  A    between atoms: C_10  and  O_11
REMARK   10  A    between atoms: O_11  and  C_12
REMARK   11  A    between atoms: C_12  and  N_13
REMARK                            x       y       z     vdW  Elec       q    Type
REMARK                         _______ _______ _______ _____ _____    ______ ____
ROOT
ATOM      1  C   UNL     1       5.850  -4.460  22.262  0.00  0.00    +0.400 C 
ENDROOT
BRANCH   1   2
ATOM      2  N   UNL     1       6.311  -2.661  22.445  0.00  0.00    -0.154 N 
ATOM      3  C   UNL     1       7.049  -1.255  23.232  0.00  0.00    +0.338 C 
ATOM      4  N   UNL     1       7.646  -0.177  23.841  0.00  0.00    +0.023 NA
ATOM      5  C   UNL     1       9.128   0.182  24.312  0.00  0.00    +0.450 C 
ATOM      6  N   UNL     1       9.796   1.214  25.047  0.00  0.00    -0.241 N 
ATOM      7  H   UNL     1      10.790   1.014  25.304  0.00  0.00    +0.242 HD
ATOM      8  H   UNL     1       9.628   2.199  25.221  0.00  0.00    +0.242 HD
ATOM      9  N   UNL     1      10.119  -0.603  24.038  0.00  0.00    +0.008 NA
ATOM     10  C   UNL     1       9.770  -1.630  23.289  0.00  0.00    +0.347 C 
ATOM     11  O   UNL     1      10.523  -2.593  23.111  0.00  0.00    -0.251 OA
ATOM     12  C   UNL     1       8.420  -1.668  22.701  0.00  0.00    +0.329 C 
ATOM     13  N   UNL     1       8.255  -3.014  23.160  0.00  0.00    -0.228 NA
ATOM     14  C   UNL     1       7.496  -3.217  22.179  0.00  0.00    +0.304 C 
ENDBRANCH   1   2
BRANCH   1  15
ATOM     15  O   UNL     1       4.601  -5.487  22.458  0.00  0.00    -0.338 OA
BRANCH  15  16
ATOM     16  C   UNL     1       3.888  -5.631  23.946  0.00  0.00    +0.205 C 
BRANCH  16  17
ATOM     17  C   UNL     1       4.290  -6.965  24.823  0.00  0.00    +0.260 C 
BRANCH  17  18
ATOM     18  O   UNL     1       5.369  -6.810  25.841  0.00  0.00    -0.461 OA
BRANCH  18  19
ATOM     19  C   UNL     1       5.112  -5.940  26.900  0.00  0.00    +0.324 C 
ATOM     20  O   UNL     1       3.989  -5.793  27.379  0.00  0.00    -0.249 OA
BRANCH  19  21
ATOM     21  C   UNL     1       6.385  -5.173  27.456  0.00  0.00    +0.163 C 
BRANCH  21  23
ATOM     22  C   UNL     1       7.061  -2.885  26.622  0.00  0.00    +0.009 C 
ATOM     23  C   UNL     1       7.146  -4.388  26.363  0.00  0.00    +0.010 C 
ATOM     24  C   UNL     1       8.636  -4.765  26.304  0.00  0.00    +0.009 C 
ENDBRANCH  21  23
BRANCH  21  25
ATOM     25  N   UNL     1       7.318  -6.160  28.084  0.00  0.00    -0.318 NA
ATOM     26  H   UNL     1       7.395  -5.952  29.081  0.00  0.00    +0.119 HD
ATOM     27  H   UNL     1       6.959  -7.112  28.020  0.00  0.00    +0.119 HD
ENDBRANCH  21  25
ENDBRANCH  19  21
ENDBRANCH  18  19
ENDBRANCH  17  18
ENDBRANCH  16  17
ENDBRANCH  15  16
ENDBRANCH   1  15
TORSDOF 9
ENDMDL
MODEL 8
REMARK VINA RESULT:      -6.6      2.310      6.356
REMARK  Name = 
REMARK  11 active torsions:
REMARK  status: ('A' for Active; 'I' for Inactive)
REMARK    1  A    between atoms: C_1  and  C_2
REMARK    2  A    between atoms: C_2  and  C_3
REMARK    3  A    between atoms: C_2  and  C_4
REMARK    4  A    between atoms: C_4  and  C_6
REMARK    5  A    between atoms: C_4  and  N_24
REMARK    6  A    between atoms: C_6  and  O_8
REMARK    7  A    between atoms: O_8  and  C_9
REMARK    8  A    between atoms: C_9  and  C_10
REMARK    9  A    between atoms: C_10  and  O_11
REMARK   10  A    between atoms: O_11  and  C_12
REMARK   11  A    between atoms: C_12  and  N_13
REMARK                            x       y       z     vdW  Elec       q    Type
REMARK                         _______ _______ _______ _____ _____    ______ ____
ROOT
ATOM      1  C   UNL     1       8.900  -1.112  21.761  0.00  0.00    +0.400 C 
ENDROOT
BRANCH   1   2
ATOM      2  N   UNL     1       9.381  -2.488  22.927  0.00  0.00    -0.154 N 
ATOM      3  C   UNL     1       9.259  -3.481  24.390  0.00  0.00    +0.338 C 
ATOM      4  N   UNL     1       9.140  -4.260  25.517  0.00  0.00    +0.023 NA
ATOM      5  C   UNL     1       7.980  -5.144  26.166  0.00  0.00    +0.450 C 
ATOM      6  N   UNL     1       7.742  -5.874  27.375  0.00  0.00    -0.241 N 
ATOM      7  H   UNL     1       6.758  -6.202  27.518  0.00  0.00    +0.242 HD
ATOM      8  H   UNL     1       8.324  -6.346  28.059  0.00  0.00    +0.242 HD
ATOM      9  N   UNL     1       6.862  -5.333  25.543  0.00  0.00    +0.008 NA
ATOM     10  C   UNL     1       6.849  -4.799  24.337  0.00  0.00    +0.347 C 
ATOM     11  O   UNL     1       5.805  -4.686  23.686  0.00  0.00    -0.251 OA
ATOM     12  C   UNL     1       8.098  -4.259  23.774  0.00  0.00    +0.329 C 
ATOM     13  N   UNL     1       7.415  -3.057  23.403  0.00  0.00    -0.228 NA
ATOM     14  C   UNL     1       8.220  -2.938  22.445  0.00  0.00    +0.304 C 
ENDBRANCH   1   2
BRANCH   1  15
ATOM     15  O   UNL     1       9.357   0.374  21.278  0.00  0.00    -0.338 OA
BRANCH  15  16
ATOM     16  C   UNL     1      10.061   1.405  22.366  0.00  0.00    +0.205 C 
BRANCH  16  17
ATOM     17  C   UNL     1       9.061   2.485  23.103  0.00  0.00    +0.260 C 
BRANCH  17  18
ATOM     18  O   UNL     1       8.554   2.126  24.459  0.00  0.00    -0.461 OA
BRANCH  18  19
ATOM     19  C   UNL     1       7.884   0.909  24.576  0.00  0.00    +0.324 C 
ATOM     20  O   UNL     1       6.814   0.685  24.013  0.00  0.00    -0.249 OA
BRANCH  19  21
ATOM     21  C   UNL     1       8.620  -0.174  25.473  0.00  0.00    +0.163 C 
BRANCH  21  23
ATOM     22  C   UNL     1       7.183   0.782  27.320  0.00  0.00    +0.009 C 
ATOM     23  C   UNL     1       7.876  -0.473  26.795  0.00  0.00    +0.010 C 
ATOM     24  C   UNL     1       6.801  -1.560  26.627  0.00  0.00    +0.009 C 
ENDBRANCH  21  23
BRANCH  21  25
ATOM     25  N   UNL     1      10.000   0.308  25.791  0.00  0.00    -0.318 NA
ATOM     26  H   UNL     1      10.019   1.327  25.716  0.00  0.00    +0.119 HD
ATOM     27  H   UNL     1      10.264   0.090  26.751  0.00  0.00    +0.119 HD
ENDBRANCH  21  25
ENDBRANCH  19  21
ENDBRANCH  18  19
ENDBRANCH  17  18
ENDBRANCH  16  17
ENDBRANCH  15  16
ENDBRANCH   1  15
TORSDOF 9
ENDMDL
MODEL 9
REMARK VINA RESULT:      -6.6      2.917      6.759
REMARK  Name = 
REMARK  11 active torsions:
REMARK  status: ('A' for Active; 'I' for Inactive)
REMARK    1  A    between atoms: C_1  and  C_2
REMARK    2  A    between atoms: C_2  and  C_3
REMARK    3  A    between atoms: C_2  and  C_4
REMARK    4  A    between atoms: C_4  and  C_6
REMARK    5  A    between atoms: C_4  and  N_24
REMARK    6  A    between atoms: C_6  and  O_8
REMARK    7  A    between atoms: O_8  and  C_9
REMARK    8  A    between atoms: C_9  and  C_10
REMARK    9  A    between atoms: C_10  and  O_11
REMARK   10  A    between atoms: O_11  and  C_12
REMARK   11  A    between atoms: C_12  and  N_13
REMARK                            x       y       z     vdW  Elec       q    Type
REMARK                         _______ _______ _______ _____ _____    ______ ____
ROOT
ATOM      1  C   UNL     1       5.608  -1.235  26.411  0.00  0.00    +0.400 C 
ENDROOT
BRANCH   1   2
ATOM      2  N   UNL     1       4.958  -2.460  25.163  0.00  0.00    -0.154 N 
ATOM      3  C   UNL     1       4.971  -3.386  23.652  0.00  0.00    +0.338 C 
ATOM      4  N   UNL     1       5.004  -4.116  22.487  0.00  0.00    +0.023 NA
ATOM      5  C   UNL     1       6.036  -5.133  21.815  0.00  0.00    +0.450 C 
ATOM      6  N   UNL     1       6.196  -5.829  20.574  0.00  0.00    -0.241 N 
ATOM      7  H   UNL     1       7.122  -6.296  20.435  0.00  0.00    +0.242 HD
ATOM      8  H   UNL     1       5.569  -6.172  19.854  0.00  0.00    +0.242 HD
ATOM      9  N   UNL     1       7.093  -5.521  22.451  0.00  0.00    +0.008 NA
ATOM     10  C   UNL     1       7.152  -5.057  23.684  0.00  0.00    +0.347 C 
ATOM     11  O   UNL     1       8.182  -5.137  24.362  0.00  0.00    -0.251 OA
ATOM     12  C   UNL     1       5.983  -4.362  24.249  0.00  0.00    +0.329 C 
ATOM     13  N   UNL     1       6.829  -3.298  24.698  0.00  0.00    -0.228 NA
ATOM     14  C   UNL     1       6.024  -3.106  25.644  0.00  0.00    +0.304 C 
ENDBRANCH   1   2
BRANCH   1  15
ATOM     15  O   UNL     1       6.100   0.311  26.549  0.00  0.00    -0.338 OA
BRANCH  15  16
ATOM     16  C   UNL     1       6.760   1.078  25.238  0.00  0.00    +0.205 C 
BRANCH  16  17
ATOM     17  C   UNL     1       8.402   1.043  25.120  0.00  0.00    +0.260 C 
BRANCH  17  18
ATOM     18  O   UNL     1       9.041  -0.293  24.937  0.00  0.00    -0.461 OA
BRANCH  18  19
ATOM     19  C   UNL     1      10.265  -0.317  24.272  0.00  0.00    +0.324 C 
ATOM     20  O   UNL     1      11.156   0.500  24.495  0.00  0.00    -0.249 OA
BRANCH  19  21
ATOM     21  C   UNL     1      10.430  -1.495  23.221  0.00  0.00    +0.163 C 
BRANCH  21  23
ATOM     22  C   UNL     1       8.228  -1.836  22.030  0.00  0.00    +0.009 C 
ATOM     23  C   UNL     1       9.637  -1.259  21.915  0.00  0.00    +0.010 C 
ATOM     24  C   UNL     1       9.500   0.235  21.578  0.00  0.00    +0.009 C 
ENDBRANCH  21  23
BRANCH  21  25
ATOM     25  N   UNL     1       9.971  -2.776  23.844  0.00  0.00    -0.318 NA
ATOM     26  H   UNL     1      10.257  -3.553  23.246  0.00  0.00    +0.119 HD
ATOM     27  H   UNL     1      10.414  -2.936  24.748  0.00  0.00    +0.119 HD
ENDBRANCH  21  25
ENDBRANCH  19  21
ENDBRANCH  18  19
ENDBRANCH  17  18
ENDBRANCH  16  17
ENDBRANCH  15  16
ENDBRANCH   1  15
TORSDOF 9
ENDMDL
