MODEL 1
REMARK VINA RESULT:      -6.2      0.000      0.000
REMARK  Name = 
REMARK  6 active torsions:
REMARK  status: ('A' for Active; 'I' for Inactive)
REMARK    1  A    between atoms: C_3  and  C_18
REMARK    2  A    between atoms: N_5  and  C1*_6
REMARK    3  A    between atoms: C2*_8  and  O2*_17
REMARK    4  A    between atoms: C3*_10  and  O3*_16
REMARK    5  A    between atoms: C4*_11  and  C5*_14
REMARK    6  A    between atoms: C5*_14  and  O5*_15
REMARK                            x       y       z     vdW  Elec       q    Type
REMARK                         _______ _______ _______ _____ _____    ______ ____
ROOT
ATOM      1  C1* UNL     1       9.011  -1.751  23.764  0.00  0.00    +0.270 C 
ATOM      2  O4* UNL     1       8.053  -0.675  23.630  0.00  0.00    -0.344 OA
ATOM      3  C4* UNL     1       8.806   0.521  23.314  0.00  0.00    +0.177 C 
ATOM      4  C3* UNL     1      10.285   0.110  23.183  0.00  0.00    +0.178 C 
ATOM      5  C2* UNL     1      10.199  -1.379  22.874  0.00  0.00    +0.196 C 
ENDROOT
BRANCH   1   7
ATOM      6  C   UNL     1       8.594  -4.176  24.194  0.00  0.00    +0.223 A 
ATOM      7  N   UNL     1       8.360  -3.019  23.517  0.00  0.00    -0.220 N 
ATOM      8  N   UNL     1       7.544  -3.229  22.462  0.00  0.00    -0.142 NA
ATOM      9  C   UNL     1       7.294  -4.551  22.560  0.00  0.00    +0.236 A 
ATOM     10  N   UNL     1       7.947  -5.163  23.624  0.00  0.00    -0.211 NA
BRANCH   9  11
ATOM     11  C   UNL     1       6.430  -5.316  21.640  0.00  0.00    +0.281 C 
ATOM     12  N   UNL     1       6.224  -6.619  22.024  0.00  0.00    -0.323 N 
ATOM     13  H   UNL     1       5.641  -7.211  21.450  0.00  0.00    +0.145 HD
ATOM     14  H   UNL     1       6.651  -6.964  22.875  0.00  0.00    +0.145 HD
ATOM     15  O   UNL     1       5.925  -4.873  20.611  0.00  0.00    -0.267 OA
ENDBRANCH   9  11
ENDBRANCH   1   7
BRANCH   4  16
ATOM     16  O3* UNL     1      10.988   0.249  24.432  0.00  0.00    -0.386 OA
ATOM     17  H3* UNL     1      10.352   0.307  25.165  0.00  0.00    +0.210 HD
ENDBRANCH   4  16
BRANCH   5  18
ATOM     18  O2* UNL     1       9.951  -1.566  21.479  0.00  0.00    -0.385 OA
ATOM     19  H2* UNL     1      10.817  -1.811  21.084  0.00  0.00    +0.210 HD
ENDBRANCH   5  18
BRANCH   3  20
ATOM     20  C5* UNL     1       8.243   1.186  22.055  0.00  0.00    +0.190 C 
BRANCH  20  21
ATOM     21  O5* UNL     1       9.297   1.420  21.125  0.00  0.00    -0.392 OA
ATOM     22  H5* UNL     1      10.109   1.046  21.510  0.00  0.00    +0.210 HD
ENDBRANCH  20  21
ENDBRANCH   3  20
TORSDOF 6
ENDMDL
MODEL 2
REMARK VINA RESULT:      -6.0      2.149      3.465
REMARK  Name = 
REMARK  6 active torsions:
REMARK  status: ('A' for Active; 'I' for Inactive)
REMARK    1  A    between atoms: C_3  and  C_18
REMARK    2  A    between atoms: N_5  and  C1*_6
REMARK    3  A    between atoms: C2*_8  and  O2*_17
REMARK    4  A    between atoms: C3*_10  and  O3*_16
REMARK    5  A    between atoms: C4*_11  and  C5*_14
REMARK    6  A    between atoms: C5*_14  and  O5*_15
REMARK                            x       y       z     vdW  Elec       q    Type
REMARK                         _______ _______ _______ _____ _____    ______ ____
ROOT
ATOM      1  C1* UNL     1       9.097  -1.081  22.547  0.00  0.00    +0.270 C 
ATOM      2  O4* UNL     1      10.355  -0.509  22.977  0.00  0.00    -0.344 OA
ATOM      3  C4* UNL     1      10.244   0.926  22.809  0.00  0.00    +0.177 C 
ATOM      4  C3* UNL     1       8.812   1.219  22.320  0.00  0.00    +0.178 C 
ATOM      5  C2* UNL     1       8.035  -0.005  22.784  0.00  0.00    +0.196 C 
ENDROOT
BRANCH   1   7
ATOM      6  C   UNL     1       8.020  -3.322  22.781  0.00  0.00    +0.223 A 
ATOM      7  N   UNL     1       8.903  -2.367  23.181  0.00  0.00    -0.220 N 
ATOM      8  N   UNL     1       9.482  -2.698  24.355  0.00  0.00    -0.142 NA
ATOM      9  C   UNL     1       8.917  -3.895  24.616  0.00  0.00    +0.236 A 
ATOM     10  N   UNL     1       7.996  -4.298  23.657  0.00  0.00    -0.211 NA
BRANCH   9  11
ATOM     11  C   UNL     1       9.210  -4.724  25.802  0.00  0.00    +0.281 C 
ATOM     12  N   UNL     1      10.033  -5.793  25.545  0.00  0.00    -0.323 N 
ATOM     13  H   UNL     1      10.285  -6.410  26.304  0.00  0.00    +0.145 HD
ATOM     14  H   UNL     1      10.379  -5.944  24.605  0.00  0.00    +0.145 HD
ATOM     15  O   UNL     1       8.775  -4.519  26.933  0.00  0.00    -0.267 OA
ENDBRANCH   9  11
ENDBRANCH   1   7
BRANCH   4  16
ATOM     16  O3* UNL     1       8.739   1.255  20.883  0.00  0.00    -0.386 OA
ATOM     17  H3* UNL     1       9.038   2.121  20.558  0.00  0.00    +0.210 HD
ENDBRANCH   4  16
BRANCH   5  18
ATOM     18  O2* UNL     1       7.673   0.149  24.158  0.00  0.00    -0.385 OA
ATOM     19  H2* UNL     1       6.888  -0.428  24.294  0.00  0.00    +0.210 HD
ENDBRANCH   5  18
BRANCH   3  20
ATOM     20  C5* UNL     1      10.603   1.643  24.113  0.00  0.00    +0.190 C 
BRANCH  20  21
ATOM     21  O5* UNL     1      10.471   0.741  25.208  0.00  0.00    -0.392 OA
ATOM     22  H5* UNL     1      10.549   1.266  26.024  0.00  0.00    +0.210 HD
ENDBRANCH  20  21
ENDBRANCH   3  20
TORSDOF 6
ENDMDL
MODEL 3
REMARK VINA RESULT:      -5.7      2.822      5.763
REMARK  Name = 
REMARK  6 active torsions:
REMARK  status: ('A' for Active; 'I' for Inactive)
REMARK    1  A    between atoms: C_3  and  C_18
REMARK    2  A    between atoms: N_5  and  C1*_6
REMARK    3  A    between atoms: C2*_8  and  O2*_17
REMARK    4  A    between atoms: C3*_10  and  O3*_16
REMARK    5  A    between atoms: C4*_11  and  C5*_14
REMARK    6  A    between atoms: C5*_14  and  O5*_15
REMARK                            x       y       z     vdW  Elec       q    Type
REMARK                         _______ _______ _______ _____ _____    ______ ____
ROOT
ATOM      1  C1* UNL     1       9.414  -3.051  24.468  0.00  0.00    +0.270 C 
ATOM      2  O4* UNL     1       8.728  -4.111  23.760  0.00  0.00    -0.344 OA
ATOM      3  C4* UNL     1       8.162  -4.989  24.763  0.00  0.00    +0.177 C 
ATOM      4  C3* UNL     1       8.472  -4.371  26.140  0.00  0.00    +0.178 C 
ATOM      5  C2* UNL     1       8.696  -2.901  25.811  0.00  0.00    +0.196 C 
ENDROOT
BRANCH   1   7
ATOM      6  C   UNL     1       9.473  -1.879  22.264  0.00  0.00    +0.223 A 
ATOM      7  N   UNL     1       9.509  -1.881  23.624  0.00  0.00    -0.220 N 
ATOM      8  N   UNL     1       9.806  -0.654  24.105  0.00  0.00    -0.142 NA
ATOM      9  C   UNL     1       9.922   0.069  22.972  0.00  0.00    +0.236 A 
ATOM     10  N   UNL     1       9.731  -0.675  21.814  0.00  0.00    -0.211 NA
BRANCH   9  11
ATOM     11  C   UNL     1      10.236   1.511  22.922  0.00  0.00    +0.281 C 
ATOM     12  N   UNL     1      10.011   2.087  21.695  0.00  0.00    -0.323 N 
ATOM     13  H   UNL     1      10.198   3.072  21.576  0.00  0.00    +0.145 HD
ATOM     14  H   UNL     1       9.657   1.521  20.933  0.00  0.00    +0.145 HD
ATOM     15  O   UNL     1      10.666   2.174  23.862  0.00  0.00    -0.267 OA
ENDBRANCH   9  11
ENDBRANCH   1   7
BRANCH   4  16
ATOM     16  O3* UNL     1       9.701  -4.882  26.687  0.00  0.00    -0.386 OA
ATOM     17  H3* UNL     1      10.420  -4.777  26.041  0.00  0.00    +0.210 HD
ENDBRANCH   4  16
BRANCH   5  18
ATOM     18  O2* UNL     1       7.437  -2.233  25.716  0.00  0.00    -0.385 OA
ATOM     19  H2* UNL     1       6.797  -2.795  26.210  0.00  0.00    +0.210 HD
ENDBRANCH   5  18
BRANCH   3  20
ATOM     20  C5* UNL     1       6.667  -5.194  24.507  0.00  0.00    +0.190 C 
BRANCH  20  21
ATOM     21  O5* UNL     1       6.182  -4.166  23.647  0.00  0.00    -0.392 OA
ATOM     22  H5* UNL     1       6.643  -4.263  22.795  0.00  0.00    +0.210 HD
ENDBRANCH  20  21
ENDBRANCH   3  20
TORSDOF 6
ENDMDL
MODEL 4
REMARK VINA RESULT:      -5.6      3.050      6.037
REMARK  Name = 
REMARK  6 active torsions:
REMARK  status: ('A' for Active; 'I' for Inactive)
REMARK    1  A    between atoms: C_3  and  C_18
REMARK    2  A    between atoms: N_5  and  C1*_6
REMARK    3  A    between atoms: C2*_8  and  O2*_17
REMARK    4  A    between atoms: C3*_10  and  O3*_16
REMARK    5  A    between atoms: C4*_11  and  C5*_14
REMARK    6  A    between atoms: C5*_14  and  O5*_15
REMARK                            x       y       z     vdW  Elec       q    Type
REMARK                         _______ _______ _______ _____ _____    ______ ____
ROOT
ATOM      1  C1* UNL     1       8.091  -2.032  24.390  0.00  0.00    +0.270 C 
ATOM      2  O4* UNL     1       8.028  -2.554  25.739  0.00  0.00    -0.344 OA
ATOM      3  C4* UNL     1       8.063  -3.998  25.634  0.00  0.00    +0.177 C 
ATOM      4  C3* UNL     1       8.227  -4.344  24.141  0.00  0.00    +0.178 C 
ATOM      5  C2* UNL     1       8.843  -3.077  23.563  0.00  0.00    +0.196 C 
ENDROOT
BRANCH   1   7
ATOM      6  C   UNL     1       8.356   0.254  25.359  0.00  0.00    +0.223 A 
ATOM      7  N   UNL     1       8.618  -0.686  24.410  0.00  0.00    -0.220 N 
ATOM      8  N   UNL     1       9.320  -0.160  23.384  0.00  0.00    -0.142 NA
ATOM      9  C   UNL     1       9.474   1.121  23.779  0.00  0.00    +0.236 A 
ATOM     10  N   UNL     1       8.873   1.404  24.999  0.00  0.00    -0.211 NA
BRANCH   9  11
ATOM     11  C   UNL     1      10.193   2.158  23.012  0.00  0.00    +0.281 C 
ATOM     12  N   UNL     1       9.976   2.100  21.657  0.00  0.00    -0.323 N 
ATOM     13  H   UNL     1      10.429   2.776  21.060  0.00  0.00    +0.145 HD
ATOM     14  H   UNL     1       9.363   1.388  21.278  0.00  0.00    +0.145 HD
ATOM     15  O   UNL     1      10.932   3.011  23.498  0.00  0.00    -0.267 OA
ENDBRANCH   9  11
ENDBRANCH   1   7
BRANCH   4  16
ATOM     16  O3* UNL     1       6.954  -4.536  23.497  0.00  0.00    -0.386 OA
ATOM     17  H3* UNL     1       6.416  -3.731  23.582  0.00  0.00    +0.210 HD
ENDBRANCH   4  16
BRANCH   5  18
ATOM     18  O2* UNL     1      10.254  -3.082  23.792  0.00  0.00    -0.385 OA
ATOM     19  H2* UNL     1      10.442  -2.273  24.319  0.00  0.00    +0.210 HD
ENDBRANCH   5  18
BRANCH   3  20
ATOM     20  C5* UNL     1       9.173  -4.569  26.519  0.00  0.00    +0.190 C 
BRANCH  20  21
ATOM     21  O5* UNL     1       9.980  -5.464  25.759  0.00  0.00    -0.392 OA
ATOM     22  H5* UNL     1      10.832  -5.548  26.222  0.00  0.00    +0.210 HD
ENDBRANCH  20  21
ENDBRANCH   3  20
TORSDOF 6
ENDMDL
MODEL 5
REMARK VINA RESULT:      -5.6      2.676      3.033
REMARK  Name = 
REMARK  6 active torsions:
REMARK  status: ('A' for Active; 'I' for Inactive)
REMARK    1  A    between atoms: C_3  and  C_18
REMARK    2  A    between atoms: N_5  and  C1*_6
REMARK    3  A    between atoms: C2*_8  and  O2*_17
REMARK    4  A    between atoms: C3*_10  and  O3*_16
REMARK    5  A    between atoms: C4*_11  and  C5*_14
REMARK    6  A    between atoms: C5*_14  and  O5*_15
REMARK                            x       y       z     vdW  Elec       q    Type
REMARK                         _______ _______ _______ _____ _____    ______ ____
ROOT
ATOM      1  C1* UNL     1       8.388   0.030  24.925  0.00  0.00    +0.270 C 
ATOM      2  O4* UNL     1       7.737   0.194  23.643  0.00  0.00    -0.344 OA
ATOM      3  C4* UNL     1       8.233   1.431  23.075  0.00  0.00    +0.177 C 
ATOM      4  C3* UNL     1       9.289   1.990  24.048  0.00  0.00    +0.178 C 
ATOM      5  C2* UNL     1       9.732   0.753  24.818  0.00  0.00    +0.196 C 
ENDROOT
BRANCH   1   7
ATOM      6  C   UNL     1       8.176  -1.869  26.533  0.00  0.00    +0.223 A 
ATOM      7  N   UNL     1       8.407  -1.370  25.289  0.00  0.00    -0.220 N 
ATOM      8  N   UNL     1       8.818  -2.340  24.443  0.00  0.00    -0.142 NA
ATOM      9  C   UNL     1       8.798  -3.430  25.238  0.00  0.00    +0.236 A 
ATOM     10  N   UNL     1       8.413  -3.159  26.545  0.00  0.00    -0.211 NA
BRANCH   9  11
ATOM     11  C   UNL     1       9.158  -4.794  24.805  0.00  0.00    +0.281 C 
ATOM     12  N   UNL     1      10.136  -5.382  25.571  0.00  0.00    -0.323 N 
ATOM     13  H   UNL     1      10.439  -6.318  25.343  0.00  0.00    +0.145 HD
ATOM     14  H   UNL     1      10.533  -4.874  26.352  0.00  0.00    +0.145 HD
ATOM     15  O   UNL     1       8.660  -5.388  23.851  0.00  0.00    -0.267 OA
ENDBRANCH   9  11
ENDBRANCH   1   7
BRANCH   4  16
ATOM     16  O3* UNL     1       8.708   2.902  24.998  0.00  0.00    -0.386 OA
ATOM     17  H3* UNL     1       9.154   2.814  25.857  0.00  0.00    +0.210 HD
ENDBRANCH   4  16
BRANCH   5  18
ATOM     18  O2* UNL     1      10.708   0.038  24.057  0.00  0.00    -0.385 OA
ATOM     19  H2* UNL     1      10.430  -0.905  24.084  0.00  0.00    +0.210 HD
ENDBRANCH   5  18
BRANCH   3  20
ATOM     20  C5* UNL     1       8.769   1.190  21.662  0.00  0.00    +0.190 C 
BRANCH  20  21
ATOM     21  O5* UNL     1       9.967   1.937  21.471  0.00  0.00    -0.392 OA
ATOM     22  H5* UNL     1      10.191   2.346  22.326  0.00  0.00    +0.210 HD
ENDBRANCH  20  21
ENDBRANCH   3  20
TORSDOF 6
ENDMDL
MODEL 6
REMARK VINA RESULT:      -5.5      1.395      2.508
REMARK  Name = 
REMARK  6 active torsions:
REMARK  status: ('A' for Active; 'I' for Inactive)
REMARK    1  A    between atoms: C_3  and  C_18
REMARK    2  A    between atoms: N_5  and  C1*_6
REMARK    3  A    between atoms: C2*_8  and  O2*_17
REMARK    4  A    between atoms: C3*_10  and  O3*_16
REMARK    5  A    between atoms: C4*_11  and  C5*_14
REMARK    6  A    between atoms: C5*_14  and  O5*_15
REMARK                            x       y       z     vdW  Elec       q    Type
REMARK                         _______ _______ _______ _____ _____    ______ ____
ROOT
ATOM      1  C1* UNL     1       8.952  -0.975  22.451  0.00  0.00    +0.270 C 
ATOM      2  O4* UNL     1      10.231  -0.525  22.956  0.00  0.00    -0.344 OA
ATOM      3  C4* UNL     1      10.236   0.920  22.861  0.00  0.00    +0.177 C 
ATOM      4  C3* UNL     1       8.852   1.349  22.336  0.00  0.00    +0.178 C 
ATOM      5  C2* UNL     1       7.966   0.167  22.706  0.00  0.00    +0.196 C 
ENDROOT
BRANCH   1   7
ATOM      6  C   UNL     1       9.380  -2.944  23.927  0.00  0.00    +0.223 A 
ATOM      7  N   UNL     1       8.634  -2.272  23.008  0.00  0.00    -0.220 N 
ATOM      8  N   UNL     1       7.621  -3.037  22.549  0.00  0.00    -0.142 NA
ATOM      9  C   UNL     1       7.792  -4.177  23.251  0.00  0.00    +0.236 A 
ATOM     10  N   UNL     1       8.887  -4.145  24.106  0.00  0.00    -0.211 NA
BRANCH   9  11
ATOM     11  C   UNL     1       6.931  -5.371  23.141  0.00  0.00    +0.281 C 
ATOM     12  N   UNL     1       7.161  -6.121  22.013  0.00  0.00    -0.323 N 
ATOM     13  H   UNL     1       6.615  -6.957  21.863  0.00  0.00    +0.145 HD
ATOM     14  H   UNL     1       7.874  -5.831  21.355  0.00  0.00    +0.145 HD
ATOM     15  O   UNL     1       6.072  -5.700  23.955  0.00  0.00    -0.267 OA
ENDBRANCH   9  11
ENDBRANCH   1   7
BRANCH   4  16
ATOM     16  O3* UNL     1       8.840   1.462  20.901  0.00  0.00    -0.386 OA
ATOM     17  H3* UNL     1       9.612   1.972  20.603  0.00  0.00    +0.210 HD
ENDBRANCH   4  16
BRANCH   5  18
ATOM     18  O2* UNL     1       7.562   0.280  24.072  0.00  0.00    -0.385 OA
ATOM     19  H2* UNL     1       6.587   0.412  24.053  0.00  0.00    +0.210 HD
ENDBRANCH   5  18
BRANCH   3  20
ATOM     20  C5* UNL     1      10.597   1.541  24.212  0.00  0.00    +0.190 C 
BRANCH  20  21
ATOM     21  O5* UNL     1      10.375   0.591  25.251  0.00  0.00    -0.392 OA
ATOM     22  H5* UNL     1      10.013   1.077  26.013  0.00  0.00    +0.210 HD
ENDBRANCH  20  21
ENDBRANCH   3  20
TORSDOF 6
ENDMDL
MODEL 7
REMARK VINA RESULT:      -5.4      2.881      4.520
REMARK  Name = 
REMARK  6 active torsions:
REMARK  status: ('A' for Active; 'I' for Inactive)
REMARK    1  A    between atoms: C_3  and  C_18
REMARK    2  A    between atoms: N_5  and  C1*_6
REMARK    3  A    between atoms: C2*_8  and  O2*_17
REMARK    4  A    between atoms: C3*_10  and  O3*_16
REMARK    5  A    between atoms: C4*_11  and  C5*_14
REMARK    6  A    between atoms: C5*_14  and  O5*_15
REMARK                            x       y       z     vdW  Elec       q    Type
REMARK                         _______ _______ _______ _____ _____    ______ ____
ROOT
ATOM      1  C1* UNL     1       8.005  -4.425  23.328  0.00  0.00    +0.270 C 
ATOM      2  O4* UNL     1       8.735  -5.331  24.189  0.00  0.00    -0.344 OA
ATOM      3  C4* UNL     1       9.564  -4.516  25.052  0.00  0.00    +0.177 C 
ATOM      4  C3* UNL     1       9.250  -3.042  24.729  0.00  0.00    +0.178 C 
ATOM      5  C2* UNL     1       7.861  -3.118  24.110  0.00  0.00    +0.196 C 
ENDROOT
BRANCH   1   7
ATOM      6  C   UNL     1       6.554  -5.463  21.581  0.00  0.00    +0.223 A 
ATOM      7  N   UNL     1       6.795  -5.064  22.859  0.00  0.00    -0.220 N 
ATOM      8  N   UNL     1       5.692  -5.193  23.627  0.00  0.00    -0.142 NA
ATOM      9  C   UNL     1       4.801  -5.703  22.752  0.00  0.00    +0.236 A 
ATOM     10  N   UNL     1       5.312  -5.869  21.470  0.00  0.00    -0.211 NA
BRANCH   9  11
ATOM     11  C   UNL     1       3.404  -6.052  23.078  0.00  0.00    +0.281 C 
ATOM     12  N   UNL     1       3.253  -7.313  23.602  0.00  0.00    -0.323 N 
ATOM     13  H   UNL     1       2.328  -7.629  23.855  0.00  0.00    +0.145 HD
ATOM     14  H   UNL     1       4.066  -7.902  23.732  0.00  0.00    +0.145 HD
ATOM     15  O   UNL     1       2.434  -5.317  22.909  0.00  0.00    -0.267 OA
ENDBRANCH   9  11
ENDBRANCH   1   7
BRANCH   4  16
ATOM     16  O3* UNL     1      10.139  -2.516  23.727  0.00  0.00    -0.386 OA
ATOM     17  H3* UNL     1      10.377  -1.599  23.944  0.00  0.00    +0.210 HD
ENDBRANCH   4  16
BRANCH   5  18
ATOM     18  O2* UNL     1       6.876  -3.175  25.144  0.00  0.00    -0.385 OA
ATOM     19  H2* UNL     1       6.612  -2.242  25.313  0.00  0.00    +0.210 HD
ENDBRANCH   5  18
BRANCH   3  20
ATOM     20  C5* UNL     1       9.328  -4.884  26.519  0.00  0.00    +0.190 C 
BRANCH  20  21
ATOM     21  O5* UNL     1       8.189  -5.735  26.622  0.00  0.00    -0.392 OA
ATOM     22  H5* UNL     1       7.483  -5.337  26.081  0.00  0.00    +0.210 HD
ENDBRANCH  20  21
ENDBRANCH   3  20
TORSDOF 6
ENDMDL
MODEL 8
REMARK VINA RESULT:      -5.3      2.362      2.863
REMARK  Name = 
REMARK  6 active torsions:
REMARK  status: ('A' for Active; 'I' for Inactive)
REMARK    1  A    between atoms: C_3  and  C_18
REMARK    2  A    between atoms: N_5  and  C1*_6
REMARK    3  A    between atoms: C2*_8  and  O2*_17
REMARK    4  A    between atoms: C3*_10  and  O3*_16
REMARK    5  A    between atoms: C4*_11  and  C5*_14
REMARK    6  A    between atoms: C5*_14  and  O5*_15
REMARK                            x       y       z     vdW  Elec       q    Type
REMARK                         _______ _______ _______ _____ _____    ______ ____
ROOT
ATOM      1  C1* UNL     1       8.295  -1.055  24.505  0.00  0.00    +0.270 C 
ATOM      2  O4* UNL     1       7.892  -0.439  23.259  0.00  0.00    -0.344 OA
ATOM      3  C4* UNL     1       8.954   0.467  22.875  0.00  0.00    +0.177 C 
ATOM      4  C3* UNL     1      10.079   0.323  23.919  0.00  0.00    +0.178 C 
ATOM      5  C2* UNL     1       9.825  -1.060  24.504  0.00  0.00    +0.196 C 
ENDROOT
BRANCH   1   7
ATOM      6  C   UNL     1       6.432  -2.668  24.096  0.00  0.00    +0.223 A 
ATOM      7  N   UNL     1       7.620  -2.325  24.664  0.00  0.00    -0.220 N 
ATOM      8  N   UNL     1       8.033  -3.268  25.538  0.00  0.00    -0.142 NA
ATOM      9  C   UNL     1       7.049  -4.186  25.443  0.00  0.00    +0.236 A 
ATOM     10  N   UNL     1       6.036  -3.828  24.561  0.00  0.00    -0.211 NA
BRANCH   9  11
ATOM     11  C   UNL     1       7.005  -5.455  26.196  0.00  0.00    +0.281 C 
ATOM     12  N   UNL     1       8.169  -5.746  26.865  0.00  0.00    -0.323 N 
ATOM     13  H   UNL     1       8.221  -6.596  27.407  0.00  0.00    +0.145 HD
ATOM     14  H   UNL     1       8.952  -5.106  26.809  0.00  0.00    +0.145 HD
ATOM     15  O   UNL     1       6.040  -6.215  26.246  0.00  0.00    -0.267 OA
ENDBRANCH   9  11
ENDBRANCH   1   7
BRANCH   4  16
ATOM     16  O3* UNL     1       9.936   1.275  24.989  0.00  0.00    -0.386 OA
ATOM     17  H3* UNL     1      10.778   1.365  25.466  0.00  0.00    +0.210 HD
ENDBRANCH   4  16
BRANCH   5  18
ATOM     18  O2* UNL     1      10.394  -2.054  23.649  0.00  0.00    -0.385 OA
ATOM     19  H2* UNL     1       9.663  -2.352  23.061  0.00  0.00    +0.210 HD
ENDBRANCH   5  18
BRANCH   3  20
ATOM     20  C5* UNL     1       9.408   0.177  21.443  0.00  0.00    +0.190 C 
BRANCH  20  21
ATOM     21  O5* UNL     1       9.353  -1.225  21.197  0.00  0.00    -0.392 OA
ATOM     22  H5* UNL     1      10.175  -1.470  20.737  0.00  0.00    +0.210 HD
ENDBRANCH  20  21
ENDBRANCH   3  20
TORSDOF 6
ENDMDL
MODEL 9
REMARK VINA RESULT:      -5.3      2.196      3.397
REMARK  Name = 
REMARK  6 active torsions:
REMARK  status: ('A' for Active; 'I' for Inactive)
REMARK    1  A    between atoms: C_3  and  C_18
REMARK    2  A    between atoms: N_5  and  C1*_6
REMARK    3  A    between atoms: C2*_8  and  O2*_17
REMARK    4  A    between atoms: C3*_10  and  O3*_16
REMARK    5  A    between atoms: C4*_11  and  C5*_14
REMARK    6  A    between atoms: C5*_14  and  O5*_15
REMARK                            x       y       z     vdW  Elec       q    Type
REMARK                         _______ _______ _______ _____ _____    ______ ____
ROOT
ATOM      1  C1* UNL     1       8.986  -2.389  23.136  0.00  0.00    +0.270 C 
ATOM      2  O4* UNL     1      10.187  -1.918  23.792  0.00  0.00    -0.344 OA
ATOM      3  C4* UNL     1      10.427  -0.572  23.314  0.00  0.00    +0.177 C 
ATOM      4  C3* UNL     1       9.260  -0.204  22.378  0.00  0.00    +0.178 C 
ATOM      5  C2* UNL     1       8.151  -1.143  22.830  0.00  0.00    +0.196 C 
ENDROOT
BRANCH   1   7
ATOM      6  C   UNL     1       7.707  -4.512  23.441  0.00  0.00    +0.223 A 
ATOM      7  N   UNL     1       8.371  -3.430  23.930  0.00  0.00    -0.220 N 
ATOM      8  N   UNL     1       8.256  -3.354  25.273  0.00  0.00    -0.142 NA
ATOM      9  C   UNL     1       7.515  -4.446  25.552  0.00  0.00    +0.236 A 
ATOM     10  N   UNL     1       7.152  -5.176  24.426  0.00  0.00    -0.211 NA
BRANCH   9  11
ATOM     11  C   UNL     1       7.095  -4.856  26.907  0.00  0.00    +0.281 C 
ATOM     12  N   UNL     1       7.689  -6.013  27.348  0.00  0.00    -0.323 N 
ATOM     13  H   UNL     1       7.458  -6.362  28.267  0.00  0.00    +0.145 HD
ATOM     14  H   UNL     1       8.352  -6.495  26.752  0.00  0.00    +0.145 HD
ATOM     15  O   UNL     1       6.287  -4.253  27.609  0.00  0.00    -0.267 OA
ENDBRANCH   9  11
ENDBRANCH   1   7
BRANCH   4  16
ATOM     16  O3* UNL     1       9.559  -0.521  21.006  0.00  0.00    -0.386 OA
ATOM     17  H3* UNL     1       9.781  -1.463  20.925  0.00  0.00    +0.210 HD
ENDBRANCH   4  16
BRANCH   5  18
ATOM     18  O2* UNL     1       7.496  -0.596  23.977  0.00  0.00    -0.385 OA
ATOM     19  H2* UNL     1       7.029   0.209  23.660  0.00  0.00    +0.210 HD
ENDBRANCH   5  18
BRANCH   3  20
ATOM     20  C5* UNL     1      10.592   0.389  24.493  0.00  0.00    +0.190 C 
BRANCH  20  21
ATOM     21  O5* UNL     1      10.729   1.722  24.009  0.00  0.00    -0.392 OA
ATOM     22  H5* UNL     1      11.421   2.152  24.543  0.00  0.00    +0.210 HD
ENDBRANCH  20  21
ENDBRANCH   3  20
TORSDOF 6
ENDMDL
