MODEL 1
REMARK VINA RESULT:      -5.9      0.000      0.000
REMARK  Name = 
REMARK  6 active torsions:
REMARK  status: ('A' for Active; 'I' for Inactive)
REMARK    1  A    between atoms: C_3  and  C_18
REMARK    2  A    between atoms: N_5  and  C1*_6
REMARK    3  A    between atoms: C2*_7  and  O2*_17
REMARK    4  A    between atoms: C3*_9  and  O3*_16
REMARK    5  A    between atoms: C4*_11  and  C5*_14
REMARK    6  A    between atoms: C5*_14  and  O5*_15
REMARK                            x       y       z     vdW  Elec       q    Type
REMARK                         _______ _______ _______ _____ _____    ______ ____
ROOT
ATOM      1  C1* UNL     1       9.822  -0.023  24.294  0.00  0.00    +0.270 C 
ATOM      2  O4* UNL     1       8.815   0.968  24.614  0.00  0.00    -0.344 OA
ATOM      3  C4* UNL     1       8.880   1.987  23.584  0.00  0.00    +0.177 C 
ATOM      4  C3* UNL     1      10.082   1.649  22.696  0.00  0.00    +0.178 C 
ATOM      5  C2* UNL     1      10.131   0.132  22.803  0.00  0.00    +0.196 C 
ENDROOT
BRANCH   1   7
ATOM      6  C   UNL     1       8.678  -1.538  25.913  0.00  0.00    +0.223 A 
ATOM      7  N   UNL     1       9.375  -1.314  24.766  0.00  0.00    -0.220 N 
ATOM      8  N   UNL     1       9.689  -2.473  24.150  0.00  0.00    -0.142 NA
ATOM      9  C   UNL     1       9.133  -3.385  24.977  0.00  0.00    +0.236 A 
ATOM     10  N   UNL     1       8.513  -2.825  26.088  0.00  0.00    -0.211 NA
BRANCH   9  11
ATOM     11  C   UNL     1       9.168  -4.846  24.769  0.00  0.00    +0.281 C 
ATOM     12  N   UNL     1       9.951  -5.518  25.675  0.00  0.00    -0.323 N 
ATOM     13  H   UNL     1      10.026  -6.520  25.616  0.00  0.00    +0.145 HD
ATOM     14  H   UNL     1      10.431  -5.001  26.404  0.00  0.00    +0.145 HD
ATOM     15  O   UNL     1       8.570  -5.447  23.881  0.00  0.00    -0.267 OA
ENDBRANCH   9  11
ENDBRANCH   1   7
BRANCH   4  16
ATOM     16  O3* UNL     1       9.906   2.089  21.357  0.00  0.00    -0.386 OA
ATOM     17  H3* UNL     1      10.675   1.736  20.863  0.00  0.00    +0.210 HD
ENDBRANCH   4  16
BRANCH   5  18
ATOM     18  O2* UNL     1       9.122  -0.395  21.924  0.00  0.00    -0.385 OA
ATOM     19  H2* UNL     1       8.260  -0.240  22.375  0.00  0.00    +0.210 HD
ENDBRANCH   5  18
BRANCH   3  20
ATOM     20  C5* UNL     1       9.004   3.346  24.268  0.00  0.00    +0.190 C 
BRANCH  20  21
ATOM     21  O5* UNL     1       9.428   4.330  23.322  0.00  0.00    -0.392 OA
ATOM     22  H5* UNL     1       8.691   4.962  23.247  0.00  0.00    +0.210 HD
ENDBRANCH  20  21
ENDBRANCH   3  20
TORSDOF 6
ENDMDL
MODEL 2
REMARK VINA RESULT:      -5.9      2.477      6.219
REMARK  Name = 
REMARK  6 active torsions:
REMARK  status: ('A' for Active; 'I' for Inactive)
REMARK    1  A    between atoms: C_3  and  C_18
REMARK    2  A    between atoms: N_5  and  C1*_6
REMARK    3  A    between atoms: C2*_7  and  O2*_17
REMARK    4  A    between atoms: C3*_9  and  O3*_16
REMARK    5  A    between atoms: C4*_11  and  C5*_14
REMARK    6  A    between atoms: C5*_14  and  O5*_15
REMARK                            x       y       z     vdW  Elec       q    Type
REMARK                         _______ _______ _______ _____ _____    ______ ____
ROOT
ATOM      1  C1* UNL     1       7.789  -2.616  24.257  0.00  0.00    +0.270 C 
ATOM      2  O4* UNL     1       7.774  -2.650  25.704  0.00  0.00    -0.344 OA
ATOM      3  C4* UNL     1       8.355  -3.917  26.106  0.00  0.00    +0.177 C 
ATOM      4  C3* UNL     1       8.588  -4.726  24.826  0.00  0.00    +0.178 C 
ATOM      5  C2* UNL     1       8.845  -3.627  23.805  0.00  0.00    +0.196 C 
ENDROOT
BRANCH   1   7
ATOM      6  C   UNL     1       6.924  -0.461  23.343  0.00  0.00    +0.223 A 
ATOM      7  N   UNL     1       7.928  -1.244  23.822  0.00  0.00    -0.220 N 
ATOM      8  N   UNL     1       9.118  -0.610  23.757  0.00  0.00    -0.142 NA
ATOM      9  C   UNL     1       8.765   0.585  23.234  0.00  0.00    +0.236 A 
ATOM     10  N   UNL     1       7.408   0.693  22.955  0.00  0.00    -0.211 NA
BRANCH   9  11
ATOM     11  C   UNL     1       9.699   1.694  22.956  0.00  0.00    +0.281 C 
ATOM     12  N   UNL     1       9.794   2.020  21.626  0.00  0.00    -0.323 N 
ATOM     13  H   UNL     1      10.400   2.773  21.343  0.00  0.00    +0.145 HD
ATOM     14  H   UNL     1       9.240   1.513  20.944  0.00  0.00    +0.145 HD
ATOM     15  O   UNL     1      10.352   2.296  23.804  0.00  0.00    -0.267 OA
ENDBRANCH   9  11
ENDBRANCH   1   7
BRANCH   4  16
ATOM     16  O3* UNL     1       9.687  -5.618  24.943  0.00  0.00    -0.386 OA
ATOM     17  H3* UNL     1       9.919  -5.870  24.025  0.00  0.00    +0.210 HD
ENDBRANCH   4  16
BRANCH   5  18
ATOM     18  O2* UNL     1      10.204  -3.188  23.976  0.00  0.00    -0.385 OA
ATOM     19  H2* UNL     1      10.264  -2.836  24.893  0.00  0.00    +0.210 HD
ENDBRANCH   5  18
BRANCH   3  20
ATOM     20  C5* UNL     1       7.390  -4.595  27.075  0.00  0.00    +0.190 C 
BRANCH  20  21
ATOM     21  O5* UNL     1       7.896  -5.881  27.444  0.00  0.00    -0.392 OA
ATOM     22  H5* UNL     1       7.195  -6.517  27.214  0.00  0.00    +0.210 HD
ENDBRANCH  20  21
ENDBRANCH   3  20
TORSDOF 6
ENDMDL
MODEL 3
REMARK VINA RESULT:      -5.9      2.217      2.348
REMARK  Name = 
REMARK  6 active torsions:
REMARK  status: ('A' for Active; 'I' for Inactive)
REMARK    1  A    between atoms: C_3  and  C_18
REMARK    2  A    between atoms: N_5  and  C1*_6
REMARK    3  A    between atoms: C2*_7  and  O2*_17
REMARK    4  A    between atoms: C3*_9  and  O3*_16
REMARK    5  A    between atoms: C4*_11  and  C5*_14
REMARK    6  A    between atoms: C5*_14  and  O5*_15
REMARK                            x       y       z     vdW  Elec       q    Type
REMARK                         _______ _______ _______ _____ _____    ______ ____
ROOT
ATOM      1  C1* UNL     1       9.232  -0.781  23.478  0.00  0.00    +0.270 C 
ATOM      2  O4* UNL     1       8.146   0.143  23.729  0.00  0.00    -0.344 OA
ATOM      3  C4* UNL     1       8.526   1.415  23.146  0.00  0.00    +0.177 C 
ATOM      4  C3* UNL     1       9.969   1.267  22.654  0.00  0.00    +0.178 C 
ATOM      5  C2* UNL     1      10.027  -0.213  22.301  0.00  0.00    +0.196 C 
ENDROOT
BRANCH   1   7
ATOM      6  C   UNL     1       9.094  -3.203  24.066  0.00  0.00    +0.223 A 
ATOM      7  N   UNL     1       8.691  -2.116  23.353  0.00  0.00    -0.220 N 
ATOM      8  N   UNL     1       7.770  -2.454  22.426  0.00  0.00    -0.142 NA
ATOM      9  C   UNL     1       7.639  -3.782  22.639  0.00  0.00    +0.236 A 
ATOM     10  N   UNL     1       8.465  -4.270  23.643  0.00  0.00    -0.211 NA
BRANCH   9  11
ATOM     11  C   UNL     1       6.728  -4.670  21.890  0.00  0.00    +0.281 C 
ATOM     12  N   UNL     1       7.167  -5.969  21.803  0.00  0.00    -0.323 N 
ATOM     13  H   UNL     1       6.604  -6.650  21.318  0.00  0.00    +0.145 HD
ATOM     14  H   UNL     1       8.043  -6.233  22.241  0.00  0.00    +0.145 HD
ATOM     15  O   UNL     1       5.668  -4.325  21.376  0.00  0.00    -0.267 OA
ENDBRANCH   9  11
ENDBRANCH   1   7
BRANCH   4  16
ATOM     16  O3* UNL     1      10.249   2.098  21.537  0.00  0.00    -0.386 OA
ATOM     17  H3* UNL     1      10.403   2.991  21.908  0.00  0.00    +0.210 HD
ENDBRANCH   4  16
BRANCH   5  18
ATOM     18  O2* UNL     1       9.397  -0.375  21.018  0.00  0.00    -0.385 OA
ATOM     19  H2* UNL     1       9.763   0.336  20.443  0.00  0.00    +0.210 HD
ENDBRANCH   5  18
BRANCH   3  20
ATOM     20  C5* UNL     1       8.365   2.494  24.214  0.00  0.00    +0.190 C 
BRANCH  20  21
ATOM     21  O5* UNL     1       9.483   3.385  24.177  0.00  0.00    -0.392 OA
ATOM     22  H5* UNL     1       9.816   3.355  23.263  0.00  0.00    +0.210 HD
ENDBRANCH  20  21
ENDBRANCH   3  20
TORSDOF 6
ENDMDL
MODEL 4
REMARK VINA RESULT:      -5.7      2.051      2.757
REMARK  Name = 
REMARK  6 active torsions:
REMARK  status: ('A' for Active; 'I' for Inactive)
REMARK    1  A    between atoms: C_3  and  C_18
REMARK    2  A    between atoms: N_5  and  C1*_6
REMARK    3  A    between atoms: C2*_7  and  O2*_17
REMARK    4  A    between atoms: C3*_9  and  O3*_16
REMARK    5  A    between atoms: C4*_11  and  C5*_14
REMARK    6  A    between atoms: C5*_14  and  O5*_15
REMARK                            x       y       z     vdW  Elec       q    Type
REMARK                         _______ _______ _______ _____ _____    ______ ____
ROOT
ATOM      1  C1* UNL     1       8.042  -1.571  22.593  0.00  0.00    +0.270 C 
ATOM      2  O4* UNL     1       9.307  -0.926  22.878  0.00  0.00    -0.344 OA
ATOM      3  C4* UNL     1       9.041   0.494  23.006  0.00  0.00    +0.177 C 
ATOM      4  C3* UNL     1       7.570   0.707  22.636  0.00  0.00    +0.178 C 
ATOM      5  C2* UNL     1       6.946  -0.613  23.065  0.00  0.00    +0.196 C 
ENDROOT
BRANCH   1   7
ATOM      6  C   UNL     1       7.454  -3.997  22.604  0.00  0.00    +0.223 A 
ATOM      7  N   UNL     1       8.063  -2.907  23.146  0.00  0.00    -0.220 N 
ATOM      8  N   UNL     1       8.625  -3.203  24.337  0.00  0.00    -0.142 NA
ATOM      9  C   UNL     1       8.333  -4.516  24.461  0.00  0.00    +0.236 A 
ATOM     10  N   UNL     1       7.593  -5.025  23.402  0.00  0.00    -0.211 NA
BRANCH   9  11
ATOM     11  C   UNL     1       8.731  -5.364  25.602  0.00  0.00    +0.281 C 
ATOM     12  N   UNL     1      10.079  -5.619  25.661  0.00  0.00    -0.323 N 
ATOM     13  H   UNL     1      10.443  -6.182  26.413  0.00  0.00    +0.145 HD
ATOM     14  H   UNL     1      10.696  -5.225  24.959  0.00  0.00    +0.145 HD
ATOM     15  O   UNL     1       7.963  -5.823  26.443  0.00  0.00    -0.267 OA
ENDBRANCH   9  11
ENDBRANCH   1   7
BRANCH   4  16
ATOM     16  O3* UNL     1       6.997   1.817  23.312  0.00  0.00    -0.386 OA
ATOM     17  H3* UNL     1       6.905   1.536  24.245  0.00  0.00    +0.210 HD
ENDBRANCH   4  16
BRANCH   5  18
ATOM     18  O2* UNL     1       6.768  -0.563  24.491  0.00  0.00    -0.385 OA
ATOM     19  H2* UNL     1       6.017   0.054  24.650  0.00  0.00    +0.210 HD
ENDBRANCH   5  18
BRANCH   3  20
ATOM     20  C5* UNL     1      10.004   1.242  22.089  0.00  0.00    +0.190 C 
BRANCH  20  21
ATOM     21  O5* UNL     1       9.296   2.242  21.351  0.00  0.00    -0.392 OA
ATOM     22  H5* UNL     1       8.787   2.746  22.010  0.00  0.00    +0.210 HD
ENDBRANCH  20  21
ENDBRANCH   3  20
TORSDOF 6
ENDMDL
MODEL 5
REMARK VINA RESULT:      -5.7      1.574      1.813
REMARK  Name = 
REMARK  6 active torsions:
REMARK  status: ('A' for Active; 'I' for Inactive)
REMARK    1  A    between atoms: C_3  and  C_18
REMARK    2  A    between atoms: N_5  and  C1*_6
REMARK    3  A    between atoms: C2*_7  and  O2*_17
REMARK    4  A    between atoms: C3*_9  and  O3*_16
REMARK    5  A    between atoms: C4*_11  and  C5*_14
REMARK    6  A    between atoms: C5*_14  and  O5*_15
REMARK                            x       y       z     vdW  Elec       q    Type
REMARK                         _______ _______ _______ _____ _____    ______ ____
ROOT
ATOM      1  C1* UNL     1       8.749  -0.575  23.614  0.00  0.00    +0.270 C 
ATOM      2  O4* UNL     1       7.586  -0.059  22.923  0.00  0.00    -0.344 OA
ATOM      3  C4* UNL     1       8.024   1.088  22.152  0.00  0.00    +0.177 C 
ATOM      4  C3* UNL     1       9.488   1.343  22.524  0.00  0.00    +0.178 C 
ATOM      5  C2* UNL     1       9.974  -0.061  22.855  0.00  0.00    +0.196 C 
ENDROOT
BRANCH   1   7
ATOM      6  C   UNL     1       7.897  -2.826  22.952  0.00  0.00    +0.223 A 
ATOM      7  N   UNL     1       8.599  -2.004  23.779  0.00  0.00    -0.220 N 
ATOM      8  N   UNL     1       9.076  -2.676  24.847  0.00  0.00    -0.142 NA
ATOM      9  C   UNL     1       8.637  -3.930  24.603  0.00  0.00    +0.236 A 
ATOM     10  N   UNL     1       7.889  -4.042  23.438  0.00  0.00    -0.211 NA
BRANCH   9  11
ATOM     11  C   UNL     1       8.891  -5.097  25.471  0.00  0.00    +0.281 C 
ATOM     12  N   UNL     1      10.215  -5.452  25.550  0.00  0.00    -0.323 N 
ATOM     13  H   UNL     1      10.485  -6.232  26.128  0.00  0.00    +0.145 HD
ATOM     14  H   UNL     1      10.910  -4.915  25.042  0.00  0.00    +0.145 HD
ATOM     15  O   UNL     1       8.031  -5.724  26.082  0.00  0.00    -0.267 OA
ENDBRANCH   9  11
ENDBRANCH   1   7
BRANCH   4  16
ATOM     16  O3* UNL     1      10.224   1.928  21.459  0.00  0.00    -0.386 OA
ATOM     17  H3* UNL     1      11.096   1.483  21.468  0.00  0.00    +0.210 HD
ENDBRANCH   4  16
BRANCH   5  18
ATOM     18  O2* UNL     1      10.233  -0.733  21.610  0.00  0.00    -0.385 OA
ATOM     19  H2* UNL     1      10.879  -1.447  21.816  0.00  0.00    +0.210 HD
ENDBRANCH   5  18
BRANCH   3  20
ATOM     20  C5* UNL     1       7.109   2.263  22.485  0.00  0.00    +0.190 C 
BRANCH  20  21
ATOM     21  O5* UNL     1       7.695   3.483  22.025  0.00  0.00    -0.392 OA
ATOM     22  H5* UNL     1       7.915   3.335  21.088  0.00  0.00    +0.210 HD
ENDBRANCH  20  21
ENDBRANCH   3  20
TORSDOF 6
ENDMDL
MODEL 6
REMARK VINA RESULT:      -5.6      1.567      2.296
REMARK  Name = 
REMARK  6 active torsions:
REMARK  status: ('A' for Active; 'I' for Inactive)
REMARK    1  A    between atoms: C_3  and  C_18
REMARK    2  A    between atoms: N_5  and  C1*_6
REMARK    3  A    between atoms: C2*_7  and  O2*_17
REMARK    4  A    between atoms: C3*_9  and  O3*_16
REMARK    5  A    between atoms: C4*_11  and  C5*_14
REMARK    6  A    between atoms: C5*_14  and  O5*_15
REMARK                            x       y       z     vdW  Elec       q    Type
REMARK                         _______ _______ _______ _____ _____    ______ ____
ROOT
ATOM      1  C1* UNL     1       8.397  -0.373  24.222  0.00  0.00    +0.270 C 
ATOM      2  O4* UNL     1       8.749  -0.008  22.865  0.00  0.00    -0.344 OA
ATOM      3  C4* UNL     1       8.944   1.429  22.849  0.00  0.00    +0.177 C 
ATOM      4  C3* UNL     1       8.545   1.950  24.234  0.00  0.00    +0.178 C 
ATOM      5  C2* UNL     1       8.887   0.763  25.122  0.00  0.00    +0.196 C 
ENDROOT
BRANCH   1   7
ATOM      6  C   UNL     1       9.794  -2.383  23.737  0.00  0.00    +0.223 A 
ATOM      7  N   UNL     1       8.880  -1.710  24.487  0.00  0.00    -0.220 N 
ATOM      8  N   UNL     1       8.393  -2.485  25.478  0.00  0.00    -0.142 NA
ATOM      9  C   UNL     1       9.074  -3.636  25.287  0.00  0.00    +0.236 A 
ATOM     10  N   UNL     1       9.938  -3.599  24.200  0.00  0.00    -0.211 NA
BRANCH   9  11
ATOM     11  C   UNL     1       8.934  -4.848  26.119  0.00  0.00    +0.281 C 
ATOM     12  N   UNL     1       9.689  -5.909  25.686  0.00  0.00    -0.323 N 
ATOM     13  H   UNL     1       9.665  -6.776  26.199  0.00  0.00    +0.145 HD
ATOM     14  H   UNL     1      10.277  -5.806  24.865  0.00  0.00    +0.145 HD
ATOM     15  O   UNL     1       8.221  -4.943  27.114  0.00  0.00    -0.267 OA
ENDBRANCH   9  11
ENDBRANCH   1   7
BRANCH   4  16
ATOM     16  O3* UNL     1       9.262   3.120  24.600  0.00  0.00    -0.386 OA
ATOM     17  H3* UNL     1       9.864   3.303  23.850  0.00  0.00    +0.210 HD
ENDBRANCH   4  16
BRANCH   5  18
ATOM     18  O2* UNL     1      10.309   0.783  25.340  0.00  0.00    -0.385 OA
ATOM     19  H2* UNL     1      10.521  -0.043  25.834  0.00  0.00    +0.210 HD
ENDBRANCH   5  18
BRANCH   3  20
ATOM     20  C5* UNL     1       8.093   2.011  21.723  0.00  0.00    +0.190 C 
BRANCH  20  21
ATOM     21  O5* UNL     1       7.983   3.428  21.879  0.00  0.00    -0.392 OA
ATOM     22  H5* UNL     1       7.582   3.755  21.054  0.00  0.00    +0.210 HD
ENDBRANCH  20  21
ENDBRANCH   3  20
TORSDOF 6
ENDMDL
MODEL 7
REMARK VINA RESULT:      -5.4      2.318      6.264
REMARK  Name = 
REMARK  6 active torsions:
REMARK  status: ('A' for Active; 'I' for Inactive)
REMARK    1  A    between atoms: C_3  and  C_18
REMARK    2  A    between atoms: N_5  and  C1*_6
REMARK    3  A    between atoms: C2*_7  and  O2*_17
REMARK    4  A    between atoms: C3*_9  and  O3*_16
REMARK    5  A    between atoms: C4*_11  and  C5*_14
REMARK    6  A    between atoms: C5*_14  and  O5*_15
REMARK                            x       y       z     vdW  Elec       q    Type
REMARK                         _______ _______ _______ _____ _____    ______ ____
ROOT
ATOM      1  C1* UNL     1       8.481  -2.400  24.700  0.00  0.00    +0.270 C 
ATOM      2  O4* UNL     1       9.447  -3.477  24.646  0.00  0.00    -0.344 OA
ATOM      3  C4* UNL     1       8.698  -4.718  24.593  0.00  0.00    +0.177 C 
ATOM      4  C3* UNL     1       7.220  -4.354  24.770  0.00  0.00    +0.178 C 
ATOM      5  C2* UNL     1       7.166  -2.963  24.156  0.00  0.00    +0.196 C 
ENDROOT
BRANCH   1   7
ATOM      6  C   UNL     1      10.216  -0.634  24.388  0.00  0.00    +0.223 A 
ATOM      7  N   UNL     1       9.043  -1.235  24.053  0.00  0.00    -0.220 N 
ATOM      8  N   UNL     1       8.400  -0.549  23.085  0.00  0.00    -0.142 NA
ATOM      9  C   UNL     1       9.256   0.471  22.855  0.00  0.00    +0.236 A 
ATOM     10  N   UNL     1      10.384   0.446  23.666  0.00  0.00    -0.211 NA
BRANCH   9  11
ATOM     11  C   UNL     1       9.047   1.540  21.859  0.00  0.00    +0.281 C 
ATOM     12  N   UNL     1      10.140   2.350  21.676  0.00  0.00    -0.323 N 
ATOM     13  H   UNL     1      10.093   3.102  21.007  0.00  0.00    +0.145 HD
ATOM     14  H   UNL     1      10.989   2.173  22.202  0.00  0.00    +0.145 HD
ATOM     15  O   UNL     1       8.009   1.727  21.230  0.00  0.00    -0.267 OA
ENDBRANCH   9  11
ENDBRANCH   1   7
BRANCH   4  16
ATOM     16  O3* UNL     1       6.355  -5.267  24.109  0.00  0.00    -0.386 OA
ATOM     17  H3* UNL     1       6.150  -5.959  24.771  0.00  0.00    +0.210 HD
ENDBRANCH   4  16
BRANCH   5  18
ATOM     18  O2* UNL     1       7.129  -3.122  22.727  0.00  0.00    -0.385 OA
ATOM     19  H2* UNL     1       6.215  -3.416  22.510  0.00  0.00    +0.210 HD
ENDBRANCH   5  18
BRANCH   3  20
ATOM     20  C5* UNL     1       9.224  -5.638  25.692  0.00  0.00    +0.190 C 
BRANCH  20  21
ATOM     21  O5* UNL     1       8.188  -5.904  26.641  0.00  0.00    -0.392 OA
ATOM     22  H5* UNL     1       8.587  -6.484  27.313  0.00  0.00    +0.210 HD
ENDBRANCH  20  21
ENDBRANCH   3  20
TORSDOF 6
ENDMDL
MODEL 8
REMARK VINA RESULT:      -5.3      3.036      6.570
REMARK  Name = 
REMARK  6 active torsions:
REMARK  status: ('A' for Active; 'I' for Inactive)
REMARK    1  A    between atoms: C_3  and  C_18
REMARK    2  A    between atoms: N_5  and  C1*_6
REMARK    3  A    between atoms: C2*_7  and  O2*_17
REMARK    4  A    between atoms: C3*_9  and  O3*_16
REMARK    5  A    between atoms: C4*_11  and  C5*_14
REMARK    6  A    between atoms: C5*_14  and  O5*_15
REMARK                            x       y       z     vdW  Elec       q    Type
REMARK                         _______ _______ _______ _____ _____    ______ ____
ROOT
ATOM      1  C1* UNL     1       7.985  -2.925  23.245  0.00  0.00    +0.270 C 
ATOM      2  O4* UNL     1       7.682  -3.567  21.983  0.00  0.00    -0.344 OA
ATOM      3  C4* UNL     1       6.445  -4.302  22.167  0.00  0.00    +0.177 C 
ATOM      4  C3* UNL     1       6.083  -4.202  23.652  0.00  0.00    +0.178 C 
ATOM      5  C2* UNL     1       6.672  -2.849  24.025  0.00  0.00    +0.196 C 
ENDROOT
BRANCH   1   7
ATOM      6  C   UNL     1       9.974  -1.422  23.360  0.00  0.00    +0.223 A 
ATOM      7  N   UNL     1       8.695  -1.692  22.984  0.00  0.00    -0.220 N 
ATOM      8  N   UNL     1       8.118  -0.618  22.405  0.00  0.00    -0.142 NA
ATOM      9  C   UNL     1       9.119   0.288  22.445  0.00  0.00    +0.236 A 
ATOM     10  N   UNL     1      10.277  -0.187  23.049  0.00  0.00    -0.211 NA
BRANCH   9  11
ATOM     11  C   UNL     1       9.032   1.665  21.921  0.00  0.00    +0.281 C 
ATOM     12  N   UNL     1      10.252   2.258  21.712  0.00  0.00    -0.323 N 
ATOM     13  H   UNL     1      10.291   3.196  21.346  0.00  0.00    +0.145 HD
ATOM     14  H   UNL     1      11.102   1.741  21.910  0.00  0.00    +0.145 HD
ATOM     15  O   UNL     1       7.988   2.265  21.682  0.00  0.00    -0.267 OA
ENDBRANCH   9  11
ENDBRANCH   1   7
BRANCH   4  16
ATOM     16  O3* UNL     1       4.681  -4.258  23.873  0.00  0.00    -0.386 OA
ATOM     17  H3* UNL     1       4.320  -4.788  23.132  0.00  0.00    +0.210 HD
ENDBRANCH   4  16
BRANCH   5  18
ATOM     18  O2* UNL     1       5.758  -1.839  23.562  0.00  0.00    -0.385 OA
ATOM     19  H2* UNL     1       6.035  -1.001  23.999  0.00  0.00    +0.210 HD
ENDBRANCH   5  18
BRANCH   3  20
ATOM     20  C5* UNL     1       6.672  -5.738  21.701  0.00  0.00    +0.190 C 
BRANCH  20  21
ATOM     21  O5* UNL     1       5.497  -6.518  21.937  0.00  0.00    -0.392 OA
ATOM     22  H5* UNL     1       5.547  -7.266  21.317  0.00  0.00    +0.210 HD
ENDBRANCH  20  21
ENDBRANCH   3  20
TORSDOF 6
ENDMDL
MODEL 9
REMARK VINA RESULT:      -5.2      2.401      3.183
REMARK  Name = 
REMARK  6 active torsions:
REMARK  status: ('A' for Active; 'I' for Inactive)
REMARK    1  A    between atoms: C_3  and  C_18
REMARK    2  A    between atoms: N_5  and  C1*_6
REMARK    3  A    between atoms: C2*_7  and  O2*_17
REMARK    4  A    between atoms: C3*_9  and  O3*_16
REMARK    5  A    between atoms: C4*_11  and  C5*_14
REMARK    6  A    between atoms: C5*_14  and  O5*_15
REMARK                            x       y       z     vdW  Elec       q    Type
REMARK                         _______ _______ _______ _____ _____    ______ ____
ROOT
ATOM      1  C1* UNL     1       9.351  -2.854  24.288  0.00  0.00    +0.270 C 
ATOM      2  O4* UNL     1       9.292  -1.495  24.783  0.00  0.00    -0.344 OA
ATOM      3  C4* UNL     1       9.504  -0.619  23.647  0.00  0.00    +0.177 C 
ATOM      4  C3* UNL     1       9.848  -1.514  22.452  0.00  0.00    +0.178 C 
ATOM      5  C2* UNL     1       9.079  -2.785  22.784  0.00  0.00    +0.196 C 
ENDROOT
BRANCH   1   7
ATOM      6  C   UNL     1       8.688  -3.990  26.409  0.00  0.00    +0.223 A 
ATOM      7  N   UNL     1       8.488  -3.685  25.098  0.00  0.00    -0.220 N 
ATOM      8  N   UNL     1       7.416  -4.338  24.602  0.00  0.00    -0.142 NA
ATOM      9  C   UNL     1       6.987  -5.025  25.683  0.00  0.00    +0.236 A 
ATOM     10  N   UNL     1       7.773  -4.835  26.813  0.00  0.00    -0.211 NA
BRANCH   9  11
ATOM     11  C   UNL     1       5.810  -5.916  25.704  0.00  0.00    +0.281 C 
ATOM     12  N   UNL     1       5.640  -6.584  26.892  0.00  0.00    -0.323 N 
ATOM     13  H   UNL     1       4.856  -7.206  27.002  0.00  0.00    +0.145 HD
ATOM     14  H   UNL     1       6.295  -6.430  27.652  0.00  0.00    +0.145 HD
ATOM     15  O   UNL     1       5.028  -6.076  24.771  0.00  0.00    -0.267 OA
ENDBRANCH   9  11
ENDBRANCH   1   7
BRANCH   4  16
ATOM     16  O3* UNL     1       9.440  -0.946  21.215  0.00  0.00    -0.386 OA
ATOM     17  H3* UNL     1       8.584  -0.507  21.399  0.00  0.00    +0.210 HD
ENDBRANCH   4  16
BRANCH   5  18
ATOM     18  O2* UNL     1       7.702  -2.560  22.433  0.00  0.00    -0.385 OA
ATOM     19  H2* UNL     1       7.220  -2.444  23.284  0.00  0.00    +0.210 HD
ENDBRANCH   5  18
BRANCH   3  20
ATOM     20  C5* UNL     1      10.621   0.359  24.003  0.00  0.00    +0.190 C 
BRANCH  20  21
ATOM     21  O5* UNL     1      10.649   0.572  25.416  0.00  0.00    -0.392 OA
ATOM     22  H5* UNL     1      11.226   1.344  25.557  0.00  0.00    +0.210 HD
ENDBRANCH  20  21
ENDBRANCH   3  20
TORSDOF 6
ENDMDL
