MODEL 1
REMARK VINA RESULT:      -3.3      0.000      0.000
REMARK  Name = 
REMARK  1 active torsions:
REMARK  status: ('A' for Active; 'I' for Inactive)
REMARK    1  A    between atoms: C_1  and  P_4
REMARK                            x       y       z     vdW  Elec       q    Type
REMARK                         _______ _______ _______ _____ _____    ______ ____
ROOT
ATOM      1  P   UNL     1       7.955  -5.120  26.409  0.00  0.00    +0.153 P 
ATOM      2  O   UNL     1       7.077  -5.113  27.900  0.00  0.00    -0.353 OA
ATOM      3  O   UNL     1       6.669  -5.319  25.542  0.00  0.00    -0.353 OA
ATOM      4  O   UNL     1       8.551  -3.694  26.642  0.00  0.00    -0.455 OA
ENDROOT
BRANCH   1   5
ATOM      5  C   UNL     1       8.882  -5.127  24.831  0.00  0.00    +0.102 C 
ATOM      6  O   UNL     1      10.166  -4.843  24.919  0.00  0.00    -0.542 OA
ATOM      7  O   UNL     1       8.399  -5.382  23.640  0.00  0.00    -0.542 OA
ENDBRANCH   1   5
TORSDOF 1
ENDMDL
MODEL 2
REMARK VINA RESULT:      -3.2      1.350      3.149
REMARK  Name = 
REMARK  1 active torsions:
REMARK  status: ('A' for Active; 'I' for Inactive)
REMARK    1  A    between atoms: C_1  and  P_4
REMARK                            x       y       z     vdW  Elec       q    Type
REMARK                         _______ _______ _______ _____ _____    ______ ____
ROOT
ATOM      1  P   UNL     1       8.900  -4.418  25.137  0.00  0.00    +0.153 P 
ATOM      2  O   UNL     1      10.093  -3.578  24.206  0.00  0.00    -0.353 OA
ATOM      3  O   UNL     1       8.474  -5.333  23.943  0.00  0.00    -0.353 OA
ATOM      4  O   UNL     1       9.937  -4.914  26.196  0.00  0.00    -0.455 OA
ENDROOT
BRANCH   1   5
ATOM      5  C   UNL     1       7.639  -5.307  26.120  0.00  0.00    +0.102 C 
ATOM      6  O   UNL     1       6.525  -5.610  25.486  0.00  0.00    -0.542 OA
ATOM      7  O   UNL     1       7.736  -5.664  27.378  0.00  0.00    -0.542 OA
ENDBRANCH   1   5
TORSDOF 1
ENDMDL
MODEL 3
REMARK VINA RESULT:      -3.2      3.169      4.530
REMARK  Name = 
REMARK  1 active torsions:
REMARK  status: ('A' for Active; 'I' for Inactive)
REMARK    1  A    between atoms: C_1  and  P_4
REMARK                            x       y       z     vdW  Elec       q    Type
REMARK                         _______ _______ _______ _____ _____    ______ ____
ROOT
ATOM      1  P   UNL     1       7.165  -4.932  23.044  0.00  0.00    +0.153 P 
ATOM      2  O   UNL     1       8.628  -5.391  23.845  0.00  0.00    -0.353 OA
ATOM      3  O   UNL     1       7.720  -3.534  22.622  0.00  0.00    -0.353 OA
ATOM      4  O   UNL     1       7.211  -6.145  22.059  0.00  0.00    -0.455 OA
ENDROOT
BRANCH   1   5
ATOM      5  C   UNL     1       5.617  -4.448  22.198  0.00  0.00    +0.102 C 
ATOM      6  O   UNL     1       5.763  -3.832  21.042  0.00  0.00    -0.542 OA
ATOM      7  O   UNL     1       4.394  -4.651  22.625  0.00  0.00    -0.542 OA
ENDBRANCH   1   5
TORSDOF 1
ENDMDL
MODEL 4
REMARK VINA RESULT:      -3.2      3.937      5.075
REMARK  Name = 
REMARK  1 active torsions:
REMARK  status: ('A' for Active; 'I' for Inactive)
REMARK    1  A    between atoms: C_1  and  P_4
REMARK                            x       y       z     vdW  Elec       q    Type
REMARK                         _______ _______ _______ _____ _____    ______ ____
ROOT
ATOM      1  P   UNL     1       9.360  -1.295  22.609  0.00  0.00    +0.153 P 
ATOM      2  O   UNL     1       9.335  -0.349  21.161  0.00  0.00    -0.353 OA
ATOM      3  O   UNL     1       8.094  -2.119  22.208  0.00  0.00    -0.353 OA
ATOM      4  O   UNL     1      10.796  -1.848  22.337  0.00  0.00    -0.455 OA
ENDROOT
BRANCH   1   5
ATOM      5  C   UNL     1       9.387  -2.295  24.141  0.00  0.00    +0.102 C 
ATOM      6  O   UNL     1      10.080  -3.413  24.085  0.00  0.00    -0.542 OA
ATOM      7  O   UNL     1       8.789  -2.010  25.273  0.00  0.00    -0.542 OA
ENDBRANCH   1   5
TORSDOF 1
ENDMDL
MODEL 5
REMARK VINA RESULT:      -3.1      4.669      5.409
REMARK  Name = 
REMARK  1 active torsions:
REMARK  status: ('A' for Active; 'I' for Inactive)
REMARK    1  A    between atoms: C_1  and  P_4
REMARK                            x       y       z     vdW  Elec       q    Type
REMARK                         _______ _______ _______ _____ _____    ______ ____
ROOT
ATOM      1  P   UNL     1       9.540  -1.847  23.289  0.00  0.00    +0.153 P 
ATOM      2  O   UNL     1      10.109  -3.282  24.071  0.00  0.00    -0.353 OA
ATOM      3  O   UNL     1       9.613  -0.991  24.595  0.00  0.00    -0.353 OA
ATOM      4  O   UNL     1      10.710  -1.832  22.253  0.00  0.00    -0.455 OA
ENDROOT
BRANCH   1   5
ATOM      5  C   UNL     1       8.938  -0.329  22.463  0.00  0.00    +0.102 C 
ATOM      6  O   UNL     1       9.718   0.159  21.521  0.00  0.00    -0.542 OA
ATOM      7  O   UNL     1       7.821   0.309  22.716  0.00  0.00    -0.542 OA
ENDBRANCH   1   5
TORSDOF 1
ENDMDL
MODEL 6
REMARK VINA RESULT:      -3.1      4.340      5.393
REMARK  Name = 
REMARK  1 active torsions:
REMARK  status: ('A' for Active; 'I' for Inactive)
REMARK    1  A    between atoms: C_1  and  P_4
REMARK                            x       y       z     vdW  Elec       q    Type
REMARK                         _______ _______ _______ _____ _____    ______ ____
ROOT
ATOM      1  P   UNL     1       9.755  -0.774  22.944  0.00  0.00    +0.153 P 
ATOM      2  O   UNL     1       9.969   0.448  21.738  0.00  0.00    -0.353 OA
ATOM      3  O   UNL     1      10.673  -1.800  22.204  0.00  0.00    -0.353 OA
ATOM      4  O   UNL     1      10.319   0.124  24.092  0.00  0.00    -0.455 OA
ENDROOT
BRANCH   1   5
ATOM      5  C   UNL     1       9.528  -2.067  24.219  0.00  0.00    +0.102 C 
ATOM      6  O   UNL     1      10.127  -3.216  23.984  0.00  0.00    -0.542 OA
ATOM      7  O   UNL     1       8.837  -1.960  25.328  0.00  0.00    -0.542 OA
ENDBRANCH   1   5
TORSDOF 1
ENDMDL
MODEL 7
REMARK VINA RESULT:      -3.1      1.693      2.500
REMARK  Name = 
REMARK  1 active torsions:
REMARK  status: ('A' for Active; 'I' for Inactive)
REMARK    1  A    between atoms: C_1  and  P_4
REMARK                            x       y       z     vdW  Elec       q    Type
REMARK                         _______ _______ _______ _____ _____    ______ ____
ROOT
ATOM      1  P   UNL     1       8.346  -4.641  25.365  0.00  0.00    +0.153 P 
ATOM      2  O   UNL     1       7.782  -5.838  26.480  0.00  0.00    -0.353 OA
ATOM      3  O   UNL     1       8.743  -3.637  26.496  0.00  0.00    -0.353 OA
ATOM      4  O   UNL     1       9.409  -5.595  24.730  0.00  0.00    -0.455 OA
ENDROOT
BRANCH   1   5
ATOM      5  C   UNL     1       8.943  -3.375  24.187  0.00  0.00    +0.102 C 
ATOM      6  O   UNL     1       8.010  -2.693  23.556  0.00  0.00    -0.542 OA
ATOM      7  O   UNL     1      10.193  -3.087  23.914  0.00  0.00    -0.542 OA
ENDBRANCH   1   5
TORSDOF 1
ENDMDL
MODEL 8
REMARK VINA RESULT:      -3.1      3.105      3.954
REMARK  Name = 
REMARK  1 active torsions:
REMARK  status: ('A' for Active; 'I' for Inactive)
REMARK    1  A    between atoms: C_1  and  P_4
REMARK                            x       y       z     vdW  Elec       q    Type
REMARK                         _______ _______ _______ _____ _____    ______ ____
ROOT
ATOM      1  P   UNL     1       8.753  -3.053  24.057  0.00  0.00    +0.153 P 
ATOM      2  O   UNL     1       7.622  -4.293  24.478  0.00  0.00    -0.353 OA
ATOM      3  O   UNL     1       9.996  -3.936  24.403  0.00  0.00    -0.353 OA
ATOM      4  O   UNL     1       8.231  -2.943  22.587  0.00  0.00    -0.455 OA
ENDROOT
BRANCH   1   5
ATOM      5  C   UNL     1       9.949  -1.742  23.611  0.00  0.00    +0.102 C 
ATOM      6  O   UNL     1      10.568  -1.898  22.459  0.00  0.00    -0.542 OA
ATOM      7  O   UNL     1      10.245  -0.679  24.318  0.00  0.00    -0.542 OA
ENDBRANCH   1   5
TORSDOF 1
ENDMDL
MODEL 9
REMARK VINA RESULT:      -3.1      1.215      3.217
REMARK  Name = 
REMARK  1 active torsions:
REMARK  status: ('A' for Active; 'I' for Inactive)
REMARK    1  A    between atoms: C_1  and  P_4
REMARK                            x       y       z     vdW  Elec       q    Type
REMARK                         _______ _______ _______ _____ _____    ______ ____
ROOT
ATOM      1  P   UNL     1       8.680  -5.075  25.696  0.00  0.00    +0.153 P 
ATOM      2  O   UNL     1      10.102  -4.697  24.787  0.00  0.00    -0.353 OA
ATOM      3  O   UNL     1       8.809  -3.810  26.606  0.00  0.00    -0.353 OA
ATOM      4  O   UNL     1       7.755  -5.065  24.436  0.00  0.00    -0.455 OA
ENDROOT
BRANCH   1   5
ATOM      5  C   UNL     1       7.175  -5.474  26.658  0.00  0.00    +0.102 C 
ATOM      6  O   UNL     1       7.101  -4.935  27.858  0.00  0.00    -0.542 OA
ATOM      7  O   UNL     1       6.179  -6.234  26.274  0.00  0.00    -0.542 OA
ENDBRANCH   1   5
TORSDOF 1
ENDMDL
