MODEL 1
REMARK VINA RESULT:      -5.9      0.000      0.000
REMARK  Name = 
REMARK  4 active torsions:
REMARK  status: ('A' for Active; 'I' for Inactive)
REMARK    1  A    between atoms: C_1  and  C_2
REMARK    2  A    between atoms: N_4  and  C_10
REMARK    3  A    between atoms: C_14  and  C_17
REMARK    4  A    between atoms: C_17  and  O_18
REMARK                            x       y       z     vdW  Elec       q    Type
REMARK                         _______ _______ _______ _____ _____    ______ ____
ROOT
ATOM      1  C   UNL     1       5.598  -3.770  27.477  0.00  0.00    +0.051 C 
ATOM      2  C   UNL     1       6.872  -4.011  26.732  0.00  0.00    +0.030 A 
ATOM      3  C   UNL     1       7.646  -5.216  27.111  0.00  0.00    +0.257 A 
ATOM      4  O   UNL     1       7.239  -6.019  27.942  0.00  0.00    -0.267 OA
ATOM      5  N   UNL     1       8.834  -5.381  26.468  0.00  0.00    -0.275 N 
ATOM      6  H   UNL     1       9.365  -6.209  26.694  0.00  0.00    +0.173 HD
ATOM      7  C   UNL     1       9.303  -4.621  25.436  0.00  0.00    +0.332 A 
ATOM      8  O   UNL     1      10.338  -4.948  24.856  0.00  0.00    -0.246 OA
ATOM      9  N   UNL     1       8.535  -3.512  25.097  0.00  0.00    -0.270 N 
ATOM     10  C   UNL     1       7.349  -3.232  25.750  0.00  0.00    +0.102 A 
ENDROOT
BRANCH   9  11
ATOM     11  C   UNL     1       9.006  -2.743  23.960  0.00  0.00    +0.248 C 
ATOM     12  O   UNL     1       9.991  -1.737  24.307  0.00  0.00    -0.343 OA
ATOM     13  C   UNL     1       9.824  -0.692  23.308  0.00  0.00    +0.169 C 
ATOM     14  C   UNL     1       8.367  -0.748  22.996  0.00  0.00    +0.007 C 
ATOM     15  C   UNL     1       7.897  -1.942  23.366  0.00  0.00    +0.025 C 
BRANCH  13  16
ATOM     16  C   UNL     1      10.342   0.660  23.810  0.00  0.00    +0.191 C 
BRANCH  16  17
ATOM     17  O   UNL     1      10.563   0.672  25.216  0.00  0.00    -0.392 OA
ATOM     18  H   UNL     1      10.861  -0.228  25.444  0.00  0.00    +0.210 HD
ENDBRANCH  16  17
ENDBRANCH  13  16
ENDBRANCH   9  11
TORSDOF 3
ENDMDL
MODEL 2
REMARK VINA RESULT:      -5.8      1.942      2.143
REMARK  Name = 
REMARK  4 active torsions:
REMARK  status: ('A' for Active; 'I' for Inactive)
REMARK    1  A    between atoms: C_1  and  C_2
REMARK    2  A    between atoms: N_4  and  C_10
REMARK    3  A    between atoms: C_14  and  C_17
REMARK    4  A    between atoms: C_17  and  O_18
REMARK                            x       y       z     vdW  Elec       q    Type
REMARK                         _______ _______ _______ _____ _____    ______ ____
ROOT
ATOM      1  C   UNL     1       4.941  -3.468  23.334  0.00  0.00    +0.051 C 
ATOM      2  C   UNL     1       6.375  -3.677  23.703  0.00  0.00    +0.030 A 
ATOM      3  C   UNL     1       6.705  -4.943  24.398  0.00  0.00    +0.257 A 
ATOM      4  O   UNL     1       5.867  -5.813  24.604  0.00  0.00    -0.267 OA
ATOM      5  N   UNL     1       8.002  -5.084  24.783  0.00  0.00    -0.275 N 
ATOM      6  H   UNL     1       8.253  -5.950  25.236  0.00  0.00    +0.173 HD
ATOM      7  C   UNL     1       9.029  -4.239  24.477  0.00  0.00    +0.332 A 
ATOM      8  O   UNL     1      10.183  -4.541  24.781  0.00  0.00    -0.246 OA
ATOM      9  N   UNL     1       8.679  -3.073  23.804  0.00  0.00    -0.270 N 
ATOM     10  C   UNL     1       7.370  -2.818  23.439  0.00  0.00    +0.102 A 
ENDROOT
BRANCH   9  11
ATOM     11  C   UNL     1       9.783  -2.207  23.428  0.00  0.00    +0.248 C 
ATOM     12  O   UNL     1       9.991  -1.101  24.342  0.00  0.00    -0.343 OA
ATOM     13  C   UNL     1      10.571  -0.046  23.524  0.00  0.00    +0.169 C 
ATOM     14  C   UNL     1       9.952  -0.272  22.187  0.00  0.00    +0.007 C 
ATOM     15  C   UNL     1       9.504  -1.528  22.130  0.00  0.00    +0.025 C 
BRANCH  13  16
ATOM     16  C   UNL     1      10.340   1.339  24.136  0.00  0.00    +0.191 C 
BRANCH  16  17
ATOM     17  O   UNL     1       9.436   1.306  25.236  0.00  0.00    -0.392 OA
ATOM     18  H   UNL     1       8.544   1.328  24.844  0.00  0.00    +0.210 HD
ENDBRANCH  16  17
ENDBRANCH  13  16
ENDBRANCH   9  11
TORSDOF 3
ENDMDL
MODEL 3
REMARK VINA RESULT:      -5.5      2.805      5.590
REMARK  Name = 
REMARK  4 active torsions:
REMARK  status: ('A' for Active; 'I' for Inactive)
REMARK    1  A    between atoms: C_1  and  C_2
REMARK    2  A    between atoms: N_4  and  C_10
REMARK    3  A    between atoms: C_14  and  C_17
REMARK    4  A    between atoms: C_17  and  O_18
REMARK                            x       y       z     vdW  Elec       q    Type
REMARK                         _______ _______ _______ _____ _____    ______ ____
ROOT
ATOM      1  C   UNL     1       9.768   1.105  21.839  0.00  0.00    +0.051 C 
ATOM      2  C   UNL     1       9.415   0.157  22.939  0.00  0.00    +0.030 A 
ATOM      3  C   UNL     1      10.097   0.360  24.238  0.00  0.00    +0.257 A 
ATOM      4  O   UNL     1      10.862   1.298  24.434  0.00  0.00    -0.267 OA
ATOM      5  N   UNL     1       9.811  -0.553  25.205  0.00  0.00    -0.275 N 
ATOM      6  H   UNL     1      10.247  -0.417  26.105  0.00  0.00    +0.173 HD
ATOM      7  C   UNL     1       8.874  -1.542  25.127  0.00  0.00    +0.332 A 
ATOM      8  O   UNL     1       8.623  -2.228  26.117  0.00  0.00    -0.246 OA
ATOM      9  N   UNL     1       8.241  -1.685  23.896  0.00  0.00    -0.270 N 
ATOM     10  C   UNL     1       8.526  -0.843  22.838  0.00  0.00    +0.102 A 
ENDROOT
BRANCH   9  11
ATOM     11  C   UNL     1       7.202  -2.698  23.837  0.00  0.00    +0.248 C 
ATOM     12  O   UNL     1       7.656  -3.964  23.294  0.00  0.00    -0.343 OA
ATOM     13  C   UNL     1       6.473  -4.553  22.683  0.00  0.00    +0.169 C 
ATOM     14  C   UNL     1       5.703  -3.365  22.217  0.00  0.00    +0.007 C 
ATOM     15  C   UNL     1       6.120  -2.293  22.894  0.00  0.00    +0.025 C 
BRANCH  13  16
ATOM     16  C   UNL     1       6.841  -5.571  21.600  0.00  0.00    +0.191 C 
BRANCH  16  17
ATOM     17  O   UNL     1       6.000  -5.478  20.455  0.00  0.00    -0.392 OA
ATOM     18  H   UNL     1       5.269  -4.887  20.713  0.00  0.00    +0.210 HD
ENDBRANCH  16  17
ENDBRANCH  13  16
ENDBRANCH   9  11
TORSDOF 3
ENDMDL
MODEL 4
REMARK VINA RESULT:      -5.4      3.029      6.022
REMARK  Name = 
REMARK  4 active torsions:
REMARK  status: ('A' for Active; 'I' for Inactive)
REMARK    1  A    between atoms: C_1  and  C_2
REMARK    2  A    between atoms: N_4  and  C_10
REMARK    3  A    between atoms: C_14  and  C_17
REMARK    4  A    between atoms: C_17  and  O_18
REMARK                            x       y       z     vdW  Elec       q    Type
REMARK                         _______ _______ _______ _____ _____    ______ ____
ROOT
ATOM      1  C   UNL     1       6.496   1.661  22.737  0.00  0.00    +0.051 C 
ATOM      2  C   UNL     1       7.577   0.635  22.629  0.00  0.00    +0.030 A 
ATOM      3  C   UNL     1       8.887   1.099  22.120  0.00  0.00    +0.257 A 
ATOM      4  O   UNL     1       9.108   2.277  21.862  0.00  0.00    -0.267 OA
ATOM      5  N   UNL     1       9.837   0.137  21.967  0.00  0.00    -0.275 N 
ATOM      6  H   UNL     1      10.745   0.438  21.644  0.00  0.00    +0.173 HD
ATOM      7  C   UNL     1       9.731  -1.167  22.356  0.00  0.00    +0.332 A 
ATOM      8  O   UNL     1      10.707  -1.911  22.274  0.00  0.00    -0.246 OA
ATOM      9  N   UNL     1       8.490  -1.557  22.850  0.00  0.00    -0.270 N 
ATOM     10  C   UNL     1       7.448  -0.656  22.970  0.00  0.00    +0.102 A 
ENDROOT
BRANCH   9  11
ATOM     11  C   UNL     1       8.402  -2.929  23.318  0.00  0.00    +0.248 C 
ATOM     12  O   UNL     1       7.672  -3.803  22.421  0.00  0.00    -0.343 OA
ATOM     13  C   UNL     1       7.103  -4.829  23.282  0.00  0.00    +0.169 C 
ATOM     14  C   UNL     1       6.854  -4.102  24.560  0.00  0.00    +0.007 C 
ATOM     15  C   UNL     1       7.615  -3.007  24.583  0.00  0.00    +0.025 C 
BRANCH  13  16
ATOM     16  C   UNL     1       5.876  -5.488  22.645  0.00  0.00    +0.191 C 
BRANCH  16  17
ATOM     17  O   UNL     1       6.194  -6.707  21.981  0.00  0.00    -0.392 OA
ATOM     18  H   UNL     1       5.941  -7.417  22.600  0.00  0.00    +0.210 HD
ENDBRANCH  16  17
ENDBRANCH  13  16
ENDBRANCH   9  11
TORSDOF 3
ENDMDL
MODEL 5
REMARK VINA RESULT:      -5.4      2.309      3.318
REMARK  Name = 
REMARK  4 active torsions:
REMARK  status: ('A' for Active; 'I' for Inactive)
REMARK    1  A    between atoms: C_1  and  C_2
REMARK    2  A    between atoms: N_4  and  C_10
REMARK    3  A    between atoms: C_14  and  C_17
REMARK    4  A    between atoms: C_17  and  O_18
REMARK                            x       y       z     vdW  Elec       q    Type
REMARK                         _______ _______ _______ _____ _____    ______ ____
ROOT
ATOM      1  C   UNL     1       7.203  -1.543  26.789  0.00  0.00    +0.051 C 
ATOM      2  C   UNL     1       8.200  -1.665  25.681  0.00  0.00    +0.030 A 
ATOM      3  C   UNL     1       8.446  -3.026  25.153  0.00  0.00    +0.257 A 
ATOM      4  O   UNL     1       7.818  -4.003  25.547  0.00  0.00    -0.267 OA
ATOM      5  N   UNL     1       9.404  -3.124  24.192  0.00  0.00    -0.275 N 
ATOM      6  H   UNL     1       9.568  -4.039  23.802  0.00  0.00    +0.173 HD
ATOM      7  C   UNL     1      10.053  -2.082  23.594  0.00  0.00    +0.332 A 
ATOM      8  O   UNL     1      10.812  -2.295  22.650  0.00  0.00    -0.246 OA
ATOM      9  N   UNL     1       9.777  -0.818  24.106  0.00  0.00    -0.270 N 
ATOM     10  C   UNL     1       8.869  -0.640  25.132  0.00  0.00    +0.102 A 
ENDROOT
BRANCH   9  11
ATOM     11  C   UNL     1      10.424   0.290  23.426  0.00  0.00    +0.248 C 
ATOM     12  O   UNL     1      10.420   1.522  24.191  0.00  0.00    -0.343 OA
ATOM     13  C   UNL     1      10.433   2.581  23.192  0.00  0.00    +0.169 C 
ATOM     14  C   UNL     1       9.677   1.985  22.054  0.00  0.00    +0.007 C 
ATOM     15  C   UNL     1       9.680   0.657  22.187  0.00  0.00    +0.025 C 
BRANCH  13  16
ATOM     16  C   UNL     1       9.872   3.892  23.748  0.00  0.00    +0.191 C 
BRANCH  16  17
ATOM     17  O   UNL     1      10.624   5.028  23.332  0.00  0.00    -0.392 OA
ATOM     18  H   UNL     1      10.091   5.804  23.585  0.00  0.00    +0.210 HD
ENDBRANCH  16  17
ENDBRANCH  13  16
ENDBRANCH   9  11
TORSDOF 3
ENDMDL
MODEL 6
REMARK VINA RESULT:      -5.3      3.122      6.423
REMARK  Name = 
REMARK  4 active torsions:
REMARK  status: ('A' for Active; 'I' for Inactive)
REMARK    1  A    between atoms: C_1  and  C_2
REMARK    2  A    between atoms: N_4  and  C_10
REMARK    3  A    between atoms: C_14  and  C_17
REMARK    4  A    between atoms: C_17  and  O_18
REMARK                            x       y       z     vdW  Elec       q    Type
REMARK                         _______ _______ _______ _____ _____    ______ ____
ROOT
ATOM      1  C   UNL     1       7.493  -3.864  22.437  0.00  0.00    +0.051 C 
ATOM      2  C   UNL     1       7.465  -4.422  23.823  0.00  0.00    +0.030 A 
ATOM      3  C   UNL     1       8.684  -4.231  24.642  0.00  0.00    +0.257 A 
ATOM      4  O   UNL     1       9.649  -3.590  24.239  0.00  0.00    -0.267 OA
ATOM      5  N   UNL     1       8.663  -4.803  25.877  0.00  0.00    -0.275 N 
ATOM      6  H   UNL     1       9.475  -4.663  26.459  0.00  0.00    +0.173 HD
ATOM      7  C   UNL     1       7.591  -5.412  26.463  0.00  0.00    +0.332 A 
ATOM      8  O   UNL     1       7.663  -5.782  27.634  0.00  0.00    -0.246 OA
ATOM      9  N   UNL     1       6.459  -5.551  25.667  0.00  0.00    -0.270 N 
ATOM     10  C   UNL     1       6.423  -5.061  24.375  0.00  0.00    +0.102 A 
ENDROOT
BRANCH   9  11
ATOM     11  C   UNL     1       5.303  -6.144  26.315  0.00  0.00    +0.248 C 
ATOM     12  O   UNL     1       4.586  -7.085  25.477  0.00  0.00    -0.343 OA
ATOM     13  C   UNL     1       3.209  -7.027  25.945  0.00  0.00    +0.169 C 
ATOM     14  C   UNL     1       3.061  -5.614  26.394  0.00  0.00    +0.007 C 
ATOM     15  C   UNL     1       4.275  -5.107  26.617  0.00  0.00    +0.025 C 
BRANCH  13  16
ATOM     16  C   UNL     1       2.223  -7.487  24.867  0.00  0.00    +0.191 C 
BRANCH  16  17
ATOM     17  O   UNL     1       2.847  -8.273  23.856  0.00  0.00    -0.392 OA
ATOM     18  H   UNL     1       3.765  -8.407  24.156  0.00  0.00    +0.210 HD
ENDBRANCH  16  17
ENDBRANCH  13  16
ENDBRANCH   9  11
TORSDOF 3
ENDMDL
MODEL 7
REMARK VINA RESULT:      -5.3      4.568      7.886
REMARK  Name = 
REMARK  4 active torsions:
REMARK  status: ('A' for Active; 'I' for Inactive)
REMARK    1  A    between atoms: C_1  and  C_2
REMARK    2  A    between atoms: N_4  and  C_10
REMARK    3  A    between atoms: C_14  and  C_17
REMARK    4  A    between atoms: C_17  and  O_18
REMARK                            x       y       z     vdW  Elec       q    Type
REMARK                         _______ _______ _______ _____ _____    ______ ____
ROOT
ATOM      1  C   UNL     1       9.649   6.405  24.434  0.00  0.00    +0.051 C 
ATOM      2  C   UNL     1       9.085   5.225  23.711  0.00  0.00    +0.030 A 
ATOM      3  C   UNL     1       8.069   5.505  22.670  0.00  0.00    +0.257 A 
ATOM      4  O   UNL     1       7.749   6.647  22.360  0.00  0.00    -0.267 OA
ATOM      5  N   UNL     1       7.520   4.414  22.070  0.00  0.00    -0.275 N 
ATOM      6  H   UNL     1       6.844   4.584  21.342  0.00  0.00    +0.173 HD
ATOM      7  C   UNL     1       7.909   3.117  22.248  0.00  0.00    +0.332 A 
ATOM      8  O   UNL     1       7.415   2.230  21.554  0.00  0.00    -0.246 OA
ATOM      9  N   UNL     1       8.881   2.900  23.219  0.00  0.00    -0.270 N 
ATOM     10  C   UNL     1       9.440   3.949  23.926  0.00  0.00    +0.102 A 
ENDROOT
BRANCH   9  11
ATOM     11  C   UNL     1       9.334   1.528  23.361  0.00  0.00    +0.248 C 
ATOM     12  O   UNL     1       8.461   0.709  24.178  0.00  0.00    -0.343 OA
ATOM     13  C   UNL     1       9.333  -0.299  24.762  0.00  0.00    +0.169 C 
ATOM     14  C   UNL     1      10.631   0.419  24.911  0.00  0.00    +0.007 C 
ATOM     15  C   UNL     1      10.633   1.472  24.091  0.00  0.00    +0.025 C 
BRANCH  13  16
ATOM     16  C   UNL     1       8.745  -0.880  26.051  0.00  0.00    +0.191 C 
BRANCH  16  17
ATOM     17  O   UNL     1       9.299  -0.285  27.221  0.00  0.00    -0.392 OA
ATOM     18  H   UNL     1       9.117  -0.911  27.945  0.00  0.00    +0.210 HD
ENDBRANCH  16  17
ENDBRANCH  13  16
ENDBRANCH   9  11
TORSDOF 3
ENDMDL
MODEL 8
REMARK VINA RESULT:      -5.2      2.388      5.630
REMARK  Name = 
REMARK  4 active torsions:
REMARK  status: ('A' for Active; 'I' for Inactive)
REMARK    1  A    between atoms: C_1  and  C_2
REMARK    2  A    between atoms: N_4  and  C_10
REMARK    3  A    between atoms: C_14  and  C_17
REMARK    4  A    between atoms: C_17  and  O_18
REMARK                            x       y       z     vdW  Elec       q    Type
REMARK                         _______ _______ _______ _____ _____    ______ ____
ROOT
ATOM      1  C   UNL     1       7.442   0.442  22.943  0.00  0.00    +0.051 C 
ATOM      2  C   UNL     1       8.051  -0.847  23.394  0.00  0.00    +0.030 A 
ATOM      3  C   UNL     1       9.520  -0.974  23.256  0.00  0.00    +0.257 A 
ATOM      4  O   UNL     1      10.221  -0.050  22.858  0.00  0.00    -0.267 OA
ATOM      5  N   UNL     1      10.045  -2.178  23.610  0.00  0.00    -0.275 N 
ATOM      6  H   UNL     1      11.047  -2.276  23.547  0.00  0.00    +0.173 HD
ATOM      7  C   UNL     1       9.368  -3.212  24.190  0.00  0.00    +0.332 A 
ATOM      8  O   UNL     1       9.983  -4.205  24.577  0.00  0.00    -0.246 OA
ATOM      9  N   UNL     1       7.994  -3.043  24.322  0.00  0.00    -0.270 N 
ATOM     10  C   UNL     1       7.370  -1.877  23.920  0.00  0.00    +0.102 A 
ENDROOT
BRANCH   9  11
ATOM     11  C   UNL     1       7.289  -4.120  24.994  0.00  0.00    +0.248 C 
ATOM     12  O   UNL     1       6.747  -5.114  24.089  0.00  0.00    -0.343 OA
ATOM     13  C   UNL     1       5.582  -5.649  24.778  0.00  0.00    +0.169 C 
ATOM     14  C   UNL     1       5.085  -4.484  25.564  0.00  0.00    +0.007 C 
ATOM     15  C   UNL     1       6.079  -3.603  25.696  0.00  0.00    +0.025 C 
BRANCH  13  16
ATOM     16  C   UNL     1       4.578  -6.266  23.800  0.00  0.00    +0.191 C 
BRANCH  16  17
ATOM     17  O   UNL     1       4.387  -7.660  24.020  0.00  0.00    -0.392 OA
ATOM     18  H   UNL     1       4.219  -8.045  23.140  0.00  0.00    +0.210 HD
ENDBRANCH  16  17
ENDBRANCH  13  16
ENDBRANCH   9  11
TORSDOF 3
ENDMDL
MODEL 9
REMARK VINA RESULT:      -5.0      2.599      3.221
REMARK  Name = 
REMARK  4 active torsions:
REMARK  status: ('A' for Active; 'I' for Inactive)
REMARK    1  A    between atoms: C_1  and  C_2
REMARK    2  A    between atoms: N_4  and  C_10
REMARK    3  A    between atoms: C_14  and  C_17
REMARK    4  A    between atoms: C_17  and  O_18
REMARK                            x       y       z     vdW  Elec       q    Type
REMARK                         _______ _______ _______ _____ _____    ______ ____
ROOT
ATOM      1  C   UNL     1       4.801  -3.661  22.943  0.00  0.00    +0.051 C 
ATOM      2  C   UNL     1       6.250  -3.410  23.215  0.00  0.00    +0.030 A 
ATOM      3  C   UNL     1       7.064  -4.580  23.618  0.00  0.00    +0.257 A 
ATOM      4  O   UNL     1       6.600  -5.714  23.662  0.00  0.00    -0.267 OA
ATOM      5  N   UNL     1       8.363  -4.318  23.925  0.00  0.00    -0.275 N 
ATOM      6  H   UNL     1       8.941  -5.106  24.178  0.00  0.00    +0.173 HD
ATOM      7  C   UNL     1       9.001  -3.121  23.772  0.00  0.00    +0.332 A 
ATOM      8  O   UNL     1      10.213  -3.043  23.970  0.00  0.00    -0.246 OA
ATOM      9  N   UNL     1       8.205  -2.053  23.371  0.00  0.00    -0.270 N 
ATOM     10  C   UNL     1       6.858  -2.219  23.108  0.00  0.00    +0.102 A 
ENDROOT
BRANCH   9  11
ATOM     11  C   UNL     1       8.899  -0.797  23.151  0.00  0.00    +0.248 C 
ATOM     12  O   UNL     1       8.051   0.369  23.298  0.00  0.00    -0.343 OA
ATOM     13  C   UNL     1       8.642   1.372  22.423  0.00  0.00    +0.169 C 
ATOM     14  C   UNL     1       9.219   0.559  21.315  0.00  0.00    +0.007 C 
ATOM     15  C   UNL     1       9.377  -0.695  21.742  0.00  0.00    +0.025 C 
BRANCH  13  16
ATOM     16  C   UNL     1       7.619   2.432  22.004  0.00  0.00    +0.191 C 
BRANCH  16  17
ATOM     17  O   UNL     1       6.785   2.842  23.083  0.00  0.00    -0.392 OA
ATOM     18  H   UNL     1       5.891   2.935  22.704  0.00  0.00    +0.210 HD
ENDBRANCH  16  17
ENDBRANCH  13  16
ENDBRANCH   9  11
TORSDOF 3
ENDMDL
