MODEL 1
REMARK VINA RESULT:      -6.2      0.000      0.000
REMARK  Name = 
REMARK  3 active torsions:
REMARK  status: ('A' for Active; 'I' for Inactive)
REMARK    1  A    between atoms: C_3  and  N_10
REMARK    2  A    between atoms: C_6  and  C_8
REMARK    3  A    between atoms: C_8  and  O_9
REMARK                            x       y       z     vdW  Elec       q    Type
REMARK                         _______ _______ _______ _____ _____    ______ ____
ROOT
ATOM      1  N   UNL     1       7.925  -1.143  24.662  0.00  0.00    -0.152 N 
ATOM      2  C   UNL     1       7.618  -2.367  23.564  0.00  0.00    +0.332 C 
ATOM      3  N   UNL     1       7.240  -2.789  22.366  0.00  0.00    -0.033 NA
ATOM      4  C   UNL     1       7.128  -4.275  22.197  0.00  0.00    +0.356 C 
ATOM      5  N   UNL     1       7.630  -5.238  22.924  0.00  0.00    -0.143 NA
ATOM      6  C   UNL     1       8.239  -4.866  24.060  0.00  0.00    +0.276 C 
ATOM      7  O   UNL     1       9.201  -5.453  24.614  0.00  0.00    -0.271 OA
ATOM      8  C   UNL     1       7.764  -3.546  24.516  0.00  0.00    +0.311 C 
ATOM      9  N   UNL     1       8.918  -3.022  25.274  0.00  0.00    -0.229 NA
ATOM     10  C   UNL     1       8.219  -1.953  25.715  0.00  0.00    +0.304 C 
ENDROOT
BRANCH   1  14
ATOM     11  C   UNL     1      10.675   1.142  23.612  0.00  0.00    +0.040 C 
ATOM     12  C   UNL     1       9.457   2.079  23.940  0.00  0.00    +0.148 C 
ATOM     13  O   UNL     1       8.514   1.445  24.869  0.00  0.00    -0.334 OA
ATOM     14  C   UNL     1       8.963   0.119  25.128  0.00  0.00    +0.309 C 
ATOM     15  C   UNL     1      10.590   0.296  24.890  0.00  0.00    +0.081 C 
BRANCH  12  16
ATOM     16  C   UNL     1       8.692   2.306  22.655  0.00  0.00    +0.187 C 
BRANCH  16  17
ATOM     17  O   UNL     1       9.561   2.229  21.535  0.00  0.00    -0.392 OA
ATOM     18  H   UNL     1      10.467   2.144  21.893  0.00  0.00    +0.210 HD
ENDBRANCH  16  17
ENDBRANCH  12  16
ENDBRANCH   1  14
TORSDOF 3
ENDMDL
MODEL 2
REMARK VINA RESULT:      -6.2      2.427      5.728
REMARK  Name = 
REMARK  3 active torsions:
REMARK  status: ('A' for Active; 'I' for Inactive)
REMARK    1  A    between atoms: C_3  and  N_10
REMARK    2  A    between atoms: C_6  and  C_8
REMARK    3  A    between atoms: C_8  and  O_9
REMARK                            x       y       z     vdW  Elec       q    Type
REMARK                         _______ _______ _______ _____ _____    ______ ____
ROOT
ATOM      1  N   UNL     1       8.811  -2.700  22.931  0.00  0.00    -0.152 N 
ATOM      2  C   UNL     1       9.042  -1.132  22.394  0.00  0.00    +0.332 C 
ATOM      3  N   UNL     1       8.778  -0.136  21.561  0.00  0.00    -0.033 NA
ATOM      4  C   UNL     1       9.613   1.099  21.727  0.00  0.00    +0.356 C 
ATOM      5  N   UNL     1      10.344   1.482  22.740  0.00  0.00    -0.143 NA
ATOM      6  C   UNL     1      10.476   0.600  23.742  0.00  0.00    +0.276 C 
ATOM      7  O   UNL     1      10.632   0.876  24.958  0.00  0.00    -0.271 OA
ATOM      8  C   UNL     1      10.228  -0.778  23.281  0.00  0.00    +0.311 C 
ATOM      9  N   UNL     1       9.748  -1.456  24.502  0.00  0.00    -0.229 NA
ATOM     10  C   UNL     1       9.760  -2.668  23.905  0.00  0.00    +0.304 C 
ENDROOT
BRANCH   1  14
ATOM     11  C   UNL     1       5.368  -4.106  23.153  0.00  0.00    +0.040 C 
ATOM     12  C   UNL     1       6.290  -5.320  22.774  0.00  0.00    +0.148 C 
ATOM     13  O   UNL     1       7.683  -5.098  23.182  0.00  0.00    -0.334 OA
ATOM     14  C   UNL     1       7.784  -3.789  23.734  0.00  0.00    +0.309 C 
ATOM     15  C   UNL     1       6.243  -3.575  24.296  0.00  0.00    +0.081 C 
BRANCH  12  16
ATOM     16  C   UNL     1       6.307  -5.432  21.266  0.00  0.00    +0.187 C 
BRANCH  16  17
ATOM     17  O   UNL     1       5.744  -4.272  20.673  0.00  0.00    -0.392 OA
ATOM     18  H   UNL     1       5.732  -4.432  19.709  0.00  0.00    +0.210 HD
ENDBRANCH  16  17
ENDBRANCH  12  16
ENDBRANCH   1  14
TORSDOF 3
ENDMDL
MODEL 3
REMARK VINA RESULT:      -6.0      2.041      6.091
REMARK  Name = 
REMARK  3 active torsions:
REMARK  status: ('A' for Active; 'I' for Inactive)
REMARK    1  A    between atoms: C_3  and  N_10
REMARK    2  A    between atoms: C_6  and  C_8
REMARK    3  A    between atoms: C_8  and  O_9
REMARK                            x       y       z     vdW  Elec       q    Type
REMARK                         _______ _______ _______ _____ _____    ______ ____
ROOT
ATOM      1  N   UNL     1       7.728  -1.490  24.601  0.00  0.00    -0.152 N 
ATOM      2  C   UNL     1       9.045  -0.464  24.501  0.00  0.00    +0.332 C 
ATOM      3  N   UNL     1      10.260  -0.089  24.875  0.00  0.00    -0.033 NA
ATOM      4  C   UNL     1      10.765   1.192  24.280  0.00  0.00    +0.356 C 
ATOM      5  N   UNL     1      10.350   1.844  23.227  0.00  0.00    -0.143 NA
ATOM      6  C   UNL     1       9.232   1.380  22.647  0.00  0.00    +0.276 C 
ATOM      7  O   UNL     1       8.945   1.450  21.425  0.00  0.00    -0.271 OA
ATOM      8  C   UNL     1       8.425   0.589  23.593  0.00  0.00    +0.311 C 
ATOM      9  N   UNL     1       7.696  -0.343  22.709  0.00  0.00    -0.229 NA
ATOM     10  C   UNL     1       6.939  -0.809  23.726  0.00  0.00    +0.304 C 
ENDROOT
BRANCH   1  14
ATOM     11  C   UNL     1       8.433  -5.138  24.319  0.00  0.00    +0.040 C 
ATOM     12  C   UNL     1       7.361  -5.008  25.459  0.00  0.00    +0.148 C 
ATOM     13  O   UNL     1       6.574  -3.775  25.333  0.00  0.00    -0.334 OA
ATOM     14  C   UNL     1       7.092  -3.024  24.239  0.00  0.00    +0.309 C 
ATOM     15  C   UNL     1       7.717  -4.237  23.305  0.00  0.00    +0.081 C 
BRANCH  12  16
ATOM     16  C   UNL     1       8.098  -4.902  26.775  0.00  0.00    +0.187 C 
BRANCH  16  17
ATOM     17  O   UNL     1       7.789  -6.006  27.612  0.00  0.00    -0.392 OA
ATOM     18  H   UNL     1       7.807  -5.671  28.530  0.00  0.00    +0.210 HD
ENDBRANCH  16  17
ENDBRANCH  12  16
ENDBRANCH   1  14
TORSDOF 3
ENDMDL
MODEL 4
REMARK VINA RESULT:      -5.9      2.026      2.591
REMARK  Name = 
REMARK  3 active torsions:
REMARK  status: ('A' for Active; 'I' for Inactive)
REMARK    1  A    between atoms: C_3  and  N_10
REMARK    2  A    between atoms: C_6  and  C_8
REMARK    3  A    between atoms: C_8  and  O_9
REMARK                            x       y       z     vdW  Elec       q    Type
REMARK                         _______ _______ _______ _____ _____    ______ ____
ROOT
ATOM      1  N   UNL     1       8.230  -2.645  24.111  0.00  0.00    -0.152 N 
ATOM      2  C   UNL     1       6.699  -3.089  23.603  0.00  0.00    +0.332 C 
ATOM      3  N   UNL     1       5.452  -2.792  23.264  0.00  0.00    -0.033 NA
ATOM      4  C   UNL     1       4.551  -3.958  22.986  0.00  0.00    +0.356 C 
ATOM      5  N   UNL     1       4.852  -5.201  22.719  0.00  0.00    -0.143 NA
ATOM      6  C   UNL     1       6.149  -5.531  22.821  0.00  0.00    +0.276 C 
ATOM      7  O   UNL     1       6.747  -6.409  22.151  0.00  0.00    -0.271 OA
ATOM      8  C   UNL     1       6.871  -4.598  23.706  0.00  0.00    +0.311 C 
ATOM      9  N   UNL     1       8.254  -4.656  23.190  0.00  0.00    -0.229 NA
ATOM     10  C   UNL     1       8.729  -3.907  24.209  0.00  0.00    +0.304 C 
ENDROOT
BRANCH   1  14
ATOM     11  C   UNL     1       9.891   0.125  22.254  0.00  0.00    +0.040 C 
ATOM     12  C   UNL     1      10.241   0.369  23.766  0.00  0.00    +0.148 C 
ATOM     13  O   UNL     1      10.162  -0.868  24.552  0.00  0.00    -0.334 OA
ATOM     14  C   UNL     1       9.706  -1.913  23.699  0.00  0.00    +0.309 C 
ATOM     15  C   UNL     1      10.246  -1.368  22.234  0.00  0.00    +0.081 C 
BRANCH  12  16
ATOM     16  C   UNL     1       9.191   1.296  24.336  0.00  0.00    +0.187 C 
BRANCH  16  17
ATOM     17  O   UNL     1       8.896   0.950  25.681  0.00  0.00    -0.392 OA
ATOM     18  H   UNL     1       8.020   0.518  25.671  0.00  0.00    +0.210 HD
ENDBRANCH  16  17
ENDBRANCH  12  16
ENDBRANCH   1  14
TORSDOF 3
ENDMDL
MODEL 5
REMARK VINA RESULT:      -5.8      2.139      2.290
REMARK  Name = 
REMARK  3 active torsions:
REMARK  status: ('A' for Active; 'I' for Inactive)
REMARK    1  A    between atoms: C_3  and  N_10
REMARK    2  A    between atoms: C_6  and  C_8
REMARK    3  A    between atoms: C_8  and  O_9
REMARK                            x       y       z     vdW  Elec       q    Type
REMARK                         _______ _______ _______ _____ _____    ______ ____
ROOT
ATOM      1  N   UNL     1       7.970  -2.213  24.706  0.00  0.00    -0.152 N 
ATOM      2  C   UNL     1       7.049  -3.610  24.679  0.00  0.00    +0.332 C 
ATOM      3  N   UNL     1       6.286  -4.490  24.046  0.00  0.00    -0.033 NA
ATOM      4  C   UNL     1       5.687  -5.572  24.896  0.00  0.00    +0.356 C 
ATOM      5  N   UNL     1       6.028  -5.981  26.089  0.00  0.00    -0.143 NA
ATOM      6  C   UNL     1       6.974  -5.263  26.713  0.00  0.00    +0.276 C 
ATOM      7  O   UNL     1       7.813  -5.700  27.540  0.00  0.00    -0.271 OA
ATOM      8  C   UNL     1       7.050  -3.892  26.175  0.00  0.00    +0.311 C 
ATOM      9  N   UNL     1       8.454  -3.513  26.429  0.00  0.00    -0.229 NA
ATOM     10  C   UNL     1       8.243  -2.237  26.039  0.00  0.00    +0.304 C 
ENDROOT
BRANCH   1  14
ATOM     11  C   UNL     1      10.007  -0.880  21.885  0.00  0.00    +0.040 C 
ATOM     12  C   UNL     1       9.702   0.359  22.800  0.00  0.00    +0.148 C 
ATOM     13  O   UNL     1       9.415  -0.039  24.184  0.00  0.00    -0.334 OA
ATOM     14  C   UNL     1       9.424  -1.462  24.251  0.00  0.00    +0.309 C 
ATOM     15  C   UNL     1      10.459  -1.819  23.011  0.00  0.00    +0.081 C 
BRANCH  12  16
ATOM     16  C   UNL     1       8.440   1.014  22.283  0.00  0.00    +0.187 C 
BRANCH  16  17
ATOM     17  O   UNL     1       8.756   2.077  21.396  0.00  0.00    -0.392 OA
ATOM     18  H   UNL     1       9.478   1.754  20.822  0.00  0.00    +0.210 HD
ENDBRANCH  16  17
ENDBRANCH  12  16
ENDBRANCH   1  14
TORSDOF 3
ENDMDL
MODEL 6
REMARK VINA RESULT:      -5.8      1.678      2.965
REMARK  Name = 
REMARK  3 active torsions:
REMARK  status: ('A' for Active; 'I' for Inactive)
REMARK    1  A    between atoms: C_3  and  N_10
REMARK    2  A    between atoms: C_6  and  C_8
REMARK    3  A    between atoms: C_8  and  O_9
REMARK                            x       y       z     vdW  Elec       q    Type
REMARK                         _______ _______ _______ _____ _____    ______ ____
ROOT
ATOM      1  N   UNL     1      10.100  -0.447  23.517  0.00  0.00    -0.152 N 
ATOM      2  C   UNL     1       9.327  -1.438  24.622  0.00  0.00    +0.332 C 
ATOM      3  N   UNL     1       8.804  -1.660  25.819  0.00  0.00    -0.033 NA
ATOM      4  C   UNL     1       8.325  -3.058  26.077  0.00  0.00    +0.356 C 
ATOM      5  N   UNL     1       8.050  -4.016  25.232  0.00  0.00    -0.143 NA
ATOM      6  C   UNL     1       8.347  -3.773  23.946  0.00  0.00    +0.276 C 
ATOM      7  O   UNL     1       7.741  -4.232  22.945  0.00  0.00    -0.271 OA
ATOM      8  C   UNL     1       9.382  -2.731  23.822  0.00  0.00    +0.311 C 
ATOM      9  N   UNL     1       9.097  -2.137  22.500  0.00  0.00    -0.229 NA
ATOM     10  C   UNL     1      10.216  -1.380  22.533  0.00  0.00    +0.304 C 
ENDROOT
BRANCH   1  14
ATOM     11  C   UNL     1       7.979   2.400  22.388  0.00  0.00    +0.040 C 
ATOM     12  C   UNL     1       9.268   3.058  22.998  0.00  0.00    +0.148 C 
ATOM     13  O   UNL     1      10.414   2.140  22.975  0.00  0.00    -0.334 OA
ATOM     14  C   UNL     1       9.971   0.884  22.470  0.00  0.00    +0.309 C 
ATOM     15  C   UNL     1       8.707   1.367  21.519  0.00  0.00    +0.081 C 
BRANCH  12  16
ATOM     16  C   UNL     1       8.991   3.346  24.457  0.00  0.00    +0.187 C 
BRANCH  16  17
ATOM     17  O   UNL     1       8.301   2.262  25.059  0.00  0.00    -0.392 OA
ATOM     18  H   UNL     1       8.779   2.054  25.886  0.00  0.00    +0.210 HD
ENDBRANCH  16  17
ENDBRANCH  12  16
ENDBRANCH   1  14
TORSDOF 3
ENDMDL
MODEL 7
REMARK VINA RESULT:      -5.8      1.846      2.662
REMARK  Name = 
REMARK  3 active torsions:
REMARK  status: ('A' for Active; 'I' for Inactive)
REMARK    1  A    between atoms: C_3  and  N_10
REMARK    2  A    between atoms: C_6  and  C_8
REMARK    3  A    between atoms: C_8  and  O_9
REMARK                            x       y       z     vdW  Elec       q    Type
REMARK                         _______ _______ _______ _____ _____    ______ ____
ROOT
ATOM      1  N   UNL     1       9.915  -0.764  24.195  0.00  0.00    -0.152 N 
ATOM      2  C   UNL     1       9.061  -1.977  24.968  0.00  0.00    +0.332 C 
ATOM      3  N   UNL     1       8.472  -2.484  26.042  0.00  0.00    -0.033 NA
ATOM      4  C   UNL     1       7.945  -3.881  25.905  0.00  0.00    +0.356 C 
ATOM      5  N   UNL     1       7.690  -4.575  24.828  0.00  0.00    -0.143 NA
ATOM      6  C   UNL     1       8.058  -4.018  23.664  0.00  0.00    +0.276 C 
ATOM      7  O   UNL     1       7.494  -4.177  22.553  0.00  0.00    -0.271 OA
ATOM      8  C   UNL     1       9.125  -3.020  23.861  0.00  0.00    +0.311 C 
ATOM      9  N   UNL     1       8.924  -2.091  22.730  0.00  0.00    -0.229 NA
ATOM     10  C   UNL     1      10.058  -1.412  23.008  0.00  0.00    +0.304 C 
ENDROOT
BRANCH   1  14
ATOM     11  C   UNL     1       8.502   1.419  21.527  0.00  0.00    +0.040 C 
ATOM     12  C   UNL     1       7.986   2.028  22.880  0.00  0.00    +0.148 C 
ATOM     13  O   UNL     1       8.856   1.671  24.007  0.00  0.00    -0.334 OA
ATOM     14  C   UNL     1       9.874   0.798  23.528  0.00  0.00    +0.309 C 
ATOM     15  C   UNL     1       9.971   1.280  21.949  0.00  0.00    +0.081 C 
BRANCH  12  16
ATOM     16  C   UNL     1       6.638   1.411  23.178  0.00  0.00    +0.187 C 
BRANCH  16  17
ATOM     17  O   UNL     1       6.624   0.040  22.810  0.00  0.00    -0.392 OA
ATOM     18  H   UNL     1       5.982  -0.044  22.077  0.00  0.00    +0.210 HD
ENDBRANCH  16  17
ENDBRANCH  12  16
ENDBRANCH   1  14
TORSDOF 3
ENDMDL
MODEL 8
REMARK VINA RESULT:      -5.8      1.708      2.036
REMARK  Name = 
REMARK  3 active torsions:
REMARK  status: ('A' for Active; 'I' for Inactive)
REMARK    1  A    between atoms: C_3  and  N_10
REMARK    2  A    between atoms: C_6  and  C_8
REMARK    3  A    between atoms: C_8  and  O_9
REMARK                            x       y       z     vdW  Elec       q    Type
REMARK                         _______ _______ _______ _____ _____    ______ ____
ROOT
ATOM      1  N   UNL     1       8.830  -1.171  23.940  0.00  0.00    -0.152 N 
ATOM      2  C   UNL     1       7.663  -2.354  24.131  0.00  0.00    +0.332 C 
ATOM      3  N   UNL     1       6.405  -2.769  24.075  0.00  0.00    -0.033 NA
ATOM      4  C   UNL     1       6.147  -4.156  24.584  0.00  0.00    +0.356 C 
ATOM      5  N   UNL     1       6.983  -5.140  24.787  0.00  0.00    -0.143 NA
ATOM      6  C   UNL     1       8.285  -4.850  24.637  0.00  0.00    +0.276 C 
ATOM      7  O   UNL     1       9.183  -5.642  24.254  0.00  0.00    -0.271 OA
ATOM      8  C   UNL     1       8.536  -3.407  24.800  0.00  0.00    +0.311 C 
ATOM      9  N   UNL     1       9.744  -3.185  23.979  0.00  0.00    -0.229 NA
ATOM     10  C   UNL     1       9.873  -1.910  24.407  0.00  0.00    +0.304 C 
ENDROOT
BRANCH   1  14
ATOM     11  C   UNL     1       8.910   1.820  21.719  0.00  0.00    +0.040 C 
ATOM     12  C   UNL     1      10.011   2.081  22.808  0.00  0.00    +0.148 C 
ATOM     13  O   UNL     1      10.501   0.830  23.401  0.00  0.00    -0.334 OA
ATOM     14  C   UNL     1       9.753  -0.249  22.851  0.00  0.00    +0.309 C 
ATOM     15  C   UNL     1       9.337   0.385  21.381  0.00  0.00    +0.081 C 
BRANCH  12  16
ATOM     16  C   UNL     1       9.368   2.856  23.936  0.00  0.00    +0.187 C 
BRANCH  16  17
ATOM     17  O   UNL     1       9.586   4.249  23.772  0.00  0.00    -0.392 OA
ATOM     18  H   UNL     1       9.692   4.620  24.670  0.00  0.00    +0.210 HD
ENDBRANCH  16  17
ENDBRANCH  12  16
ENDBRANCH   1  14
TORSDOF 3
ENDMDL
MODEL 9
REMARK VINA RESULT:      -5.7      1.908      2.445
REMARK  Name = 
REMARK  3 active torsions:
REMARK  status: ('A' for Active; 'I' for Inactive)
REMARK    1  A    between atoms: C_3  and  N_10
REMARK    2  A    between atoms: C_6  and  C_8
REMARK    3  A    between atoms: C_8  and  O_9
REMARK                            x       y       z     vdW  Elec       q    Type
REMARK                         _______ _______ _______ _____ _____    ______ ____
ROOT
ATOM      1  N   UNL     1       7.546  -1.960  23.752  0.00  0.00    -0.152 N 
ATOM      2  C   UNL     1       8.423  -3.249  24.360  0.00  0.00    +0.332 C 
ATOM      3  N   UNL     1       9.555  -3.924  24.500  0.00  0.00    -0.033 NA
ATOM      4  C   UNL     1       9.456  -5.230  25.231  0.00  0.00    +0.356 C 
ATOM      5  N   UNL     1       8.514  -5.674  26.021  0.00  0.00    -0.143 NA
ATOM      6  C   UNL     1       7.410  -4.918  26.110  0.00  0.00    +0.276 C 
ATOM      7  O   UNL     1       6.659  -4.813  27.112  0.00  0.00    -0.271 OA
ATOM      8  C   UNL     1       7.259  -4.048  24.929  0.00  0.00    +0.311 C 
ATOM      9  N   UNL     1       6.495  -2.900  25.457  0.00  0.00    -0.229 NA
ATOM     10  C   UNL     1       6.336  -2.363  24.228  0.00  0.00    +0.304 C 
ENDROOT
BRANCH   1  14
ATOM     11  C   UNL     1       8.926   1.425  24.475  0.00  0.00    +0.040 C 
ATOM     12  C   UNL     1       8.488   1.467  22.967  0.00  0.00    +0.148 C 
ATOM     13  O   UNL     1       7.451   0.470  22.670  0.00  0.00    -0.334 OA
ATOM     14  C   UNL     1       7.217  -0.296  23.848  0.00  0.00    +0.309 C 
ATOM     15  C   UNL     1       7.631   0.802  25.013  0.00  0.00    +0.081 C 
BRANCH  12  16
ATOM     16  C   UNL     1       9.687   1.087  22.128  0.00  0.00    +0.187 C 
BRANCH  16  17
ATOM     17  O   UNL     1      10.220   2.227  21.472  0.00  0.00    -0.392 OA
ATOM     18  H   UNL     1      10.983   2.522  22.006  0.00  0.00    +0.210 HD
ENDBRANCH  16  17
ENDBRANCH  12  16
ENDBRANCH   1  14
TORSDOF 3
ENDMDL
