MODEL 1
REMARK VINA RESULT:      -6.0      0.000      0.000
REMARK  Name = 
REMARK  18 active torsions:
REMARK  status: ('A' for Active; 'I' for Inactive)
REMARK    1  A    between atoms: C_1  and  C_2
REMARK    2  A    between atoms: N_4  and  C_5
REMARK    3  A    between atoms: C_7  and  N_35
REMARK    4  A    between atoms: C_10  and  C_31
REMARK    5  A    between atoms: C_12  and  C_14
REMARK    6  A    between atoms: C_14  and  C_16
REMARK    7  A    between atoms: C_14  and  O_27
REMARK    8  A    between atoms: C_16  and  C_18
REMARK    9  A    between atoms: C_16  and  O_23
REMARK   10  A    between atoms: C_18  and  O_19
REMARK   11  A    between atoms: O_19  and  C_20
REMARK   12  A    between atoms: C_20  and  C_22
REMARK   13  A    between atoms: O_23  and  C_24
REMARK   14  A    between atoms: C_24  and  C_26
REMARK   15  A    between atoms: O_27  and  C_28
REMARK   16  A    between atoms: C_28  and  C_30
REMARK   17  A    between atoms: C_31  and  O_33
REMARK   18  A    between atoms: O_33  and  C_34
REMARK                            x       y       z     vdW  Elec       q    Type
REMARK                         _______ _______ _______ _____ _____    ______ ____
ROOT
ATOM      1  C   UNL     1       6.697  -0.845  25.448  0.00  0.00    +0.138 C 
ATOM      2  C   UNL     1       6.584  -1.985  24.396  0.00  0.00    +0.240 C 
ATOM      3  O   UNL     1       7.443  -1.855  23.250  0.00  0.00    -0.476 OA
ATOM      4  C   UNL     1       8.691  -1.300  23.445  0.00  0.00    +0.203 C 
ATOM      5  C   UNL     1       9.073  -0.715  24.587  0.00  0.00    +0.046 C 
ATOM      6  C   UNL     1       8.171  -0.449  25.737  0.00  0.00    +0.102 C 
ENDROOT
BRANCH   1   9
ATOM      7  C   UNL     1       4.382   2.180  25.467  0.00  0.00    +0.109 C 
ATOM      8  C   UNL     1       5.227   1.071  26.025  0.00  0.00    +0.210 C 
ATOM      9  N   UNL     1       5.887   0.332  25.062  0.00  0.00    -0.307 N 
ATOM     10  H   UNL     1       5.476   0.338  24.134  0.00  0.00    +0.149 HD
ATOM     11  O   UNL     1       5.323   0.857  27.229  0.00  0.00    -0.276 OA
ENDBRANCH   1   9
BRANCH   6  12
ATOM     12  N   UNL     1       8.687  -1.113  26.934  0.00  0.00    -0.322 NA
ATOM     13  H   UNL     1       9.708  -1.075  26.916  0.00  0.00    +0.119 HD
ATOM     14  H   UNL     1       8.436  -0.539  27.744  0.00  0.00    +0.119 HD
ENDBRANCH   6  12
BRANCH   4  15
ATOM     15  C   UNL     1       9.698  -1.344  22.336  0.00  0.00    +0.374 C 
ATOM     16  O   UNL     1      10.787  -1.895  22.434  0.00  0.00    -0.242 OA
BRANCH  15  17
ATOM     17  O   UNL     1       9.260  -0.673  21.241  0.00  0.00    -0.462 OA
ATOM     18  C   UNL     1       9.214   0.743  21.440  0.00  0.00    +0.280 C 
ENDBRANCH  15  17
ENDBRANCH   4  15
BRANCH   2  19
ATOM     19  C   UNL     1       6.539  -3.437  24.992  0.00  0.00    +0.262 C 
BRANCH  19  20
ATOM     20  O   UNL     1       7.804  -4.128  24.763  0.00  0.00    -0.454 OA
BRANCH  20  21
ATOM     21  C   UNL     1       8.580  -4.411  25.844  0.00  0.00    +0.304 C 
ATOM     22  C   UNL     1       9.825  -5.126  25.418  0.00  0.00    +0.136 C 
ATOM     23  O   UNL     1       8.320  -4.117  27.001  0.00  0.00    -0.251 OA
ENDBRANCH  20  21
ENDBRANCH  19  20
BRANCH  19  24
ATOM     24  C   UNL     1       5.380  -4.346  24.483  0.00  0.00    +0.258 C 
BRANCH  24  25
ATOM     25  O   UNL     1       5.555  -5.767  24.725  0.00  0.00    -0.454 OA
BRANCH  25  26
ATOM     26  C   UNL     1       5.178  -6.266  25.930  0.00  0.00    +0.304 C 
ATOM     27  C   UNL     1       3.719  -6.596  25.936  0.00  0.00    +0.136 C 
ATOM     28  O   UNL     1       5.924  -6.477  26.875  0.00  0.00    -0.251 OA
ENDBRANCH  25  26
ENDBRANCH  24  25
BRANCH  24  29
ATOM     29  C   UNL     1       5.001  -4.181  22.993  0.00  0.00    +0.280 C 
BRANCH  29  30
ATOM     30  O   UNL     1       5.063  -5.383  22.218  0.00  0.00    -0.461 OA
BRANCH  30  31
ATOM     31  C   UNL     1       6.041  -5.430  21.274  0.00  0.00    +0.304 C 
ATOM     32  C   UNL     1       7.287  -6.025  21.850  0.00  0.00    +0.136 C 
ATOM     33  O   UNL     1       5.919  -5.088  20.107  0.00  0.00    -0.251 OA
ENDBRANCH  30  31
ENDBRANCH  29  30
ENDBRANCH  24  29
ENDBRANCH  19  24
ENDBRANCH   2  19
TORSDOF 13
ENDMDL
MODEL 2
REMARK VINA RESULT:      -5.9      2.317      6.625
REMARK  Name = 
REMARK  18 active torsions:
REMARK  status: ('A' for Active; 'I' for Inactive)
REMARK    1  A    between atoms: C_1  and  C_2
REMARK    2  A    between atoms: N_4  and  C_5
REMARK    3  A    between atoms: C_7  and  N_35
REMARK    4  A    between atoms: C_10  and  C_31
REMARK    5  A    between atoms: C_12  and  C_14
REMARK    6  A    between atoms: C_14  and  C_16
REMARK    7  A    between atoms: C_14  and  O_27
REMARK    8  A    between atoms: C_16  and  C_18
REMARK    9  A    between atoms: C_16  and  O_23
REMARK   10  A    between atoms: C_18  and  O_19
REMARK   11  A    between atoms: O_19  and  C_20
REMARK   12  A    between atoms: C_20  and  C_22
REMARK   13  A    between atoms: O_23  and  C_24
REMARK   14  A    between atoms: C_24  and  C_26
REMARK   15  A    between atoms: O_27  and  C_28
REMARK   16  A    between atoms: C_28  and  C_30
REMARK   17  A    between atoms: C_31  and  O_33
REMARK   18  A    between atoms: O_33  and  C_34
REMARK                            x       y       z     vdW  Elec       q    Type
REMARK                         _______ _______ _______ _____ _____    ______ ____
ROOT
ATOM      1  C   UNL     1       7.650  -4.356  23.730  0.00  0.00    +0.138 C 
ATOM      2  C   UNL     1       6.431  -3.706  24.448  0.00  0.00    +0.240 C 
ATOM      3  O   UNL     1       5.840  -4.495  25.495  0.00  0.00    -0.476 OA
ATOM      4  C   UNL     1       6.681  -5.274  26.261  0.00  0.00    +0.203 C 
ATOM      5  C   UNL     1       7.973  -5.479  25.974  0.00  0.00    +0.046 C 
ATOM      6  C   UNL     1       8.636  -5.026  24.725  0.00  0.00    +0.102 C 
ENDROOT
BRANCH   1   9
ATOM      7  C   UNL     1       6.053  -5.946  20.658  0.00  0.00    +0.109 C 
ATOM      8  C   UNL     1       6.486  -4.852  21.593  0.00  0.00    +0.210 C 
ATOM      9  N   UNL     1       7.217  -5.302  22.677  0.00  0.00    -0.307 N 
ATOM     10  H   UNL     1       7.073  -6.270  22.943  0.00  0.00    +0.149 HD
ATOM     11  O   UNL     1       6.219  -3.672  21.396  0.00  0.00    -0.276 OA
ENDBRANCH   1   9
BRANCH   6  12
ATOM     12  N   UNL     1       9.759  -4.146  25.052  0.00  0.00    -0.322 NA
ATOM     13  H   UNL     1       9.460  -3.489  25.775  0.00  0.00    +0.119 HD
ATOM     14  H   UNL     1      10.474  -4.712  25.516  0.00  0.00    +0.119 HD
ENDBRANCH   6  12
BRANCH   4  15
ATOM     15  C   UNL     1       6.148  -5.938  27.495  0.00  0.00    +0.374 C 
ATOM     16  O   UNL     1       5.581  -7.022  27.488  0.00  0.00    -0.242 OA
BRANCH  15  17
ATOM     17  O   UNL     1       6.346  -5.169  28.597  0.00  0.00    -0.462 OA
ATOM     18  C   UNL     1       5.136  -4.904  29.313  0.00  0.00    +0.280 C 
ENDBRANCH  15  17
ENDBRANCH   4  15
BRANCH   2  19
ATOM     19  C   UNL     1       6.610  -2.191  24.820  0.00  0.00    +0.262 C 
BRANCH  19  20
ATOM     20  O   UNL     1       5.321  -1.507  24.833  0.00  0.00    -0.454 OA
BRANCH  20  21
ATOM     21  C   UNL     1       5.021  -0.734  25.912  0.00  0.00    +0.304 C 
ATOM     22  C   UNL     1       5.526  -1.374  27.167  0.00  0.00    +0.136 C 
ATOM     23  O   UNL     1       4.440   0.340  25.875  0.00  0.00    -0.251 OA
ENDBRANCH  20  21
ENDBRANCH  19  20
BRANCH  19  24
ATOM     24  C   UNL     1       7.591  -1.381  23.920  0.00  0.00    +0.258 C 
BRANCH  24  25
ATOM     25  O   UNL     1       8.644  -0.676  24.630  0.00  0.00    -0.454 OA
BRANCH  25  26
ATOM     26  C   UNL     1       9.906  -0.732  24.130  0.00  0.00    +0.304 C 
ATOM     27  C   UNL     1      10.716   0.434  24.601  0.00  0.00    +0.136 C 
ATOM     28  O   UNL     1      10.353  -1.632  23.435  0.00  0.00    -0.251 OA
ENDBRANCH  25  26
ENDBRANCH  24  25
BRANCH  24  29
ATOM     29  C   UNL     1       6.935  -0.367  22.954  0.00  0.00    +0.280 C 
BRANCH  29  30
ATOM     30  O   UNL     1       7.111   1.008  23.312  0.00  0.00    -0.461 OA
BRANCH  30  31
ATOM     31  C   UNL     1       7.316   1.868  22.277  0.00  0.00    +0.304 C 
ATOM     32  C   UNL     1       8.572   1.506  21.547  0.00  0.00    +0.136 C 
ATOM     33  O   UNL     1       6.566   2.774  21.947  0.00  0.00    -0.251 OA
ENDBRANCH  30  31
ENDBRANCH  29  30
ENDBRANCH  24  29
ENDBRANCH  19  24
ENDBRANCH   2  19
TORSDOF 13
ENDMDL
MODEL 3
REMARK VINA RESULT:      -5.9      1.975      5.245
REMARK  Name = 
REMARK  18 active torsions:
REMARK  status: ('A' for Active; 'I' for Inactive)
REMARK    1  A    between atoms: C_1  and  C_2
REMARK    2  A    between atoms: N_4  and  C_5
REMARK    3  A    between atoms: C_7  and  N_35
REMARK    4  A    between atoms: C_10  and  C_31
REMARK    5  A    between atoms: C_12  and  C_14
REMARK    6  A    between atoms: C_14  and  C_16
REMARK    7  A    between atoms: C_14  and  O_27
REMARK    8  A    between atoms: C_16  and  C_18
REMARK    9  A    between atoms: C_16  and  O_23
REMARK   10  A    between atoms: C_18  and  O_19
REMARK   11  A    between atoms: O_19  and  C_20
REMARK   12  A    between atoms: C_20  and  C_22
REMARK   13  A    between atoms: O_23  and  C_24
REMARK   14  A    between atoms: C_24  and  C_26
REMARK   15  A    between atoms: O_27  and  C_28
REMARK   16  A    between atoms: C_28  and  C_30
REMARK   17  A    between atoms: C_31  and  O_33
REMARK   18  A    between atoms: O_33  and  C_34
REMARK                            x       y       z     vdW  Elec       q    Type
REMARK                         _______ _______ _______ _____ _____    ______ ____
ROOT
ATOM      1  C   UNL     1       5.603  -1.301  26.099  0.00  0.00    +0.138 C 
ATOM      2  C   UNL     1       7.158  -1.272  26.045  0.00  0.00    +0.240 C 
ATOM      3  O   UNL     1       7.817  -2.395  26.657  0.00  0.00    -0.476 OA
ATOM      4  C   UNL     1       7.206  -3.628  26.556  0.00  0.00    +0.203 C 
ATOM      5  C   UNL     1       5.964  -3.806  26.091  0.00  0.00    +0.046 C 
ATOM      6  C   UNL     1       5.025  -2.703  25.763  0.00  0.00    +0.102 C 
ENDROOT
BRANCH   1   9
ATOM      7  C   UNL     1       3.741   0.602  28.823  0.00  0.00    +0.109 C 
ATOM      8  C   UNL     1       4.085   0.138  27.436  0.00  0.00    +0.210 C 
ATOM      9  N   UNL     1       5.096  -0.804  27.397  0.00  0.00    -0.307 N 
ATOM     10  H   UNL     1       5.733  -0.809  28.186  0.00  0.00    +0.149 HD
ATOM     11  O   UNL     1       3.509   0.557  26.438  0.00  0.00    -0.276 OA
ENDBRANCH   1   9
BRANCH   6  12
ATOM     12  N   UNL     1       4.617  -2.801  24.361  0.00  0.00    -0.322 NA
ATOM     13  H   UNL     1       4.261  -3.743  24.188  0.00  0.00    +0.119 HD
ATOM     14  H   UNL     1       3.798  -2.201  24.230  0.00  0.00    +0.119 HD
ENDBRANCH   6  12
BRANCH   4  15
ATOM     15  C   UNL     1       7.954  -4.856  26.980  0.00  0.00    +0.374 C 
ATOM     16  O   UNL     1       7.449  -5.766  27.623  0.00  0.00    -0.242 OA
BRANCH  15  17
ATOM     17  O   UNL     1       9.253  -4.805  26.590  0.00  0.00    -0.462 OA
ATOM     18  C   UNL     1       9.451  -5.285  25.257  0.00  0.00    +0.280 C 
ENDBRANCH  15  17
ENDBRANCH   4  15
BRANCH   2  19
ATOM     19  C   UNL     1       7.768  -0.858  24.659  0.00  0.00    +0.262 C 
BRANCH  19  20
ATOM     20  O   UNL     1       6.721  -0.400  23.752  0.00  0.00    -0.454 OA
BRANCH  20  21
ATOM     21  C   UNL     1       6.768   0.891  23.324  0.00  0.00    +0.304 C 
ATOM     22  C   UNL     1       6.718   1.828  24.491  0.00  0.00    +0.136 C 
ATOM     23  O   UNL     1       6.856   1.250  22.160  0.00  0.00    -0.251 OA
ENDBRANCH  20  21
ENDBRANCH  19  20
BRANCH  19  24
ATOM     24  C   UNL     1       8.609  -1.949  23.933  0.00  0.00    +0.258 C 
BRANCH  24  25
ATOM     25  O   UNL     1       9.969  -1.562  23.597  0.00  0.00    -0.454 OA
BRANCH  25  26
ATOM     26  C   UNL     1      10.206  -0.269  23.259  0.00  0.00    +0.304 C 
ATOM     27  C   UNL     1      10.783   0.486  24.414  0.00  0.00    +0.136 C 
ATOM     28  O   UNL     1      10.029   0.218  22.152  0.00  0.00    -0.251 OA
ENDBRANCH  25  26
ENDBRANCH  24  25
BRANCH  24  29
ATOM     29  C   UNL     1       7.977  -2.545  22.654  0.00  0.00    +0.280 C 
BRANCH  29  30
ATOM     30  O   UNL     1       7.286  -3.785  22.844  0.00  0.00    -0.461 OA
BRANCH  30  31
ATOM     31  C   UNL     1       6.442  -4.152  21.842  0.00  0.00    +0.304 C 
ATOM     32  C   UNL     1       6.725  -5.560  21.418  0.00  0.00    +0.136 C 
ATOM     33  O   UNL     1       5.544  -3.464  21.382  0.00  0.00    -0.251 OA
ENDBRANCH  30  31
ENDBRANCH  29  30
ENDBRANCH  24  29
ENDBRANCH  19  24
ENDBRANCH   2  19
TORSDOF 13
ENDMDL
MODEL 4
REMARK VINA RESULT:      -5.8      2.021      3.992
REMARK  Name = 
REMARK  18 active torsions:
REMARK  status: ('A' for Active; 'I' for Inactive)
REMARK    1  A    between atoms: C_1  and  C_2
REMARK    2  A    between atoms: N_4  and  C_5
REMARK    3  A    between atoms: C_7  and  N_35
REMARK    4  A    between atoms: C_10  and  C_31
REMARK    5  A    between atoms: C_12  and  C_14
REMARK    6  A    between atoms: C_14  and  C_16
REMARK    7  A    between atoms: C_14  and  O_27
REMARK    8  A    between atoms: C_16  and  C_18
REMARK    9  A    between atoms: C_16  and  O_23
REMARK   10  A    between atoms: C_18  and  O_19
REMARK   11  A    between atoms: O_19  and  C_20
REMARK   12  A    between atoms: C_20  and  C_22
REMARK   13  A    between atoms: O_23  and  C_24
REMARK   14  A    between atoms: C_24  and  C_26
REMARK   15  A    between atoms: O_27  and  C_28
REMARK   16  A    between atoms: C_28  and  C_30
REMARK   17  A    between atoms: C_31  and  O_33
REMARK   18  A    between atoms: O_33  and  C_34
REMARK                            x       y       z     vdW  Elec       q    Type
REMARK                         _______ _______ _______ _____ _____    ______ ____
ROOT
ATOM      1  C   UNL     1       6.455  -1.844  25.469  0.00  0.00    +0.138 C 
ATOM      2  C   UNL     1       6.645  -1.640  23.938  0.00  0.00    +0.240 C 
ATOM      3  O   UNL     1       6.675  -0.271  23.497  0.00  0.00    -0.476 OA
ATOM      4  C   UNL     1       7.259   0.657  24.334  0.00  0.00    +0.203 C 
ATOM      5  C   UNL     1       7.627   0.394  25.594  0.00  0.00    +0.046 C 
ATOM      6  C   UNL     1       7.327  -0.872  26.309  0.00  0.00    +0.102 C 
ENDROOT
BRANCH   1   9
ATOM      7  C   UNL     1       2.852  -2.666  26.395  0.00  0.00    +0.109 C 
ATOM      8  C   UNL     1       4.304  -2.913  26.098  0.00  0.00    +0.210 C 
ATOM      9  N   UNL     1       5.028  -1.762  25.854  0.00  0.00    -0.307 N 
ATOM     10  H   UNL     1       4.497  -0.960  25.530  0.00  0.00    +0.149 HD
ATOM     11  O   UNL     1       4.793  -4.038  26.087  0.00  0.00    -0.276 OA
ENDBRANCH   1   9
BRANCH   6  12
ATOM     12  N   UNL     1       8.574  -1.501  26.747  0.00  0.00    -0.322 NA
ATOM     13  H   UNL     1       8.495  -2.511  26.614  0.00  0.00    +0.119 HD
ATOM     14  H   UNL     1       9.310  -1.224  26.092  0.00  0.00    +0.119 HD
ENDBRANCH   6  12
BRANCH   4  15
ATOM     15  C   UNL     1       7.512   2.046  23.830  0.00  0.00    +0.374 C 
ATOM     16  O   UNL     1       7.836   2.979  24.552  0.00  0.00    -0.242 OA
BRANCH  15  17
ATOM     17  O   UNL     1       7.302   2.133  22.491  0.00  0.00    -0.462 OA
ATOM     18  C   UNL     1       6.789   3.408  22.092  0.00  0.00    +0.280 C 
ENDBRANCH  15  17
ENDBRANCH   4  15
BRANCH   2  19
ATOM     19  C   UNL     1       7.748  -2.542  23.279  0.00  0.00    +0.262 C 
BRANCH  19  20
ATOM     20  O   UNL     1       8.313  -1.890  22.102  0.00  0.00    -0.454 OA
BRANCH  20  21
ATOM     21  C   UNL     1       9.619  -1.508  22.151  0.00  0.00    +0.304 C 
ATOM     22  C   UNL     1       9.773  -0.115  21.624  0.00  0.00    +0.136 C 
ATOM     23  O   UNL     1      10.541  -2.188  22.576  0.00  0.00    -0.251 OA
ENDBRANCH  20  21
ENDBRANCH  19  20
BRANCH  19  24
ATOM     24  C   UNL     1       7.302  -3.980  22.881  0.00  0.00    +0.258 C 
BRANCH  24  25
ATOM     25  O   UNL     1       5.867  -4.210  22.890  0.00  0.00    -0.454 OA
BRANCH  25  26
ATOM     26  C   UNL     1       5.387  -5.312  22.259  0.00  0.00    +0.304 C 
ATOM     27  C   UNL     1       4.362  -6.003  23.100  0.00  0.00    +0.136 C 
ATOM     28  O   UNL     1       5.697  -5.675  21.133  0.00  0.00    -0.251 OA
ENDBRANCH  25  26
ENDBRANCH  24  25
BRANCH  24  29
ATOM     29  C   UNL     1       7.952  -5.132  23.681  0.00  0.00    +0.280 C 
BRANCH  29  30
ATOM     30  O   UNL     1       7.478  -5.276  25.025  0.00  0.00    -0.461 OA
BRANCH  30  31
ATOM     31  C   UNL     1       8.377  -4.984  26.004  0.00  0.00    +0.304 C 
ATOM     32  C   UNL     1       9.771  -5.058  25.464  0.00  0.00    +0.136 C 
ATOM     33  O   UNL     1       8.100  -4.657  27.148  0.00  0.00    -0.251 OA
ENDBRANCH  30  31
ENDBRANCH  29  30
ENDBRANCH  24  29
ENDBRANCH  19  24
ENDBRANCH   2  19
TORSDOF 13
ENDMDL
MODEL 5
REMARK VINA RESULT:      -5.8      2.174      5.933
REMARK  Name = 
REMARK  18 active torsions:
REMARK  status: ('A' for Active; 'I' for Inactive)
REMARK    1  A    between atoms: C_1  and  C_2
REMARK    2  A    between atoms: N_4  and  C_5
REMARK    3  A    between atoms: C_7  and  N_35
REMARK    4  A    between atoms: C_10  and  C_31
REMARK    5  A    between atoms: C_12  and  C_14
REMARK    6  A    between atoms: C_14  and  C_16
REMARK    7  A    between atoms: C_14  and  O_27
REMARK    8  A    between atoms: C_16  and  C_18
REMARK    9  A    between atoms: C_16  and  O_23
REMARK   10  A    between atoms: C_18  and  O_19
REMARK   11  A    between atoms: O_19  and  C_20
REMARK   12  A    between atoms: C_20  and  C_22
REMARK   13  A    between atoms: O_23  and  C_24
REMARK   14  A    between atoms: C_24  and  C_26
REMARK   15  A    between atoms: O_27  and  C_28
REMARK   16  A    between atoms: C_28  and  C_30
REMARK   17  A    between atoms: C_31  and  O_33
REMARK   18  A    between atoms: O_33  and  C_34
REMARK                            x       y       z     vdW  Elec       q    Type
REMARK                         _______ _______ _______ _____ _____    ______ ____
ROOT
ATOM      1  C   UNL     1       6.974  -4.574  25.106  0.00  0.00    +0.138 C 
ATOM      2  C   UNL     1       6.342  -3.213  24.693  0.00  0.00    +0.240 C 
ATOM      3  O   UNL     1       6.515  -2.141  25.636  0.00  0.00    -0.476 OA
ATOM      4  C   UNL     1       7.698  -2.097  26.344  0.00  0.00    +0.203 C 
ATOM      5  C   UNL     1       8.604  -3.082  26.340  0.00  0.00    +0.046 C 
ATOM      6  C   UNL     1       8.399  -4.408  25.703  0.00  0.00    +0.102 C 
ENDROOT
BRANCH   1   9
ATOM      7  C   UNL     1       4.295  -6.855  26.564  0.00  0.00    +0.109 C 
ATOM      8  C   UNL     1       5.175  -6.235  25.517  0.00  0.00    +0.210 C 
ATOM      9  N   UNL     1       6.088  -5.328  26.021  0.00  0.00    -0.307 N 
ATOM     10  H   UNL     1       5.848  -4.897  26.908  0.00  0.00    +0.149 HD
ATOM     11  O   UNL     1       5.089  -6.522  24.328  0.00  0.00    -0.276 OA
ENDBRANCH   1   9
BRANCH   6  12
ATOM     12  N   UNL     1       9.438  -4.642  24.700  0.00  0.00    -0.322 NA
ATOM     13  H   UNL     1       9.003  -4.667  23.777  0.00  0.00    +0.119 HD
ATOM     14  H   UNL     1      10.034  -3.810  24.667  0.00  0.00    +0.119 HD
ENDBRANCH   6  12
BRANCH   4  15
ATOM     15  C   UNL     1       8.017  -0.886  27.169  0.00  0.00    +0.374 C 
ATOM     16  O   UNL     1       9.156  -0.553  27.468  0.00  0.00    -0.242 OA
BRANCH  15  17
ATOM     17  O   UNL     1       6.888  -0.243  27.562  0.00  0.00    -0.462 OA
ATOM     18  C   UNL     1       7.158   0.904  28.374  0.00  0.00    +0.280 C 
ENDBRANCH  15  17
ENDBRANCH   4  15
BRANCH   2  19
ATOM     19  C   UNL     1       6.589  -2.791  23.202  0.00  0.00    +0.262 C 
BRANCH  19  20
ATOM     20  O   UNL     1       7.224  -3.873  22.458  0.00  0.00    -0.454 OA
BRANCH  20  21
ATOM     21  C   UNL     1       6.487  -4.511  21.507  0.00  0.00    +0.304 C 
ATOM     22  C   UNL     1       6.837  -5.966  21.469  0.00  0.00    +0.136 C 
ATOM     23  O   UNL     1       5.646  -3.988  20.793  0.00  0.00    -0.251 OA
ENDBRANCH  20  21
ENDBRANCH  19  20
BRANCH  19  24
ATOM     24  C   UNL     1       7.423  -1.491  22.992  0.00  0.00    +0.258 C 
BRANCH  24  25
ATOM     25  O   UNL     1       6.663  -0.330  22.563  0.00  0.00    -0.454 OA
BRANCH  25  26
ATOM     26  C   UNL     1       6.815   0.830  23.252  0.00  0.00    +0.304 C 
ATOM     27  C   UNL     1       6.671   2.011  22.346  0.00  0.00    +0.136 C 
ATOM     28  O   UNL     1       6.991   0.919  24.459  0.00  0.00    -0.251 OA
ENDBRANCH  25  26
ENDBRANCH  24  25
BRANCH  24  29
ATOM     29  C   UNL     1       8.637  -1.617  22.043  0.00  0.00    +0.280 C 
BRANCH  29  30
ATOM     30  O   UNL     1       9.915  -1.574  22.690  0.00  0.00    -0.461 OA
BRANCH  30  31
ATOM     31  C   UNL     1      10.232  -0.398  23.296  0.00  0.00    +0.304 C 
ATOM     32  C   UNL     1      10.190   0.722  22.304  0.00  0.00    +0.136 C 
ATOM     33  O   UNL     1      10.467  -0.254  24.486  0.00  0.00    -0.251 OA
ENDBRANCH  30  31
ENDBRANCH  29  30
ENDBRANCH  24  29
ENDBRANCH  19  24
ENDBRANCH   2  19
TORSDOF 13
ENDMDL
MODEL 6
REMARK VINA RESULT:      -5.8      2.221      4.298
REMARK  Name = 
REMARK  18 active torsions:
REMARK  status: ('A' for Active; 'I' for Inactive)
REMARK    1  A    between atoms: C_1  and  C_2
REMARK    2  A    between atoms: N_4  and  C_5
REMARK    3  A    between atoms: C_7  and  N_35
REMARK    4  A    between atoms: C_10  and  C_31
REMARK    5  A    between atoms: C_12  and  C_14
REMARK    6  A    between atoms: C_14  and  C_16
REMARK    7  A    between atoms: C_14  and  O_27
REMARK    8  A    between atoms: C_16  and  C_18
REMARK    9  A    between atoms: C_16  and  O_23
REMARK   10  A    between atoms: C_18  and  O_19
REMARK   11  A    between atoms: O_19  and  C_20
REMARK   12  A    between atoms: C_20  and  C_22
REMARK   13  A    between atoms: O_23  and  C_24
REMARK   14  A    between atoms: C_24  and  C_26
REMARK   15  A    between atoms: O_27  and  C_28
REMARK   16  A    between atoms: C_28  and  C_30
REMARK   17  A    between atoms: C_31  and  O_33
REMARK   18  A    between atoms: O_33  and  C_34
REMARK                            x       y       z     vdW  Elec       q    Type
REMARK                         _______ _______ _______ _____ _____    ______ ____
ROOT
ATOM      1  C   UNL     1       6.696  -1.433  26.570  0.00  0.00    +0.138 C 
ATOM      2  C   UNL     1       6.360  -1.796  25.095  0.00  0.00    +0.240 C 
ATOM      3  O   UNL     1       6.031  -0.684  24.245  0.00  0.00    -0.476 OA
ATOM      4  C   UNL     1       6.692   0.507  24.466  0.00  0.00    +0.203 C 
ATOM      5  C   UNL     1       7.475   0.738  25.527  0.00  0.00    +0.046 C 
ATOM      6  C   UNL     1       7.621  -0.189  26.679  0.00  0.00    +0.102 C 
ENDROOT
BRANCH   1   9
ATOM      7  C   UNL     1       3.535  -2.042  28.605  0.00  0.00    +0.109 C 
ATOM      8  C   UNL     1       4.806  -2.373  27.876  0.00  0.00    +0.210 C 
ATOM      9  N   UNL     1       5.469  -1.266  27.381  0.00  0.00    -0.307 N 
ATOM     10  H   UNL     1       4.901  -0.442  27.214  0.00  0.00    +0.149 HD
ATOM     11  O   UNL     1       5.213  -3.523  27.748  0.00  0.00    -0.276 OA
ENDBRANCH   1   9
BRANCH   6  12
ATOM     12  N   UNL     1       9.026  -0.569  26.832  0.00  0.00    -0.322 NA
ATOM     13  H   UNL     1       9.217  -0.719  27.825  0.00  0.00    +0.119 HD
ATOM     14  H   UNL     1       9.147  -1.496  26.416  0.00  0.00    +0.119 HD
ENDBRANCH   6  12
BRANCH   4  15
ATOM     15  C   UNL     1       6.548   1.623  23.475  0.00  0.00    +0.374 C 
ATOM     16  O   UNL     1       6.580   1.459  22.263  0.00  0.00    -0.242 OA
BRANCH  15  17
ATOM     17  O   UNL     1       6.414   2.823  24.096  0.00  0.00    -0.462 OA
ATOM     18  C   UNL     1       7.258   3.834  23.537  0.00  0.00    +0.280 C 
ENDBRANCH  15  17
ENDBRANCH   4  15
BRANCH   2  19
ATOM     19  C   UNL     1       7.330  -2.836  24.430  0.00  0.00    +0.262 C 
BRANCH  19  20
ATOM     20  O   UNL     1       8.523  -3.025  25.248  0.00  0.00    -0.454 OA
BRANCH  20  21
ATOM     21  C   UNL     1       8.964  -4.298  25.447  0.00  0.00    +0.304 C 
ATOM     22  C   UNL     1       8.287  -4.901  26.638  0.00  0.00    +0.136 C 
ATOM     23  O   UNL     1       9.781  -4.883  24.753  0.00  0.00    -0.251 OA
ENDBRANCH  20  21
ENDBRANCH  19  20
BRANCH  19  24
ATOM     24  C   UNL     1       7.776  -2.514  22.972  0.00  0.00    +0.258 C 
BRANCH  24  25
ATOM     25  O   UNL     1       7.661  -3.615  22.031  0.00  0.00    -0.454 OA
BRANCH  25  26
ATOM     26  C   UNL     1       6.471  -4.262  21.940  0.00  0.00    +0.304 C 
ATOM     27  C   UNL     1       6.636  -5.722  22.225  0.00  0.00    +0.136 C 
ATOM     28  O   UNL     1       5.392  -3.735  21.713  0.00  0.00    -0.251 OA
ENDBRANCH  25  26
ENDBRANCH  24  25
BRANCH  24  29
ATOM     29  C   UNL     1       9.200  -1.931  22.818  0.00  0.00    +0.280 C 
BRANCH  29  30
ATOM     30  O   UNL     1       9.256  -0.621  22.242  0.00  0.00    -0.461 OA
BRANCH  30  31
ATOM     31  C   UNL     1      10.030   0.284  22.901  0.00  0.00    +0.304 C 
ATOM     32  C   UNL     1      10.082   1.571  22.139  0.00  0.00    +0.136 C 
ATOM     33  O   UNL     1      10.567   0.103  23.983  0.00  0.00    -0.251 OA
ENDBRANCH  30  31
ENDBRANCH  29  30
ENDBRANCH  24  29
ENDBRANCH  19  24
ENDBRANCH   2  19
TORSDOF 13
ENDMDL
MODEL 7
REMARK VINA RESULT:      -5.8      3.124      7.235
REMARK  Name = 
REMARK  18 active torsions:
REMARK  status: ('A' for Active; 'I' for Inactive)
REMARK    1  A    between atoms: C_1  and  C_2
REMARK    2  A    between atoms: N_4  and  C_5
REMARK    3  A    between atoms: C_7  and  N_35
REMARK    4  A    between atoms: C_10  and  C_31
REMARK    5  A    between atoms: C_12  and  C_14
REMARK    6  A    between atoms: C_14  and  C_16
REMARK    7  A    between atoms: C_14  and  O_27
REMARK    8  A    between atoms: C_16  and  C_18
REMARK    9  A    between atoms: C_16  and  O_23
REMARK   10  A    between atoms: C_18  and  O_19
REMARK   11  A    between atoms: O_19  and  C_20
REMARK   12  A    between atoms: C_20  and  C_22
REMARK   13  A    between atoms: O_23  and  C_24
REMARK   14  A    between atoms: C_24  and  C_26
REMARK   15  A    between atoms: O_27  and  C_28
REMARK   16  A    between atoms: C_28  and  C_30
REMARK   17  A    between atoms: C_31  and  O_33
REMARK   18  A    between atoms: O_33  and  C_34
REMARK                            x       y       z     vdW  Elec       q    Type
REMARK                         _______ _______ _______ _____ _____    ______ ____
ROOT
ATOM      1  C   UNL     1       7.531   0.543  25.867  0.00  0.00    +0.138 C 
ATOM      2  C   UNL     1       8.945   0.211  25.308  0.00  0.00    +0.240 C 
ATOM      3  O   UNL     1       9.373  -1.151  25.484  0.00  0.00    -0.476 OA
ATOM      4  C   UNL     1       8.414  -2.139  25.401  0.00  0.00    +0.203 C 
ATOM      5  C   UNL     1       7.099  -1.896  25.351  0.00  0.00    +0.046 C 
ATOM      6  C   UNL     1       6.486  -0.555  25.527  0.00  0.00    +0.102 C 
ENDROOT
BRANCH   1   9
ATOM      7  C   UNL     1       7.068   2.071  29.325  0.00  0.00    +0.109 C 
ATOM      8  C   UNL     1       6.855   1.873  27.852  0.00  0.00    +0.210 C 
ATOM      9  N   UNL     1       7.574   0.819  27.320  0.00  0.00    -0.307 N 
ATOM     10  H   UNL     1       8.408   0.545  27.828  0.00  0.00    +0.149 HD
ATOM     11  O   UNL     1       6.101   2.581  27.193  0.00  0.00    -0.276 OA
ENDBRANCH   1   9
BRANCH   6  12
ATOM     12  N   UNL     1       5.702  -0.210  24.341  0.00  0.00    -0.322 NA
ATOM     13  H   UNL     1       4.837   0.245  24.641  0.00  0.00    +0.119 HD
ATOM     14  H   UNL     1       6.203   0.527  23.837  0.00  0.00    +0.119 HD
ENDBRANCH   6  12
BRANCH   4  15
ATOM     15  C   UNL     1       8.840  -3.576  25.358  0.00  0.00    +0.374 C 
ATOM     16  O   UNL     1       9.120  -4.167  24.323  0.00  0.00    -0.242 OA
BRANCH  15  17
ATOM     17  O   UNL     1       8.839  -4.131  26.597  0.00  0.00    -0.462 OA
ATOM     18  C   UNL     1       7.931  -5.230  26.711  0.00  0.00    +0.280 C 
ENDBRANCH  15  17
ENDBRANCH   4  15
BRANCH   2  19
ATOM     19  C   UNL     1       9.248   0.790  23.880  0.00  0.00    +0.262 C 
BRANCH  19  20
ATOM     20  O   UNL     1      10.414   0.136  23.295  0.00  0.00    -0.454 OA
BRANCH  20  21
ATOM     21  C   UNL     1      10.200  -0.809  22.339  0.00  0.00    +0.304 C 
ATOM     22  C   UNL     1       9.303  -0.272  21.268  0.00  0.00    +0.136 C 
ATOM     23  O   UNL     1      10.680  -1.933  22.332  0.00  0.00    -0.251 OA
ENDBRANCH  20  21
ENDBRANCH  19  20
BRANCH  19  24
ATOM     24  C   UNL     1       9.456   2.332  23.802  0.00  0.00    +0.258 C 
BRANCH  24  25
ATOM     25  O   UNL     1       8.841   2.983  22.659  0.00  0.00    -0.454 OA
BRANCH  25  26
ATOM     26  C   UNL     1       7.529   3.325  22.741  0.00  0.00    +0.304 C 
ATOM     27  C   UNL     1       7.337   4.776  22.429  0.00  0.00    +0.136 C 
ATOM     28  O   UNL     1       6.610   2.556  22.981  0.00  0.00    -0.251 OA
ENDBRANCH  25  26
ENDBRANCH  24  25
BRANCH  24  29
ATOM     29  C   UNL     1      10.922   2.817  23.869  0.00  0.00    +0.280 C 
BRANCH  29  30
ATOM     30  O   UNL     1      11.290   3.766  22.860  0.00  0.00    -0.461 OA
BRANCH  30  31
ATOM     31  C   UNL     1      12.007   4.840  23.291  0.00  0.00    +0.304 C 
ATOM     32  C   UNL     1      11.093   5.869  23.878  0.00  0.00    +0.136 C 
ATOM     33  O   UNL     1      13.224   4.940  23.258  0.00  0.00    -0.251 OA
ENDBRANCH  30  31
ENDBRANCH  29  30
ENDBRANCH  24  29
ENDBRANCH  19  24
ENDBRANCH   2  19
TORSDOF 13
ENDMDL
MODEL 8
REMARK VINA RESULT:      -5.7      1.643      2.924
REMARK  Name = 
REMARK  18 active torsions:
REMARK  status: ('A' for Active; 'I' for Inactive)
REMARK    1  A    between atoms: C_1  and  C_2
REMARK    2  A    between atoms: N_4  and  C_5
REMARK    3  A    between atoms: C_7  and  N_35
REMARK    4  A    between atoms: C_10  and  C_31
REMARK    5  A    between atoms: C_12  and  C_14
REMARK    6  A    between atoms: C_14  and  C_16
REMARK    7  A    between atoms: C_14  and  O_27
REMARK    8  A    between atoms: C_16  and  C_18
REMARK    9  A    between atoms: C_16  and  O_23
REMARK   10  A    between atoms: C_18  and  O_19
REMARK   11  A    between atoms: O_19  and  C_20
REMARK   12  A    between atoms: C_20  and  C_22
REMARK   13  A    between atoms: O_23  and  C_24
REMARK   14  A    between atoms: C_24  and  C_26
REMARK   15  A    between atoms: O_27  and  C_28
REMARK   16  A    between atoms: C_28  and  C_30
REMARK   17  A    between atoms: C_31  and  O_33
REMARK   18  A    between atoms: O_33  and  C_34
REMARK                            x       y       z     vdW  Elec       q    Type
REMARK                         _______ _______ _______ _____ _____    ______ ____
ROOT
ATOM      1  C   UNL     1       6.300  -2.105  24.959  0.00  0.00    +0.138 C 
ATOM      2  C   UNL     1       6.208  -2.529  23.464  0.00  0.00    +0.240 C 
ATOM      3  O   UNL     1       7.234  -1.996  22.608  0.00  0.00    -0.476 OA
ATOM      4  C   UNL     1       8.496  -1.841  23.142  0.00  0.00    +0.203 C 
ATOM      5  C   UNL     1       8.775  -1.980  24.445  0.00  0.00    +0.046 C 
ATOM      6  C   UNL     1       7.752  -2.170  25.505  0.00  0.00    +0.102 C 
ENDROOT
BRANCH   1   9
ATOM      7  C   UNL     1       4.397   0.865  26.396  0.00  0.00    +0.109 C 
ATOM      8  C   UNL     1       5.021  -0.500  26.357  0.00  0.00    +0.210 C 
ATOM      9  N   UNL     1       5.697  -0.772  25.182  0.00  0.00    -0.307 N 
ATOM     10  H   UNL     1       5.408  -0.242  24.367  0.00  0.00    +0.149 HD
ATOM     11  O   UNL     1       4.940  -1.290  27.292  0.00  0.00    -0.276 OA
ENDBRANCH   1   9
BRANCH   6  12
ATOM     12  N   UNL     1       8.008  -3.421  26.220  0.00  0.00    -0.322 NA
ATOM     13  H   UNL     1       8.640  -3.230  26.999  0.00  0.00    +0.119 HD
ATOM     14  H   UNL     1       7.137  -3.706  26.675  0.00  0.00    +0.119 HD
ENDBRANCH   6  12
BRANCH   4  15
ATOM     15  C   UNL     1       9.642  -1.501  22.237  0.00  0.00    +0.374 C 
ATOM     16  O   UNL     1      10.775  -1.937  22.389  0.00  0.00    -0.242 OA
BRANCH  15  17
ATOM     17  O   UNL     1       9.264  -0.633  21.264  0.00  0.00    -0.462 OA
ATOM     18  C   UNL     1       9.468   0.735  21.632  0.00  0.00    +0.280 C 
ENDBRANCH  15  17
ENDBRANCH   4  15
BRANCH   2  19
ATOM     19  C   UNL     1       5.908  -4.051  23.222  0.00  0.00    +0.262 C 
BRANCH  19  20
ATOM     20  O   UNL     1       5.548  -4.291  21.829  0.00  0.00    -0.454 OA
BRANCH  20  21
ATOM     21  C   UNL     1       6.223  -5.261  21.154  0.00  0.00    +0.304 C 
ATOM     22  C   UNL     1       7.366  -5.767  21.977  0.00  0.00    +0.136 C 
ATOM     23  O   UNL     1       5.939  -5.681  20.042  0.00  0.00    -0.251 OA
ENDBRANCH  20  21
ENDBRANCH  19  20
BRANCH  19  24
ATOM     24  C   UNL     1       4.812  -4.681  24.133  0.00  0.00    +0.258 C 
BRANCH  24  25
ATOM     25  O   UNL     1       5.134  -5.989  24.677  0.00  0.00    -0.454 OA
BRANCH  25  26
ATOM     26  C   UNL     1       5.424  -6.082  26.000  0.00  0.00    +0.304 C 
ATOM     27  C   UNL     1       4.180  -6.292  26.803  0.00  0.00    +0.136 C 
ATOM     28  O   UNL     1       6.546  -6.055  26.484  0.00  0.00    -0.251 OA
ENDBRANCH  25  26
ENDBRANCH  24  25
BRANCH  24  29
ATOM     29  C   UNL     1       3.399  -4.781  23.512  0.00  0.00    +0.280 C 
BRANCH  29  30
ATOM     30  O   UNL     1       3.034  -6.087  23.051  0.00  0.00    -0.461 OA
BRANCH  30  31
ATOM     31  C   UNL     1       1.699  -6.325  22.942  0.00  0.00    +0.304 C 
ATOM     32  C   UNL     1       0.942  -5.473  23.913  0.00  0.00    +0.136 C 
ATOM     33  O   UNL     1       1.175  -7.081  22.138  0.00  0.00    -0.251 OA
ENDBRANCH  30  31
ENDBRANCH  29  30
ENDBRANCH  24  29
ENDBRANCH  19  24
ENDBRANCH   2  19
TORSDOF 13
ENDMDL
MODEL 9
REMARK VINA RESULT:      -5.7      2.323      5.068
REMARK  Name = 
REMARK  18 active torsions:
REMARK  status: ('A' for Active; 'I' for Inactive)
REMARK    1  A    between atoms: C_1  and  C_2
REMARK    2  A    between atoms: N_4  and  C_5
REMARK    3  A    between atoms: C_7  and  N_35
REMARK    4  A    between atoms: C_10  and  C_31
REMARK    5  A    between atoms: C_12  and  C_14
REMARK    6  A    between atoms: C_14  and  C_16
REMARK    7  A    between atoms: C_14  and  O_27
REMARK    8  A    between atoms: C_16  and  C_18
REMARK    9  A    between atoms: C_16  and  O_23
REMARK   10  A    between atoms: C_18  and  O_19
REMARK   11  A    between atoms: O_19  and  C_20
REMARK   12  A    between atoms: C_20  and  C_22
REMARK   13  A    between atoms: O_23  and  C_24
REMARK   14  A    between atoms: C_24  and  C_26
REMARK   15  A    between atoms: O_27  and  C_28
REMARK   16  A    between atoms: C_28  and  C_30
REMARK   17  A    between atoms: C_31  and  O_33
REMARK   18  A    between atoms: O_33  and  C_34
REMARK                            x       y       z     vdW  Elec       q    Type
REMARK                         _______ _______ _______ _____ _____    ______ ____
ROOT
ATOM      1  C   UNL     1       8.759  -3.014  25.013  0.00  0.00    +0.138 C 
ATOM      2  C   UNL     1       7.227  -2.784  24.868  0.00  0.00    +0.240 C 
ATOM      3  O   UNL     1       6.603  -3.463  23.765  0.00  0.00    -0.476 OA
ATOM      4  C   UNL     1       7.088  -4.708  23.423  0.00  0.00    +0.203 C 
ATOM      5  C   UNL     1       8.209  -5.235  23.931  0.00  0.00    +0.046 C 
ATOM      6  C   UNL     1       9.157  -4.501  24.808  0.00  0.00    +0.102 C 
ENDROOT
BRANCH   1   9
ATOM      7  C   UNL     1      10.533  -0.023  23.457  0.00  0.00    +0.109 C 
ATOM      8  C   UNL     1       9.821  -0.827  24.507  0.00  0.00    +0.210 C 
ATOM      9  N   UNL     1       9.529  -2.120  24.118  0.00  0.00    -0.307 N 
ATOM     10  H   UNL     1       9.463  -2.282  23.118  0.00  0.00    +0.149 HD
ATOM     11  O   UNL     1       9.539  -0.369  25.610  0.00  0.00    -0.276 OA
ENDBRANCH   1   9
BRANCH   6  12
ATOM     12  N   UNL     1       9.297  -5.206  26.083  0.00  0.00    -0.322 NA
ATOM     13  H   UNL     1       9.642  -4.548  26.785  0.00  0.00    +0.119 HD
ATOM     14  H   UNL     1       8.359  -5.446  26.413  0.00  0.00    +0.119 HD
ENDBRANCH   6  12
BRANCH   4  15
ATOM     15  C   UNL     1       6.335  -5.545  22.433  0.00  0.00    +0.374 C 
ATOM     16  O   UNL     1       6.818  -6.513  21.861  0.00  0.00    -0.242 OA
BRANCH  15  17
ATOM     17  O   UNL     1       5.079  -5.069  22.235  0.00  0.00    -0.462 OA
ATOM     18  C   UNL     1       4.092  -5.780  22.988  0.00  0.00    +0.280 C 
ENDBRANCH  15  17
ENDBRANCH   4  15
BRANCH   2  19
ATOM     19  C   UNL     1       6.413  -2.870  26.208  0.00  0.00    +0.262 C 
BRANCH  19  20
ATOM     20  O   UNL     1       5.574  -4.064  26.225  0.00  0.00    -0.454 OA
BRANCH  20  21
ATOM     21  C   UNL     1       5.995  -5.129  26.960  0.00  0.00    +0.304 C 
ATOM     22  C   UNL     1       5.318  -6.381  26.497  0.00  0.00    +0.136 C 
ATOM     23  O   UNL     1       6.820  -5.087  27.860  0.00  0.00    -0.251 OA
ENDBRANCH  20  21
ENDBRANCH  19  20
BRANCH  19  24
ATOM     24  C   UNL     1       5.524  -1.636  26.545  0.00  0.00    +0.258 C 
BRANCH  24  25
ATOM     25  O   UNL     1       4.153  -1.711  26.071  0.00  0.00    -0.454 OA
BRANCH  25  26
ATOM     26  C   UNL     1       3.152  -1.477  26.958  0.00  0.00    +0.304 C 
ATOM     27  C   UNL     1       3.468  -2.083  28.288  0.00  0.00    +0.136 C 
ATOM     28  O   UNL     1       2.148  -0.816  26.735  0.00  0.00    -0.251 OA
ENDBRANCH  25  26
ENDBRANCH  24  25
BRANCH  24  29
ATOM     29  C   UNL     1       6.084  -0.264  26.103  0.00  0.00    +0.280 C 
BRANCH  29  30
ATOM     30  O   UNL     1       5.545   0.241  24.876  0.00  0.00    -0.461 OA
BRANCH  30  31
ATOM     31  C   UNL     1       6.455   0.687  23.968  0.00  0.00    +0.304 C 
ATOM     32  C   UNL     1       7.009   2.010  24.399  0.00  0.00    +0.136 C 
ATOM     33  O   UNL     1       6.818   0.084  22.970  0.00  0.00    -0.251 OA
ENDBRANCH  30  31
ENDBRANCH  29  30
ENDBRANCH  24  29
ENDBRANCH  19  24
ENDBRANCH   2  19
TORSDOF 13
ENDMDL
