MODEL 1
REMARK VINA RESULT:      -7.9      0.000      0.000
REMARK  Name = 
REMARK  10 active torsions:
REMARK  status: ('A' for Active; 'I' for Inactive)
REMARK    1  A    between atoms: C_1  and  C_2
REMARK    2  A    between atoms: C_5  and  C_7
REMARK    3  A    between atoms: N_9  and  C_10
REMARK    4  A    between atoms: C_10  and  C_11
REMARK    5  A    between atoms: C_10  and  C_12
REMARK    6  A    between atoms: C_10  and  C_13
REMARK    7  A    between atoms: C_15  and  C_22
REMARK    8  A    between atoms: N_19  and  C_20
REMARK    9  A    between atoms: N_24  and  C_25
REMARK   10  A    between atoms: C_25  and  C_26
REMARK                            x       y       z     vdW  Elec       q    Type
REMARK                         _______ _______ _______ _____ _____    ______ ____
ROOT
ATOM      1  C   UNL     1       7.139  -4.529  23.383  0.00  0.00    +0.136 A 
ATOM      2  N   UNL     1       7.080  -4.557  24.758  0.00  0.00    -0.299 N 
ATOM      3  C   UNL     1       6.364  -5.558  25.530  0.00  0.00    +0.154 C 
ATOM      4  C   UNL     1       7.596  -3.504  25.513  0.00  0.00    +0.247 A 
ATOM      5  O   UNL     1       7.377  -3.435  26.728  0.00  0.00    -0.268 OA
ATOM      6  C   UNL     1       8.425  -2.448  24.793  0.00  0.00    -0.010 A 
ATOM      7  O   UNL     1       8.990  -1.585  25.543  0.00  0.00    -0.869 OA
ATOM      8  C   UNL     1       8.427  -2.596  23.443  0.00  0.00    +0.125 A 
ATOM      9  N   UNL     1       7.777  -3.596  22.749  0.00  0.00    -0.227 NA
ENDROOT
BRANCH   8  10
ATOM     10  C   UNL     1       9.239  -1.600  22.557  0.00  0.00    +0.262 C 
ATOM     11  N   UNL     1       8.556  -0.489  22.131  0.00  0.00    -0.306 N 
ATOM     12  H   UNL     1       7.606  -0.425  22.523  0.00  0.00    +0.149 HD
ATOM     13  O   UNL     1      10.418  -1.804  22.256  0.00  0.00    -0.269 OA
BRANCH  11  14
ATOM     14  C   UNL     1       9.078   0.611  21.371  0.00  0.00    +0.140 C 
BRANCH  14  15
ATOM     15  C   UNL     1       9.252   1.847  22.229  0.00  0.00    -0.030 A 
ATOM     16  C   UNL     1      10.517   2.200  22.724  0.00  0.00    +0.008 A 
ATOM     17  C   UNL     1      10.682   3.357  23.489  0.00  0.00    +0.038 A 
ATOM     18  C   UNL     1       9.583   4.162  23.762  0.00  0.00    +0.123 A 
ATOM     19  F   UNL     1       9.751   5.281  24.485  0.00  0.00    -0.205 F 
ATOM     20  C   UNL     1       8.320   3.829  23.296  0.00  0.00    +0.038 A 
ATOM     21  C   UNL     1       8.152   2.671  22.533  0.00  0.00    +0.008 A 
ENDBRANCH  14  15
ENDBRANCH  11  14
ENDBRANCH   8  10
BRANCH   1  22
ATOM     22  C   UNL     1       6.544  -5.716  22.473  0.00  0.00    +0.087 C 
ATOM     23  C   UNL     1       6.303  -5.162  21.049  0.00  0.00    +0.039 C 
ATOM     24  C   UNL     1       7.630  -6.808  22.403  0.00  0.00    +0.039 C 
BRANCH  22  26
ATOM     25  C   UNL     1       4.054  -5.589  23.091  0.00  0.00    +0.301 C 
ATOM     26  N   UNL     1       5.259  -6.278  22.952  0.00  0.00    -0.295 N 
ATOM     27  H   UNL     1       5.287  -7.186  23.397  0.00  0.00    +0.150 HD
ATOM     28  O   UNL     1       3.931  -4.388  22.852  0.00  0.00    -0.265 OA
BRANCH  25  32
ATOM     29  C   UNL     1       1.700  -9.355  25.067  0.00  0.00    +0.111 C 
ATOM     30  C   UNL     1       1.887  -8.047  24.414  0.00  0.00    +0.215 A 
ATOM     31  O   UNL     1       3.170  -7.655  24.124  0.00  0.00    -0.417 OA
ATOM     32  C   UNL     1       2.950  -6.430  23.534  0.00  0.00    +0.304 A 
ATOM     33  N   UNL     1       1.666  -6.119  23.470  0.00  0.00    -0.102 NA
ATOM     34  N   UNL     1       0.984  -7.164  24.053  0.00  0.00    -0.112 NA
ENDBRANCH  25  32
ENDBRANCH  22  26
ENDBRANCH   1  22
TORSDOF 6
ENDMDL
MODEL 2
REMARK VINA RESULT:      -7.9      1.926      2.684
REMARK  Name = 
REMARK  10 active torsions:
REMARK  status: ('A' for Active; 'I' for Inactive)
REMARK    1  A    between atoms: C_1  and  C_2
REMARK    2  A    between atoms: C_5  and  C_7
REMARK    3  A    between atoms: N_9  and  C_10
REMARK    4  A    between atoms: C_10  and  C_11
REMARK    5  A    between atoms: C_10  and  C_12
REMARK    6  A    between atoms: C_10  and  C_13
REMARK    7  A    between atoms: C_15  and  C_22
REMARK    8  A    between atoms: N_19  and  C_20
REMARK    9  A    between atoms: N_24  and  C_25
REMARK   10  A    between atoms: C_25  and  C_26
REMARK                            x       y       z     vdW  Elec       q    Type
REMARK                         _______ _______ _______ _____ _____    ______ ____
ROOT
ATOM      1  C   UNL     1       6.835  -3.273  25.357  0.00  0.00    +0.136 A 
ATOM      2  N   UNL     1       7.824  -4.229  25.382  0.00  0.00    -0.299 N 
ATOM      3  C   UNL     1       7.783  -5.435  26.191  0.00  0.00    +0.154 C 
ATOM      4  C   UNL     1       9.035  -4.016  24.722  0.00  0.00    +0.247 A 
ATOM      5  O   UNL     1       9.990  -4.782  24.898  0.00  0.00    -0.268 OA
ATOM      6  C   UNL     1       9.140  -2.815  23.792  0.00  0.00    -0.010 A 
ATOM      7  O   UNL     1      10.213  -2.739  23.107  0.00  0.00    -0.869 OA
ATOM      8  C   UNL     1       8.056  -1.999  23.845  0.00  0.00    +0.125 A 
ATOM      9  N   UNL     1       6.938  -2.206  24.629  0.00  0.00    -0.227 NA
ENDROOT
BRANCH   8  10
ATOM     10  C   UNL     1       8.000  -0.726  22.943  0.00  0.00    +0.262 C 
ATOM     11  N   UNL     1       9.213  -0.237  22.528  0.00  0.00    -0.306 N 
ATOM     12  H   UNL     1      10.005  -0.831  22.812  0.00  0.00    +0.149 HD
ATOM     13  O   UNL     1       6.933  -0.193  22.629  0.00  0.00    -0.269 OA
BRANCH  11  14
ATOM     14  C   UNL     1       9.446   0.869  21.643  0.00  0.00    +0.140 C 
BRANCH  14  15
ATOM     15  C   UNL     1       9.376   2.191  22.377  0.00  0.00    -0.030 A 
ATOM     16  C   UNL     1       8.201   2.959  22.354  0.00  0.00    +0.008 A 
ATOM     17  C   UNL     1       8.127   4.164  23.058  0.00  0.00    +0.038 A 
ATOM     18  C   UNL     1       9.228   4.605  23.783  0.00  0.00    +0.123 A 
ATOM     19  F   UNL     1       9.145   5.755  24.469  0.00  0.00    -0.205 F 
ATOM     20  C   UNL     1      10.405   3.872  23.810  0.00  0.00    +0.038 A 
ATOM     21  C   UNL     1      10.482   2.668  23.105  0.00  0.00    +0.008 A 
ENDBRANCH  14  15
ENDBRANCH  11  14
ENDBRANCH   8  10
BRANCH   1  22
ATOM     22  C   UNL     1       5.429  -3.472  26.116  0.00  0.00    +0.087 C 
ATOM     23  C   UNL     1       5.709  -3.595  27.632  0.00  0.00    +0.039 C 
ATOM     24  C   UNL     1       4.606  -2.192  25.866  0.00  0.00    +0.039 C 
BRANCH  22  26
ATOM     25  C   UNL     1       4.255  -4.995  24.413  0.00  0.00    +0.301 C 
ATOM     26  N   UNL     1       4.671  -4.677  25.705  0.00  0.00    -0.295 N 
ATOM     27  H   UNL     1       4.250  -5.233  26.440  0.00  0.00    +0.150 HD
ATOM     28  O   UNL     1       4.453  -4.266  23.441  0.00  0.00    -0.265 OA
BRANCH  25  32
ATOM     29  C   UNL     1       1.141  -8.405  22.896  0.00  0.00    +0.111 C 
ATOM     30  C   UNL     1       2.248  -7.805  23.662  0.00  0.00    +0.215 A 
ATOM     31  O   UNL     1       2.524  -6.477  23.451  0.00  0.00    -0.417 OA
ATOM     32  C   UNL     1       3.576  -6.280  24.318  0.00  0.00    +0.304 A 
ATOM     33  N   UNL     1       3.896  -7.376  24.987  0.00  0.00    -0.102 NA
ATOM     34  N   UNL     1       3.042  -8.363  24.547  0.00  0.00    -0.112 NA
ENDBRANCH  25  32
ENDBRANCH  22  26
ENDBRANCH   1  22
TORSDOF 6
ENDMDL
MODEL 3
REMARK VINA RESULT:      -7.9      3.973     10.144
REMARK  Name = 
REMARK  10 active torsions:
REMARK  status: ('A' for Active; 'I' for Inactive)
REMARK    1  A    between atoms: C_1  and  C_2
REMARK    2  A    between atoms: C_5  and  C_7
REMARK    3  A    between atoms: N_9  and  C_10
REMARK    4  A    between atoms: C_10  and  C_11
REMARK    5  A    between atoms: C_10  and  C_12
REMARK    6  A    between atoms: C_10  and  C_13
REMARK    7  A    between atoms: C_15  and  C_22
REMARK    8  A    between atoms: N_19  and  C_20
REMARK    9  A    between atoms: N_24  and  C_25
REMARK   10  A    between atoms: C_25  and  C_26
REMARK                            x       y       z     vdW  Elec       q    Type
REMARK                         _______ _______ _______ _____ _____    ______ ____
ROOT
ATOM      1  C   UNL     1       8.283   0.081  23.850  0.00  0.00    +0.136 A 
ATOM      2  N   UNL     1       9.408  -0.262  23.135  0.00  0.00    -0.299 N 
ATOM      3  C   UNL     1      10.100   0.625  22.215  0.00  0.00    +0.154 C 
ATOM      4  C   UNL     1       9.878  -1.575  23.136  0.00  0.00    +0.247 A 
ATOM      5  O   UNL     1      10.768  -1.926  22.351  0.00  0.00    -0.268 OA
ATOM      6  C   UNL     1       9.259  -2.555  24.125  0.00  0.00    -0.010 A 
ATOM      7  O   UNL     1       9.814  -3.701  24.186  0.00  0.00    -0.869 OA
ATOM      8  C   UNL     1       8.193  -2.042  24.791  0.00  0.00    +0.125 A 
ATOM      9  N   UNL     1       7.697  -0.762  24.640  0.00  0.00    -0.227 NA
ENDROOT
BRANCH   8  10
ATOM     10  C   UNL     1       7.450  -2.914  25.851  0.00  0.00    +0.262 C 
ATOM     11  N   UNL     1       7.443  -4.265  25.609  0.00  0.00    -0.306 N 
ATOM     12  H   UNL     1       8.003  -4.531  24.787  0.00  0.00    +0.149 HD
ATOM     13  O   UNL     1       6.901  -2.419  26.838  0.00  0.00    -0.269 OA
BRANCH  11  14
ATOM     14  C   UNL     1       6.897  -5.293  26.450  0.00  0.00    +0.140 C 
BRANCH  14  15
ATOM     15  C   UNL     1       5.681  -5.939  25.820  0.00  0.00    -0.030 A 
ATOM     16  C   UNL     1       5.434  -5.804  24.444  0.00  0.00    +0.008 A 
ATOM     17  C   UNL     1       4.329  -6.426  23.858  0.00  0.00    +0.038 A 
ATOM     18  C   UNL     1       3.469  -7.183  24.645  0.00  0.00    +0.123 A 
ATOM     19  F   UNL     1       2.418  -7.791  24.073  0.00  0.00    -0.205 F 
ATOM     20  C   UNL     1       3.683  -7.321  26.009  0.00  0.00    +0.038 A 
ATOM     21  C   UNL     1       4.786  -6.697  26.598  0.00  0.00    +0.008 A 
ENDBRANCH  14  15
ENDBRANCH  11  14
ENDBRANCH   8  10
BRANCH   1  22
ATOM     22  C   UNL     1       7.699   1.581  23.865  0.00  0.00    +0.087 C 
ATOM     23  C   UNL     1       6.828   1.775  22.601  0.00  0.00    +0.039 C 
ATOM     24  C   UNL     1       6.797   1.693  25.110  0.00  0.00    +0.039 C 
BRANCH  22  26
ATOM     25  C   UNL     1       8.516   4.007  24.075  0.00  0.00    +0.301 C 
ATOM     26  N   UNL     1       8.729   2.646  23.860  0.00  0.00    -0.295 N 
ATOM     27  H   UNL     1       9.640   2.409  23.487  0.00  0.00    +0.150 HD
ATOM     28  O   UNL     1       7.402   4.494  24.267  0.00  0.00    -0.265 OA
BRANCH  25  32
ATOM     29  C   UNL     1      13.110   5.284  23.132  0.00  0.00    +0.111 C 
ATOM     30  C   UNL     1      11.734   5.402  23.647  0.00  0.00    +0.215 A 
ATOM     31  O   UNL     1      10.889   4.336  23.463  0.00  0.00    -0.417 OA
ATOM     32  C   UNL     1       9.739   4.798  24.063  0.00  0.00    +0.304 A 
ATOM     33  N   UNL     1       9.879   6.015  24.563  0.00  0.00    -0.102 NA
ATOM     34  N   UNL     1      11.169   6.406  24.278  0.00  0.00    -0.112 NA
ENDBRANCH  25  32
ENDBRANCH  22  26
ENDBRANCH   1  22
TORSDOF 6
ENDMDL
MODEL 4
REMARK VINA RESULT:      -7.6      2.112      3.239
REMARK  Name = 
REMARK  10 active torsions:
REMARK  status: ('A' for Active; 'I' for Inactive)
REMARK    1  A    between atoms: C_1  and  C_2
REMARK    2  A    between atoms: C_5  and  C_7
REMARK    3  A    between atoms: N_9  and  C_10
REMARK    4  A    between atoms: C_10  and  C_11
REMARK    5  A    between atoms: C_10  and  C_12
REMARK    6  A    between atoms: C_10  and  C_13
REMARK    7  A    between atoms: C_15  and  C_22
REMARK    8  A    between atoms: N_19  and  C_20
REMARK    9  A    between atoms: N_24  and  C_25
REMARK   10  A    between atoms: C_25  and  C_26
REMARK                            x       y       z     vdW  Elec       q    Type
REMARK                         _______ _______ _______ _____ _____    ______ ____
ROOT
ATOM      1  C   UNL     1       5.054  -4.739  25.485  0.00  0.00    +0.136 A 
ATOM      2  N   UNL     1       5.888  -5.521  26.251  0.00  0.00    -0.299 N 
ATOM      3  C   UNL     1       5.458  -6.309  27.393  0.00  0.00    +0.154 C 
ATOM      4  C   UNL     1       7.270  -5.483  26.062  0.00  0.00    +0.247 A 
ATOM      5  O   UNL     1       8.030  -6.034  26.867  0.00  0.00    -0.268 OA
ATOM      6  C   UNL     1       7.804  -4.740  24.844  0.00  0.00    -0.010 A 
ATOM      7  O   UNL     1       9.058  -4.850  24.637  0.00  0.00    -0.869 OA
ATOM      8  C   UNL     1       6.843  -4.064  24.164  0.00  0.00    +0.125 A 
ATOM      9  N   UNL     1       5.501  -4.039  24.490  0.00  0.00    -0.227 NA
ENDROOT
BRANCH   8  10
ATOM     10  C   UNL     1       7.223  -3.258  22.883  0.00  0.00    +0.262 C 
ATOM     11  N   UNL     1       8.434  -2.613  22.923  0.00  0.00    -0.306 N 
ATOM     12  H   UNL     1       8.969  -2.813  23.780  0.00  0.00    +0.149 HD
ATOM     13  O   UNL     1       6.480  -3.202  21.900  0.00  0.00    -0.269 OA
BRANCH  11  14
ATOM     14  C   UNL     1       9.054  -1.866  21.865  0.00  0.00    +0.140 C 
BRANCH  14  15
ATOM     15  C   UNL     1       9.519  -0.507  22.344  0.00  0.00    -0.030 A 
ATOM     16  C   UNL     1      10.187  -0.372  23.572  0.00  0.00    +0.008 A 
ATOM     17  C   UNL     1      10.643   0.878  23.997  0.00  0.00    +0.038 A 
ATOM     18  C   UNL     1      10.432   1.995  23.198  0.00  0.00    +0.123 A 
ATOM     19  F   UNL     1      10.887   3.190  23.606  0.00  0.00    -0.205 F 
ATOM     20  C   UNL     1       9.763   1.891  21.988  0.00  0.00    +0.038 A 
ATOM     21  C   UNL     1       9.303   0.643  21.561  0.00  0.00    +0.008 A 
ENDBRANCH  14  15
ENDBRANCH  11  14
ENDBRANCH   8  10
BRANCH   1  22
ATOM     22  C   UNL     1       3.456  -4.742  25.679  0.00  0.00    +0.087 C 
ATOM     23  C   UNL     1       3.142  -5.245  27.108  0.00  0.00    +0.039 C 
ATOM     24  C   UNL     1       2.992  -3.277  25.556  0.00  0.00    +0.039 C 
BRANCH  22  26
ATOM     25  C   UNL     1       3.066  -6.910  24.359  0.00  0.00    +0.301 C 
ATOM     26  N   UNL     1       2.720  -5.612  24.731  0.00  0.00    -0.295 N 
ATOM     27  H   UNL     1       2.011  -5.175  24.156  0.00  0.00    +0.150 HD
ATOM     28  O   UNL     1       4.076  -7.484  24.767  0.00  0.00    -0.265 OA
BRANCH  25  32
ATOM     29  C   UNL     1       0.443  -7.688  20.341  0.00  0.00    +0.111 C 
ATOM     30  C   UNL     1       0.969  -7.916  21.699  0.00  0.00    +0.215 A 
ATOM     31  O   UNL     1       1.862  -7.003  22.201  0.00  0.00    -0.417 OA
ATOM     32  C   UNL     1       2.112  -7.529  23.449  0.00  0.00    +0.304 A 
ATOM     33  N   UNL     1       1.434  -8.642  23.677  0.00  0.00    -0.102 NA
ATOM     34  N   UNL     1       0.706  -8.894  22.536  0.00  0.00    -0.112 NA
ENDBRANCH  25  32
ENDBRANCH  22  26
ENDBRANCH   1  22
TORSDOF 6
ENDMDL
MODEL 5
REMARK VINA RESULT:      -7.5      1.738      2.042
REMARK  Name = 
REMARK  10 active torsions:
REMARK  status: ('A' for Active; 'I' for Inactive)
REMARK    1  A    between atoms: C_1  and  C_2
REMARK    2  A    between atoms: C_5  and  C_7
REMARK    3  A    between atoms: N_9  and  C_10
REMARK    4  A    between atoms: C_10  and  C_11
REMARK    5  A    between atoms: C_10  and  C_12
REMARK    6  A    between atoms: C_10  and  C_13
REMARK    7  A    between atoms: C_15  and  C_22
REMARK    8  A    between atoms: N_19  and  C_20
REMARK    9  A    between atoms: N_24  and  C_25
REMARK   10  A    between atoms: C_25  and  C_26
REMARK                            x       y       z     vdW  Elec       q    Type
REMARK                         _______ _______ _______ _____ _____    ______ ____
ROOT
ATOM      1  C   UNL     1       6.683  -3.161  24.587  0.00  0.00    +0.136 A 
ATOM      2  N   UNL     1       5.701  -2.449  25.237  0.00  0.00    -0.299 N 
ATOM      3  C   UNL     1       4.516  -3.039  25.834  0.00  0.00    +0.154 C 
ATOM      4  C   UNL     1       5.712  -1.054  25.228  0.00  0.00    +0.247 A 
ATOM      5  O   UNL     1       4.737  -0.415  25.644  0.00  0.00    -0.268 OA
ATOM      6  C   UNL     1       6.951  -0.352  24.687  0.00  0.00    -0.010 A 
ATOM      7  O   UNL     1       6.972   0.915  24.828  0.00  0.00    -0.869 OA
ATOM      8  C   UNL     1       7.849  -1.204  24.129  0.00  0.00    +0.125 A 
ATOM      9  N   UNL     1       7.709  -2.575  24.054  0.00  0.00    -0.227 NA
ENDROOT
BRANCH   8  10
ATOM     10  C   UNL     1       9.180  -0.645  23.537  0.00  0.00    +0.262 C 
ATOM     11  N   UNL     1       9.171   0.686  23.203  0.00  0.00    -0.306 N 
ATOM     12  H   UNL     1       8.295   1.161  23.464  0.00  0.00    +0.149 HD
ATOM     13  O   UNL     1      10.174  -1.357  23.375  0.00  0.00    -0.269 OA
BRANCH  11  14
ATOM     14  C   UNL     1      10.272   1.464  22.710  0.00  0.00    +0.140 C 
BRANCH  14  15
ATOM     15  C   UNL     1      10.162   2.914  23.133  0.00  0.00    -0.030 A 
ATOM     16  C   UNL     1      11.314   3.698  23.304  0.00  0.00    +0.008 A 
ATOM     17  C   UNL     1      11.210   5.043  23.664  0.00  0.00    +0.038 A 
ATOM     18  C   UNL     1       9.955   5.608  23.856  0.00  0.00    +0.123 A 
ATOM     19  F   UNL     1       9.861   6.906  24.186  0.00  0.00    -0.205 F 
ATOM     20  C   UNL     1       8.801   4.852  23.707  0.00  0.00    +0.038 A 
ATOM     21  C   UNL     1       8.903   3.505  23.350  0.00  0.00    +0.008 A 
ENDBRANCH  14  15
ENDBRANCH  11  14
ENDBRANCH   8  10
BRANCH   1  22
ATOM     22  C   UNL     1       6.702  -4.771  24.560  0.00  0.00    +0.087 C 
ATOM     23  C   UNL     1       7.624  -5.226  23.405  0.00  0.00    +0.039 C 
ATOM     24  C   UNL     1       7.319  -5.229  25.896  0.00  0.00    +0.039 C 
BRANCH  22  26
ATOM     25  C   UNL     1       4.593  -5.308  23.196  0.00  0.00    +0.301 C 
ATOM     26  N   UNL     1       5.378  -5.401  24.344  0.00  0.00    -0.295 N 
ATOM     27  H   UNL     1       4.906  -5.778  25.157  0.00  0.00    +0.150 HD
ATOM     28  O   UNL     1       4.912  -4.641  22.212  0.00  0.00    -0.265 OA
BRANCH  25  32
ATOM     29  C   UNL     1       1.515  -8.870  24.404  0.00  0.00    +0.111 C 
ATOM     30  C   UNL     1       1.982  -7.611  23.796  0.00  0.00    +0.215 A 
ATOM     31  O   UNL     1       3.304  -7.277  23.954  0.00  0.00    -0.417 OA
ATOM     32  C   UNL     1       3.364  -6.086  23.265  0.00  0.00    +0.304 A 
ATOM     33  N   UNL     1       2.199  -5.742  22.741  0.00  0.00    -0.102 NA
ATOM     34  N   UNL     1       1.305  -6.727  23.099  0.00  0.00    -0.112 NA
ENDBRANCH  25  32
ENDBRANCH  22  26
ENDBRANCH   1  22
TORSDOF 6
ENDMDL
MODEL 6
REMARK VINA RESULT:      -7.5      3.460      5.836
REMARK  Name = 
REMARK  10 active torsions:
REMARK  status: ('A' for Active; 'I' for Inactive)
REMARK    1  A    between atoms: C_1  and  C_2
REMARK    2  A    between atoms: C_5  and  C_7
REMARK    3  A    between atoms: N_9  and  C_10
REMARK    4  A    between atoms: C_10  and  C_11
REMARK    5  A    between atoms: C_10  and  C_12
REMARK    6  A    between atoms: C_10  and  C_13
REMARK    7  A    between atoms: C_15  and  C_22
REMARK    8  A    between atoms: N_19  and  C_20
REMARK    9  A    between atoms: N_24  and  C_25
REMARK   10  A    between atoms: C_25  and  C_26
REMARK                            x       y       z     vdW  Elec       q    Type
REMARK                         _______ _______ _______ _____ _____    ______ ____
ROOT
ATOM      1  C   UNL     1       5.722  -3.328  26.656  0.00  0.00    +0.136 A 
ATOM      2  N   UNL     1       5.880  -4.429  27.466  0.00  0.00    -0.299 N 
ATOM      3  C   UNL     1       5.051  -4.727  28.621  0.00  0.00    +0.154 C 
ATOM      4  C   UNL     1       6.979  -5.274  27.310  0.00  0.00    +0.247 A 
ATOM      5  O   UNL     1       7.226  -6.148  28.150  0.00  0.00    -0.268 OA
ATOM      6  C   UNL     1       7.861  -5.080  26.082  0.00  0.00    -0.010 A 
ATOM      7  O   UNL     1       8.768  -5.961  25.910  0.00  0.00    -0.869 OA
ATOM      8  C   UNL     1       7.537  -3.979  25.358  0.00  0.00    +0.125 A 
ATOM      9  N   UNL     1       6.509  -3.105  25.650  0.00  0.00    -0.227 NA
ENDROOT
BRANCH   8  10
ATOM     10  C   UNL     1       8.338  -3.642  24.062  0.00  0.00    +0.262 C 
ATOM     11  N   UNL     1       9.143  -2.532  24.131  0.00  0.00    -0.306 N 
ATOM     12  H   UNL     1       9.165  -2.109  25.069  0.00  0.00    +0.149 HD
ATOM     13  O   UNL     1       8.249  -4.327  23.040  0.00  0.00    -0.269 OA
BRANCH  11  14
ATOM     14  C   UNL     1      10.033  -2.042  23.117  0.00  0.00    +0.140 C 
BRANCH  14  15
ATOM     15  C   UNL     1      10.124  -0.530  23.141  0.00  0.00    -0.030 A 
ATOM     16  C   UNL     1       9.941   0.215  21.965  0.00  0.00    +0.008 A 
ATOM     17  C   UNL     1       9.993   1.611  21.995  0.00  0.00    +0.038 A 
ATOM     18  C   UNL     1      10.230   2.264  23.199  0.00  0.00    +0.123 A 
ATOM     19  F   UNL     1      10.264   3.606  23.223  0.00  0.00    -0.205 F 
ATOM     20  C   UNL     1      10.428   1.551  24.372  0.00  0.00    +0.038 A 
ATOM     21  C   UNL     1      10.378   0.155  24.344  0.00  0.00    +0.008 A 
ENDBRANCH  14  15
ENDBRANCH  11  14
ENDBRANCH   8  10
BRANCH   1  22
ATOM     22  C   UNL     1       4.477  -2.320  26.810  0.00  0.00    +0.087 C 
ATOM     23  C   UNL     1       3.195  -3.061  26.364  0.00  0.00    +0.039 C 
ATOM     24  C   UNL     1       4.359  -1.987  28.311  0.00  0.00    +0.039 C 
BRANCH  22  26
ATOM     25  C   UNL     1       5.459  -0.022  26.214  0.00  0.00    +0.301 C 
ATOM     26  N   UNL     1       4.579  -1.083  26.000  0.00  0.00    -0.295 N 
ATOM     27  H   UNL     1       3.829  -0.893  25.347  0.00  0.00    +0.150 HD
ATOM     28  O   UNL     1       6.253   0.017  27.153  0.00  0.00    -0.265 OA
BRANCH  25  32
ATOM     29  C   UNL     1       6.557   2.717  22.351  0.00  0.00    +0.111 C 
ATOM     30  C   UNL     1       5.791   2.232  23.513  0.00  0.00    +0.215 A 
ATOM     31  O   UNL     1       6.316   1.191  24.236  0.00  0.00    -0.417 OA
ATOM     32  C   UNL     1       5.357   1.030  25.212  0.00  0.00    +0.304 A 
ATOM     33  N   UNL     1       4.359   1.890  25.091  0.00  0.00    -0.102 NA
ATOM     34  N   UNL     1       4.639   2.657  23.982  0.00  0.00    -0.112 NA
ENDBRANCH  25  32
ENDBRANCH  22  26
ENDBRANCH   1  22
TORSDOF 6
ENDMDL
MODEL 7
REMARK VINA RESULT:      -7.5      2.304      3.515
REMARK  Name = 
REMARK  10 active torsions:
REMARK  status: ('A' for Active; 'I' for Inactive)
REMARK    1  A    between atoms: C_1  and  C_2
REMARK    2  A    between atoms: C_5  and  C_7
REMARK    3  A    between atoms: N_9  and  C_10
REMARK    4  A    between atoms: C_10  and  C_11
REMARK    5  A    between atoms: C_10  and  C_12
REMARK    6  A    between atoms: C_10  and  C_13
REMARK    7  A    between atoms: C_15  and  C_22
REMARK    8  A    between atoms: N_19  and  C_20
REMARK    9  A    between atoms: N_24  and  C_25
REMARK   10  A    between atoms: C_25  and  C_26
REMARK                            x       y       z     vdW  Elec       q    Type
REMARK                         _______ _______ _______ _____ _____    ______ ____
ROOT
ATOM      1  C   UNL     1       7.599  -2.602  25.538  0.00  0.00    +0.136 A 
ATOM      2  N   UNL     1       8.479  -3.185  24.656  0.00  0.00    -0.299 N 
ATOM      3  C   UNL     1       8.640  -4.618  24.481  0.00  0.00    +0.154 C 
ATOM      4  C   UNL     1       9.409  -2.410  23.963  0.00  0.00    +0.247 A 
ATOM      5  O   UNL     1      10.320  -2.946  23.319  0.00  0.00    -0.268 OA
ATOM      6  C   UNL     1       9.268  -0.895  24.030  0.00  0.00    -0.010 A 
ATOM      7  O   UNL     1      10.051  -0.234  23.271  0.00  0.00    -0.869 OA
ATOM      8  C   UNL     1       8.316  -0.484  24.906  0.00  0.00    +0.125 A 
ATOM      9  N   UNL     1       7.516  -1.314  25.665  0.00  0.00    -0.227 NA
ENDROOT
BRANCH   8  10
ATOM     10  C   UNL     1       8.038   1.042  25.087  0.00  0.00    +0.262 C 
ATOM     11  N   UNL     1       8.231   1.818  23.972  0.00  0.00    -0.306 N 
ATOM     12  H   UNL     1       8.466   1.268  23.133  0.00  0.00    +0.149 HD
ATOM     13  O   UNL     1       7.672   1.517  26.164  0.00  0.00    -0.269 OA
BRANCH  11  14
ATOM     14  C   UNL     1       7.983   3.226  23.842  0.00  0.00    +0.140 C 
BRANCH  14  15
ATOM     15  C   UNL     1       9.274   4.011  23.746  0.00  0.00    -0.030 A 
ATOM     16  C   UNL     1       9.294   5.389  24.015  0.00  0.00    +0.008 A 
ATOM     17  C   UNL     1      10.492   6.106  23.956  0.00  0.00    +0.038 A 
ATOM     18  C   UNL     1      11.671   5.448  23.629  0.00  0.00    +0.123 A 
ATOM     19  F   UNL     1      12.821   6.140  23.590  0.00  0.00    -0.205 F 
ATOM     20  C   UNL     1      11.677   4.090  23.346  0.00  0.00    +0.038 A 
ATOM     21  C   UNL     1      10.480   3.372  23.401  0.00  0.00    +0.008 A 
ENDBRANCH  14  15
ENDBRANCH  11  14
ENDBRANCH   8  10
BRANCH   1  22
ATOM     22  C   UNL     1       6.520  -3.460  26.369  0.00  0.00    +0.087 C 
ATOM     23  C   UNL     1       7.276  -4.548  27.167  0.00  0.00    +0.039 C 
ATOM     24  C   UNL     1       5.853  -2.490  27.364  0.00  0.00    +0.039 C 
BRANCH  22  26
ATOM     25  C   UNL     1       4.744  -3.574  24.517  0.00  0.00    +0.301 C 
ATOM     26  N   UNL     1       5.503  -4.146  25.537  0.00  0.00    -0.295 N 
ATOM     27  H   UNL     1       5.188  -5.057  25.847  0.00  0.00    +0.150 HD
ATOM     28  O   UNL     1       4.816  -2.385  24.207  0.00  0.00    -0.265 OA
BRANCH  25  32
ATOM     29  C   UNL     1       0.719  -6.059  23.398  0.00  0.00    +0.111 C 
ATOM     30  C   UNL     1       2.119  -5.607  23.308  0.00  0.00    +0.215 A 
ATOM     31  O   UNL     1       2.554  -4.686  24.228  0.00  0.00    -0.417 OA
ATOM     32  C   UNL     1       3.866  -4.521  23.843  0.00  0.00    +0.304 A 
ATOM     33  N   UNL     1       4.189  -5.271  22.802  0.00  0.00    -0.102 NA
ATOM     34  N   UNL     1       3.050  -5.962  22.452  0.00  0.00    -0.112 NA
ENDBRANCH  25  32
ENDBRANCH  22  26
ENDBRANCH   1  22
TORSDOF 6
ENDMDL
MODEL 8
REMARK VINA RESULT:      -7.4      2.031      3.376
REMARK  Name = 
REMARK  10 active torsions:
REMARK  status: ('A' for Active; 'I' for Inactive)
REMARK    1  A    between atoms: C_1  and  C_2
REMARK    2  A    between atoms: C_5  and  C_7
REMARK    3  A    between atoms: N_9  and  C_10
REMARK    4  A    between atoms: C_10  and  C_11
REMARK    5  A    between atoms: C_10  and  C_12
REMARK    6  A    between atoms: C_10  and  C_13
REMARK    7  A    between atoms: C_15  and  C_22
REMARK    8  A    between atoms: N_19  and  C_20
REMARK    9  A    between atoms: N_24  and  C_25
REMARK   10  A    between atoms: C_25  and  C_26
REMARK                            x       y       z     vdW  Elec       q    Type
REMARK                         _______ _______ _______ _____ _____    ______ ____
ROOT
ATOM      1  C   UNL     1       7.333  -3.084  24.817  0.00  0.00    +0.136 A 
ATOM      2  N   UNL     1       7.557  -3.279  23.473  0.00  0.00    -0.299 N 
ATOM      3  C   UNL     1       7.476  -4.566  22.804  0.00  0.00    +0.154 C 
ATOM      4  C   UNL     1       8.041  -2.242  22.676  0.00  0.00    +0.247 A 
ATOM      5  O   UNL     1       8.422  -2.462  21.520  0.00  0.00    -0.268 OA
ATOM      6  C   UNL     1       8.089  -0.842  23.276  0.00  0.00    -0.010 A 
ATOM      7  O   UNL     1       8.405   0.093  22.469  0.00  0.00    -0.869 OA
ATOM      8  C   UNL     1       7.785  -0.816  24.599  0.00  0.00    +0.125 A 
ATOM      9  N   UNL     1       7.441  -1.914  25.362  0.00  0.00    -0.227 NA
ENDROOT
BRANCH   8  10
ATOM     10  C   UNL     1       7.778   0.545  25.364  0.00  0.00    +0.262 C 
ATOM     11  N   UNL     1       7.979   1.662  24.593  0.00  0.00    -0.306 N 
ATOM     12  H   UNL     1       8.033   1.453  23.587  0.00  0.00    +0.149 HD
ATOM     13  O   UNL     1       7.607   0.609  26.584  0.00  0.00    -0.269 OA
BRANCH  11  14
ATOM     14  C   UNL     1       7.950   3.031  25.026  0.00  0.00    +0.140 C 
BRANCH  14  15
ATOM     15  C   UNL     1       9.147   3.801  24.510  0.00  0.00    -0.030 A 
ATOM     16  C   UNL     1      10.174   3.143  23.815  0.00  0.00    +0.008 A 
ATOM     17  C   UNL     1      11.263   3.860  23.312  0.00  0.00    +0.038 A 
ATOM     18  C   UNL     1      11.328   5.235  23.505  0.00  0.00    +0.123 A 
ATOM     19  F   UNL     1      12.369   5.920  23.005  0.00  0.00    -0.205 F 
ATOM     20  C   UNL     1      10.333   5.907  24.200  0.00  0.00    +0.038 A 
ATOM     21  C   UNL     1       9.245   5.192  24.706  0.00  0.00    +0.008 A 
ENDBRANCH  14  15
ENDBRANCH  11  14
ENDBRANCH   8  10
BRANCH   1  22
ATOM     22  C   UNL     1       6.788  -4.258  25.776  0.00  0.00    +0.087 C 
ATOM     23  C   UNL     1       7.957  -5.229  26.066  0.00  0.00    +0.039 C 
ATOM     24  C   UNL     1       6.361  -3.588  27.097  0.00  0.00    +0.039 C 
BRANCH  22  26
ATOM     25  C   UNL     1       5.140  -6.227  25.740  0.00  0.00    +0.301 C 
ATOM     26  N   UNL     1       5.679  -5.058  25.205  0.00  0.00    -0.295 N 
ATOM     27  H   UNL     1       5.404  -4.856  24.252  0.00  0.00    +0.150 HD
ATOM     28  O   UNL     1       5.564  -6.759  26.765  0.00  0.00    -0.265 OA
BRANCH  25  32
ATOM     29  C   UNL     1       1.454  -6.386  22.575  0.00  0.00    +0.111 C 
ATOM     30  C   UNL     1       2.416  -6.868  23.582  0.00  0.00    +0.215 A 
ATOM     31  O   UNL     1       3.316  -5.965  24.091  0.00  0.00    -0.417 OA
ATOM     32  C   UNL     1       4.017  -6.753  24.976  0.00  0.00    +0.304 A 
ATOM     33  N   UNL     1       3.580  -8.002  25.001  0.00  0.00    -0.102 NA
ATOM     34  N   UNL     1       2.553  -8.073  24.087  0.00  0.00    -0.112 NA
ENDBRANCH  25  32
ENDBRANCH  22  26
ENDBRANCH   1  22
TORSDOF 6
ENDMDL
MODEL 9
REMARK VINA RESULT:      -7.3      3.395      4.863
REMARK  Name = 
REMARK  10 active torsions:
REMARK  status: ('A' for Active; 'I' for Inactive)
REMARK    1  A    between atoms: C_1  and  C_2
REMARK    2  A    between atoms: C_5  and  C_7
REMARK    3  A    between atoms: N_9  and  C_10
REMARK    4  A    between atoms: C_10  and  C_11
REMARK    5  A    between atoms: C_10  and  C_12
REMARK    6  A    between atoms: C_10  and  C_13
REMARK    7  A    between atoms: C_15  and  C_22
REMARK    8  A    between atoms: N_19  and  C_20
REMARK    9  A    between atoms: N_24  and  C_25
REMARK   10  A    between atoms: C_25  and  C_26
REMARK                            x       y       z     vdW  Elec       q    Type
REMARK                         _______ _______ _______ _____ _____    ______ ____
ROOT
ATOM      1  C   UNL     1       5.804  -4.933  25.573  0.00  0.00    +0.136 A 
ATOM      2  N   UNL     1       4.828  -4.794  24.613  0.00  0.00    -0.299 N 
ATOM      3  C   UNL     1       3.435  -5.162  24.797  0.00  0.00    +0.154 C 
ATOM      4  C   UNL     1       5.160  -4.418  23.312  0.00  0.00    +0.247 A 
ATOM      5  O   UNL     1       4.319  -4.476  22.406  0.00  0.00    -0.268 OA
ATOM      6  C   UNL     1       6.584  -3.945  23.046  0.00  0.00    -0.010 A 
ATOM      7  O   UNL     1       6.802  -3.482  21.878  0.00  0.00    -0.869 OA
ATOM      8  C   UNL     1       7.408  -4.098  24.114  0.00  0.00    +0.125 A 
ATOM      9  N   UNL     1       7.037  -4.606  25.343  0.00  0.00    -0.227 NA
ENDROOT
BRANCH   8  10
ATOM     10  C   UNL     1       8.900  -3.651  24.010  0.00  0.00    +0.262 C 
ATOM     11  N   UNL     1       9.136  -2.541  23.240  0.00  0.00    -0.306 N 
ATOM     12  H   UNL     1       8.273  -2.102  22.889  0.00  0.00    +0.149 HD
ATOM     13  O   UNL     1       9.807  -4.262  24.581  0.00  0.00    -0.269 OA
BRANCH  11  14
ATOM     14  C   UNL     1      10.394  -1.880  23.034  0.00  0.00    +0.140 C 
BRANCH  14  15
ATOM     15  C   UNL     1      10.246  -0.374  23.088  0.00  0.00    -0.030 A 
ATOM     16  C   UNL     1       9.905   0.351  21.935  0.00  0.00    +0.008 A 
ATOM     17  C   UNL     1       9.738   1.737  21.992  0.00  0.00    +0.038 A 
ATOM     18  C   UNL     1       9.911   2.401  23.201  0.00  0.00    +0.123 A 
ATOM     19  F   UNL     1       9.733   3.730  23.253  0.00  0.00    -0.205 F 
ATOM     20  C   UNL     1      10.261   1.709  24.352  0.00  0.00    +0.038 A 
ATOM     21  C   UNL     1      10.432   0.324  24.296  0.00  0.00    +0.008 A 
ENDBRANCH  14  15
ENDBRANCH  11  14
ENDBRANCH   8  10
BRANCH   1  22
ATOM     22  C   UNL     1       5.467  -5.378  27.084  0.00  0.00    +0.087 C 
ATOM     23  C   UNL     1       4.865  -6.802  27.047  0.00  0.00    +0.039 C 
ATOM     24  C   UNL     1       6.808  -5.426  27.842  0.00  0.00    +0.039 C 
BRANCH  22  26
ATOM     25  C   UNL     1       4.558  -3.115  27.892  0.00  0.00    +0.301 C 
ATOM     26  N   UNL     1       4.495  -4.504  27.782  0.00  0.00    -0.295 N 
ATOM     27  H   UNL     1       3.824  -4.952  28.394  0.00  0.00    +0.150 HD
ATOM     28  O   UNL     1       5.480  -2.443  27.432  0.00  0.00    -0.265 OA
BRANCH  25  32
ATOM     29  C   UNL     1       1.935   0.051  30.485  0.00  0.00    +0.111 C 
ATOM     30  C   UNL     1       2.236  -1.161  29.702  0.00  0.00    +0.215 A 
ATOM     31  O   UNL     1       3.523  -1.329  29.253  0.00  0.00    -0.417 OA
ATOM     32  C   UNL     1       3.422  -2.534  28.594  0.00  0.00    +0.304 A 
ATOM     33  N   UNL     1       2.201  -3.042  28.646  0.00  0.00    -0.102 NA
ATOM     34  N   UNL     1       1.436  -2.142  29.353  0.00  0.00    -0.112 NA
ENDBRANCH  25  32
ENDBRANCH  22  26
ENDBRANCH   1  22
TORSDOF 6
ENDMDL
