MODEL 1
REMARK VINA RESULT:      -6.5      0.000      0.000
REMARK  Name = 
REMARK  13 active torsions:
REMARK  status: ('A' for Active; 'I' for Inactive)
REMARK    1  A    between atoms: C_1  and  C_2
REMARK    2  A    between atoms: C_2  and  C_3
REMARK    3  A    between atoms: C_2  and  C_4
REMARK    4  A    between atoms: C_4  and  C_6
REMARK    5  A    between atoms: C_4  and  N_26
REMARK    6  A    between atoms: C_6  and  O_8
REMARK    7  A    between atoms: O_8  and  C_9
REMARK    8  A    between atoms: C_9  and  C_10
REMARK    9  A    between atoms: C_10  and  C_11
REMARK   10  A    between atoms: C_10  and  O_13
REMARK   11  A    between atoms: C_11  and  O_12
REMARK   12  A    between atoms: O_13  and  C_14
REMARK   13  A    between atoms: C_14  and  N_15
REMARK                            x       y       z     vdW  Elec       q    Type
REMARK                         _______ _______ _______ _____ _____    ______ ____
ROOT
ATOM      1  O   UNL     1       6.930  -1.282  22.951  0.00  0.00    -0.350 OA
ENDROOT
BRANCH   1   2
ATOM      2  C   UNL     1       8.254  -0.711  23.019  0.00  0.00    +0.183 C 
BRANCH   2   3
ATOM      3  C   UNL     1       8.721  -0.454  24.460  0.00  0.00    +0.266 C 
BRANCH   3   4
ATOM      4  O   UNL     1       9.048   0.937  24.632  0.00  0.00    -0.461 OA
BRANCH   4   5
ATOM      5  C   UNL     1      10.249   1.333  24.122  0.00  0.00    +0.324 C 
ATOM      6  O   UNL     1      11.316   0.762  24.321  0.00  0.00    -0.249 OA
BRANCH   5   7
ATOM      7  C   UNL     1      10.087   2.577  23.224  0.00  0.00    +0.163 C 
BRANCH   7   9
ATOM      8  C   UNL     1       8.978   4.762  23.928  0.00  0.00    +0.009 C 
ATOM      9  C   UNL     1       8.749   3.294  23.539  0.00  0.00    +0.010 C 
ATOM     10  C   UNL     1       7.763   3.253  22.364  0.00  0.00    +0.009 C 
ENDBRANCH   7   9
BRANCH   7  11
ATOM     11  N   UNL     1      10.171   2.123  21.817  0.00  0.00    -0.318 NA
ATOM     12  H   UNL     1      11.142   2.216  21.506  0.00  0.00    +0.119 HD
ATOM     13  H   UNL     1       9.928   1.140  21.737  0.00  0.00    +0.119 HD
ENDBRANCH   7  11
ENDBRANCH   5   7
ENDBRANCH   4   5
ENDBRANCH   3   4
ENDBRANCH   2   3
BRANCH   2  14
ATOM     14  C   UNL     1       9.212  -1.692  22.325  0.00  0.00    +0.190 C 
BRANCH  14  15
ATOM     15  O   UNL     1      10.254  -2.070  23.224  0.00  0.00    -0.392 OA
ATOM     16  H   UNL     1      10.160  -1.491  24.003  0.00  0.00    +0.210 HD
ENDBRANCH  14  15
ENDBRANCH   2  14
ENDBRANCH   1   2
BRANCH   1  17
ATOM     17  C   UNL     1       6.935  -2.685  22.680  0.00  0.00    +0.288 C 
BRANCH  17  18
ATOM     18  N   UNL     1       6.452  -3.412  23.841  0.00  0.00    -0.291 N 
ATOM     19  C   UNL     1       7.220  -4.176  24.679  0.00  0.00    +0.171 A 
ATOM     20  N   UNL     1       8.563  -4.352  24.620  0.00  0.00    -0.196 NA
ATOM     21  C   UNL     1       9.018  -5.162  25.538  0.00  0.00    +0.195 A 
ATOM     22  N   UNL     1      10.341  -5.444  25.607  0.00  0.00    -0.329 N 
ATOM     23  H   UNL     1      10.732  -5.634  26.519  0.00  0.00    +0.145 HD
ATOM     24  H   UNL     1      10.910  -4.813  25.051  0.00  0.00    +0.145 HD
ATOM     25  N   UNL     1       8.220  -5.771  26.489  0.00  0.00    -0.293 N 
ATOM     26  H   UNL     1       8.621  -6.420  27.147  0.00  0.00    +0.172 HD
ATOM     27  C   UNL     1       6.840  -5.634  26.570  0.00  0.00    +0.280 A 
ATOM     28  O   UNL     1       6.177  -6.224  27.417  0.00  0.00    -0.265 OA
ATOM     29  C   UNL     1       6.322  -4.742  25.557  0.00  0.00    +0.172 A 
ATOM     30  N   UNL     1       5.033  -4.369  25.274  0.00  0.00    -0.229 NA
ATOM     31  C   UNL     1       5.145  -3.580  24.224  0.00  0.00    +0.203 A 
ENDBRANCH  17  18
ENDBRANCH   1  17
TORSDOF 11
ENDMDL
MODEL 2
REMARK VINA RESULT:      -6.5      2.119      3.109
REMARK  Name = 
REMARK  13 active torsions:
REMARK  status: ('A' for Active; 'I' for Inactive)
REMARK    1  A    between atoms: C_1  and  C_2
REMARK    2  A    between atoms: C_2  and  C_3
REMARK    3  A    between atoms: C_2  and  C_4
REMARK    4  A    between atoms: C_4  and  C_6
REMARK    5  A    between atoms: C_4  and  N_26
REMARK    6  A    between atoms: C_6  and  O_8
REMARK    7  A    between atoms: O_8  and  C_9
REMARK    8  A    between atoms: C_9  and  C_10
REMARK    9  A    between atoms: C_10  and  C_11
REMARK   10  A    between atoms: C_10  and  O_13
REMARK   11  A    between atoms: C_11  and  O_12
REMARK   12  A    between atoms: O_13  and  C_14
REMARK   13  A    between atoms: C_14  and  N_15
REMARK                            x       y       z     vdW  Elec       q    Type
REMARK                         _______ _______ _______ _____ _____    ______ ____
ROOT
ATOM      1  O   UNL     1       5.016  -4.316  22.926  0.00  0.00    -0.350 OA
ENDROOT
BRANCH   1   2
ATOM      2  C   UNL     1       6.135  -3.838  22.149  0.00  0.00    +0.183 C 
BRANCH   2   3
ATOM      3  C   UNL     1       6.912  -2.713  22.848  0.00  0.00    +0.266 C 
BRANCH   3   4
ATOM      4  O   UNL     1       8.233  -2.603  22.288  0.00  0.00    -0.461 OA
BRANCH   4   5
ATOM      5  C   UNL     1       9.232  -2.319  23.170  0.00  0.00    +0.324 C 
ATOM      6  O   UNL     1       9.441  -2.931  24.212  0.00  0.00    -0.249 OA
BRANCH   5   7
ATOM      7  C   UNL     1      10.100  -1.146  22.666  0.00  0.00    +0.163 C 
BRANCH   7   9
ATOM      8  C   UNL     1      10.694   0.353  24.641  0.00  0.00    +0.009 C 
ATOM      9  C   UNL     1       9.752   0.149  23.445  0.00  0.00    +0.010 C 
ATOM     10  C   UNL     1       9.810   1.403  22.564  0.00  0.00    +0.009 C 
ENDBRANCH   7   9
BRANCH   7  11
ATOM     11  N   UNL     1       9.867  -1.014  21.210  0.00  0.00    -0.318 NA
ATOM     12  H   UNL     1      10.630  -1.486  20.718  0.00  0.00    +0.119 HD
ATOM     13  H   UNL     1       9.007  -1.480  20.936  0.00  0.00    +0.119 HD
ENDBRANCH   7  11
ENDBRANCH   5   7
ENDBRANCH   4   5
ENDBRANCH   3   4
ENDBRANCH   2   3
BRANCH   2  14
ATOM     14  C   UNL     1       7.062  -5.038  21.897  0.00  0.00    +0.190 C 
BRANCH  14  15
ATOM     15  O   UNL     1       7.738  -5.389  23.105  0.00  0.00    -0.392 OA
ATOM     16  H   UNL     1       7.567  -4.661  23.730  0.00  0.00    +0.210 HD
ENDBRANCH  14  15
ENDBRANCH   2  14
ENDBRANCH   1   2
BRANCH   1  17
ATOM     17  C   UNL     1       4.792  -3.559  24.116  0.00  0.00    +0.288 C 
BRANCH  17  18
ATOM     18  N   UNL     1       4.692  -4.452  25.256  0.00  0.00    -0.291 N 
ATOM     19  C   UNL     1       5.744  -4.916  26.000  0.00  0.00    +0.171 A 
ATOM     20  N   UNL     1       7.052  -4.591  25.853  0.00  0.00    -0.196 NA
ATOM     21  C   UNL     1       7.836  -5.214  26.692  0.00  0.00    +0.195 A 
ATOM     22  N   UNL     1       9.173  -5.000  26.667  0.00  0.00    -0.329 N 
ATOM     23  H   UNL     1       9.674  -5.067  27.542  0.00  0.00    +0.145 HD
ATOM     24  H   UNL     1       9.434  -4.185  26.120  0.00  0.00    +0.145 HD
ATOM     25  N   UNL     1       7.384  -6.105  27.648  0.00  0.00    -0.293 N 
ATOM     26  H   UNL     1       8.040  -6.587  28.241  0.00  0.00    +0.172 HD
ATOM     27  C   UNL     1       6.057  -6.480  27.817  0.00  0.00    +0.280 A 
ATOM     28  O   UNL     1       5.717  -7.301  28.663  0.00  0.00    -0.265 OA
ATOM     29  C   UNL     1       5.179  -5.801  26.892  0.00  0.00    +0.172 A 
ATOM     30  N   UNL     1       3.824  -5.910  26.707  0.00  0.00    -0.229 NA
ATOM     31  C   UNL     1       3.566  -5.096  25.703  0.00  0.00    +0.203 A 
ENDBRANCH  17  18
ENDBRANCH   1  17
TORSDOF 11
ENDMDL
MODEL 3
REMARK VINA RESULT:      -6.3      2.068      3.317
REMARK  Name = 
REMARK  13 active torsions:
REMARK  status: ('A' for Active; 'I' for Inactive)
REMARK    1  A    between atoms: C_1  and  C_2
REMARK    2  A    between atoms: C_2  and  C_3
REMARK    3  A    between atoms: C_2  and  C_4
REMARK    4  A    between atoms: C_4  and  C_6
REMARK    5  A    between atoms: C_4  and  N_26
REMARK    6  A    between atoms: C_6  and  O_8
REMARK    7  A    between atoms: O_8  and  C_9
REMARK    8  A    between atoms: C_9  and  C_10
REMARK    9  A    between atoms: C_10  and  C_11
REMARK   10  A    between atoms: C_10  and  O_13
REMARK   11  A    between atoms: C_11  and  O_12
REMARK   12  A    between atoms: O_13  and  C_14
REMARK   13  A    between atoms: C_14  and  N_15
REMARK                            x       y       z     vdW  Elec       q    Type
REMARK                         _______ _______ _______ _____ _____    ______ ____
ROOT
ATOM      1  O   UNL     1       7.422  -2.453  26.058  0.00  0.00    -0.350 OA
ENDROOT
BRANCH   1   2
ATOM      2  C   UNL     1       7.351  -1.582  24.909  0.00  0.00    +0.183 C 
BRANCH   2   3
ATOM      3  C   UNL     1       8.285  -2.020  23.770  0.00  0.00    +0.266 C 
BRANCH   3   4
ATOM      4  O   UNL     1       8.450  -0.945  22.827  0.00  0.00    -0.461 OA
BRANCH   4   5
ATOM      5  C   UNL     1       9.710  -0.769  22.338  0.00  0.00    +0.324 C 
ATOM      6  O   UNL     1      10.484  -1.678  22.057  0.00  0.00    -0.249 OA
BRANCH   5   7
ATOM      7  C   UNL     1      10.026   0.728  22.143  0.00  0.00    +0.163 C 
BRANCH   7   9
ATOM      8  C   UNL     1      10.934   0.735  24.525  0.00  0.00    +0.009 C 
ATOM      9  C   UNL     1      10.033   1.456  23.512  0.00  0.00    +0.010 C 
ATOM     10  C   UNL     1      10.497   2.915  23.405  0.00  0.00    +0.009 C 
ENDBRANCH   7   9
BRANCH   7  11
ATOM     11  N   UNL     1       9.015   1.278  21.212  0.00  0.00    -0.318 NA
ATOM     12  H   UNL     1       8.197   1.565  21.757  0.00  0.00    +0.119 HD
ATOM     13  H   UNL     1       9.364   2.110  20.745  0.00  0.00    +0.119 HD
ENDBRANCH   7  11
ENDBRANCH   5   7
ENDBRANCH   4   5
ENDBRANCH   3   4
ENDBRANCH   2   3
BRANCH   2  14
ATOM     14  C   UNL     1       5.894  -1.585  24.422  0.00  0.00    +0.190 C 
BRANCH  14  15
ATOM     15  O   UNL     1       5.830  -2.093  23.089  0.00  0.00    -0.392 OA
ATOM     16  H   UNL     1       4.990  -1.765  22.716  0.00  0.00    +0.210 HD
ENDBRANCH  14  15
ENDBRANCH   2  14
ENDBRANCH   1   2
BRANCH   1  17
ATOM     17  C   UNL     1       8.045  -3.708  25.778  0.00  0.00    +0.288 C 
BRANCH  17  18
ATOM     18  N   UNL     1       7.063  -4.773  25.860  0.00  0.00    -0.291 N 
ATOM     19  C   UNL     1       6.412  -5.341  24.797  0.00  0.00    +0.171 A 
ATOM     20  N   UNL     1       6.599  -5.062  23.484  0.00  0.00    -0.196 NA
ATOM     21  C   UNL     1       5.813  -5.744  22.694  0.00  0.00    +0.195 A 
ATOM     22  N   UNL     1       5.875  -5.572  21.351  0.00  0.00    -0.329 N 
ATOM     23  H   UNL     1       5.667  -6.370  20.768  0.00  0.00    +0.145 HD
ATOM     24  H   UNL     1       6.704  -5.065  21.055  0.00  0.00    +0.145 HD
ATOM     25  N   UNL     1       4.891  -6.671  23.142  0.00  0.00    -0.293 N 
ATOM     26  H   UNL     1       4.282  -7.137  22.489  0.00  0.00    +0.172 HD
ATOM     27  C   UNL     1       4.655  -6.970  24.478  0.00  0.00    +0.280 A 
ATOM     28  O   UNL     1       3.800  -7.782  24.821  0.00  0.00    -0.265 OA
ATOM     29  C   UNL     1       5.515  -6.220  25.364  0.00  0.00    +0.172 A 
ATOM     30  N   UNL     1       5.579  -6.195  26.733  0.00  0.00    -0.229 NA
ATOM     31  C   UNL     1       6.511  -5.301  27.000  0.00  0.00    +0.203 A 
ENDBRANCH  17  18
ENDBRANCH   1  17
TORSDOF 11
ENDMDL
MODEL 4
REMARK VINA RESULT:      -6.2      1.608      2.718
REMARK  Name = 
REMARK  13 active torsions:
REMARK  status: ('A' for Active; 'I' for Inactive)
REMARK    1  A    between atoms: C_1  and  C_2
REMARK    2  A    between atoms: C_2  and  C_3
REMARK    3  A    between atoms: C_2  and  C_4
REMARK    4  A    between atoms: C_4  and  C_6
REMARK    5  A    between atoms: C_4  and  N_26
REMARK    6  A    between atoms: C_6  and  O_8
REMARK    7  A    between atoms: O_8  and  C_9
REMARK    8  A    between atoms: C_9  and  C_10
REMARK    9  A    between atoms: C_10  and  C_11
REMARK   10  A    between atoms: C_10  and  O_13
REMARK   11  A    between atoms: C_11  and  O_12
REMARK   12  A    between atoms: O_13  and  C_14
REMARK   13  A    between atoms: C_14  and  N_15
REMARK                            x       y       z     vdW  Elec       q    Type
REMARK                         _______ _______ _______ _____ _____    ______ ____
ROOT
ATOM      1  O   UNL     1       9.462  -2.799  24.169  0.00  0.00    -0.350 OA
ENDROOT
BRANCH   1   2
ATOM      2  C   UNL     1       9.426  -1.479  23.584  0.00  0.00    +0.183 C 
BRANCH   2   3
ATOM      3  C   UNL     1       9.839  -0.377  24.571  0.00  0.00    +0.266 C 
BRANCH   3   4
ATOM      4  O   UNL     1      10.152   0.833  23.856  0.00  0.00    -0.461 OA
BRANCH   4   5
ATOM      5  C   UNL     1       9.236   1.837  23.957  0.00  0.00    +0.324 C 
ATOM      6  O   UNL     1       8.621   2.124  24.979  0.00  0.00    -0.249 OA
BRANCH   5   7
ATOM      7  C   UNL     1       9.100   2.599  22.622  0.00  0.00    +0.163 C 
BRANCH   7   9
ATOM      8  C   UNL     1       7.041   1.098  22.555  0.00  0.00    +0.009 C 
ATOM      9  C   UNL     1       7.683   2.389  22.028  0.00  0.00    +0.010 C 
ATOM     10  C   UNL     1       6.735   3.558  22.328  0.00  0.00    +0.009 C 
ENDBRANCH   7   9
BRANCH   7  11
ATOM     11  N   UNL     1      10.171   2.115  21.723  0.00  0.00    -0.318 NA
ATOM     12  H   UNL     1      10.674   1.360  22.197  0.00  0.00    +0.119 HD
ATOM     13  H   UNL     1       9.782   1.721  20.872  0.00  0.00    +0.119 HD
ENDBRANCH   7  11
ENDBRANCH   5   7
ENDBRANCH   4   5
ENDBRANCH   3   4
ENDBRANCH   2   3
BRANCH   2  14
ATOM     14  C   UNL     1      10.378  -1.487  22.378  0.00  0.00    +0.190 C 
BRANCH  14  15
ATOM     15  O   UNL     1       9.774  -0.803  21.280  0.00  0.00    -0.392 OA
ATOM     16  H   UNL     1      10.112   0.111  21.313  0.00  0.00    +0.210 HD
ENDBRANCH  14  15
ENDBRANCH   2  14
ENDBRANCH   1   2
BRANCH   1  17
ATOM     17  C   UNL     1       8.314  -3.588  23.851  0.00  0.00    +0.288 C 
BRANCH  17  18
ATOM     18  N   UNL     1       7.881  -4.323  25.025  0.00  0.00    -0.291 N 
ATOM     19  C   UNL     1       6.802  -5.163  25.087  0.00  0.00    +0.171 A 
ATOM     20  N   UNL     1       5.979  -5.508  24.066  0.00  0.00    -0.196 NA
ATOM     21  C   UNL     1       5.013  -6.309  24.431  0.00  0.00    +0.195 A 
ATOM     22  N   UNL     1       4.103  -6.740  23.524  0.00  0.00    -0.329 N 
ATOM     23  H   UNL     1       3.706  -7.659  23.661  0.00  0.00    +0.145 HD
ATOM     24  H   UNL     1       4.385  -6.565  22.565  0.00  0.00    +0.145 HD
ATOM     25  N   UNL     1       4.848  -6.776  25.722  0.00  0.00    -0.293 N 
ATOM     26  H   UNL     1       4.060  -7.359  25.953  0.00  0.00    +0.172 HD
ATOM     27  C   UNL     1       5.656  -6.430  26.798  0.00  0.00    +0.280 A 
ATOM     28  O   UNL     1       5.444  -6.852  27.931  0.00  0.00    -0.265 OA
ATOM     29  C   UNL     1       6.727  -5.541  26.410  0.00  0.00    +0.172 A 
ATOM     30  N   UNL     1       7.707  -4.947  27.162  0.00  0.00    -0.229 NA
ATOM     31  C   UNL     1       8.376  -4.206  26.300  0.00  0.00    +0.203 A 
ENDBRANCH  17  18
ENDBRANCH   1  17
TORSDOF 11
ENDMDL
MODEL 5
REMARK VINA RESULT:      -6.2      2.685      8.263
REMARK  Name = 
REMARK  13 active torsions:
REMARK  status: ('A' for Active; 'I' for Inactive)
REMARK    1  A    between atoms: C_1  and  C_2
REMARK    2  A    between atoms: C_2  and  C_3
REMARK    3  A    between atoms: C_2  and  C_4
REMARK    4  A    between atoms: C_4  and  C_6
REMARK    5  A    between atoms: C_4  and  N_26
REMARK    6  A    between atoms: C_6  and  O_8
REMARK    7  A    between atoms: O_8  and  C_9
REMARK    8  A    between atoms: C_9  and  C_10
REMARK    9  A    between atoms: C_10  and  C_11
REMARK   10  A    between atoms: C_10  and  O_13
REMARK   11  A    between atoms: C_11  and  O_12
REMARK   12  A    between atoms: O_13  and  C_14
REMARK   13  A    between atoms: C_14  and  N_15
REMARK                            x       y       z     vdW  Elec       q    Type
REMARK                         _______ _______ _______ _____ _____    ______ ____
ROOT
ATOM      1  O   UNL     1       9.726   0.011  24.238  0.00  0.00    -0.350 OA
ENDROOT
BRANCH   1   2
ATOM      2  C   UNL     1      10.229  -0.927  23.263  0.00  0.00    +0.183 C 
BRANCH   2   3
ATOM      3  C   UNL     1      10.008  -2.391  23.672  0.00  0.00    +0.266 C 
BRANCH   3   4
ATOM      4  O   UNL     1       8.602  -2.650  23.841  0.00  0.00    -0.461 OA
BRANCH   4   5
ATOM      5  C   UNL     1       8.224  -3.957  23.763  0.00  0.00    +0.324 C 
ATOM      6  O   UNL     1       8.879  -4.902  24.190  0.00  0.00    -0.249 OA
BRANCH   5   7
ATOM      7  C   UNL     1       6.836  -4.094  23.102  0.00  0.00    +0.163 C 
BRANCH   7   9
ATOM      8  C   UNL     1       5.338  -6.142  23.344  0.00  0.00    +0.009 C 
ATOM      9  C   UNL     1       6.591  -5.564  22.673  0.00  0.00    +0.010 C 
ATOM     10  C   UNL     1       6.442  -5.720  21.154  0.00  0.00    +0.009 C 
ENDBRANCH   7   9
BRANCH   7  11
ATOM     11  N   UNL     1       6.794  -3.152  21.960  0.00  0.00    -0.318 NA
ATOM     12  H   UNL     1       6.953  -3.683  21.099  0.00  0.00    +0.119 HD
ATOM     13  H   UNL     1       5.877  -2.723  21.876  0.00  0.00    +0.119 HD
ENDBRANCH   7  11
ENDBRANCH   5   7
ENDBRANCH   4   5
ENDBRANCH   3   4
ENDBRANCH   2   3
BRANCH   2  14
ATOM     14  C   UNL     1       9.507  -0.639  21.937  0.00  0.00    +0.190 C 
BRANCH  14  15
ATOM     15  O   UNL     1       9.481  -1.819  21.133  0.00  0.00    -0.392 OA
ATOM     16  H   UNL     1       8.991  -1.582  20.324  0.00  0.00    +0.210 HD
ENDBRANCH  14  15
ENDBRANCH   2  14
ENDBRANCH   1   2
BRANCH   1  17
ATOM     17  C   UNL     1      10.606   1.114  24.465  0.00  0.00    +0.288 C 
BRANCH  17  18
ATOM     18  N   UNL     1       9.903   2.360  24.223  0.00  0.00    -0.291 N 
ATOM     19  C   UNL     1      10.481   3.538  23.828  0.00  0.00    +0.171 A 
ATOM     20  N   UNL     1      11.789   3.746  23.538  0.00  0.00    -0.196 NA
ATOM     21  C   UNL     1      12.055   4.983  23.215  0.00  0.00    +0.195 A 
ATOM     22  N   UNL     1      13.321   5.352  22.903  0.00  0.00    -0.329 N 
ATOM     23  H   UNL     1      13.439   6.096  22.229  0.00  0.00    +0.145 HD
ATOM     24  H   UNL     1      13.935   4.561  22.736  0.00  0.00    +0.145 HD
ATOM     25  N   UNL     1      11.103   5.984  23.157  0.00  0.00    -0.293 N 
ATOM     26  H   UNL     1      11.374   6.930  22.943  0.00  0.00    +0.172 HD
ATOM     27  C   UNL     1       9.759   5.816  23.467  0.00  0.00    +0.280 A 
ATOM     28  O   UNL     1       8.962   6.749  23.429  0.00  0.00    -0.265 OA
ATOM     29  C   UNL     1       9.451   4.452  23.830  0.00  0.00    +0.172 A 
ATOM     30  N   UNL     1       8.270   3.882  24.231  0.00  0.00    -0.229 NA
ATOM     31  C   UNL     1       8.581   2.625  24.475  0.00  0.00    +0.203 A 
ENDBRANCH  17  18
ENDBRANCH   1  17
TORSDOF 11
ENDMDL
MODEL 6
REMARK VINA RESULT:      -6.1      2.322      7.897
REMARK  Name = 
REMARK  13 active torsions:
REMARK  status: ('A' for Active; 'I' for Inactive)
REMARK    1  A    between atoms: C_1  and  C_2
REMARK    2  A    between atoms: C_2  and  C_3
REMARK    3  A    between atoms: C_2  and  C_4
REMARK    4  A    between atoms: C_4  and  C_6
REMARK    5  A    between atoms: C_4  and  N_26
REMARK    6  A    between atoms: C_6  and  O_8
REMARK    7  A    between atoms: O_8  and  C_9
REMARK    8  A    between atoms: C_9  and  C_10
REMARK    9  A    between atoms: C_10  and  C_11
REMARK   10  A    between atoms: C_10  and  O_13
REMARK   11  A    between atoms: C_11  and  O_12
REMARK   12  A    between atoms: O_13  and  C_14
REMARK   13  A    between atoms: C_14  and  N_15
REMARK                            x       y       z     vdW  Elec       q    Type
REMARK                         _______ _______ _______ _____ _____    ______ ____
ROOT
ATOM      1  O   UNL     1      10.813  -0.045  23.158  0.00  0.00    -0.350 OA
ENDROOT
BRANCH   1   2
ATOM      2  C   UNL     1      10.214  -1.335  22.905  0.00  0.00    +0.183 C 
BRANCH   2   3
ATOM      3  C   UNL     1       9.630  -1.981  24.170  0.00  0.00    +0.266 C 
BRANCH   3   4
ATOM      4  O   UNL     1       9.812  -3.408  24.123  0.00  0.00    -0.461 OA
BRANCH   4   5
ATOM      5  C   UNL     1       8.671  -4.154  24.117  0.00  0.00    +0.324 C 
ATOM      6  O   UNL     1       7.680  -3.910  23.437  0.00  0.00    -0.249 OA
BRANCH   5   7
ATOM      7  C   UNL     1       8.801  -5.376  25.049  0.00  0.00    +0.163 C 
BRANCH   7   9
ATOM      8  C   UNL     1       7.841  -3.752  26.763  0.00  0.00    +0.009 C 
ATOM      9  C   UNL     1       7.876  -5.210  26.282  0.00  0.00    +0.010 C 
ATOM     10  C   UNL     1       6.436  -5.663  26.007  0.00  0.00    +0.009 C 
ENDBRANCH   7   9
BRANCH   7  11
ATOM     11  N   UNL     1      10.229  -5.500  25.422  0.00  0.00    -0.318 NA
ATOM     12  H   UNL     1      10.796  -5.344  24.584  0.00  0.00    +0.119 HD
ATOM     13  H   UNL     1      10.493  -4.785  26.094  0.00  0.00    +0.119 HD
ENDBRANCH   7  11
ENDBRANCH   5   7
ENDBRANCH   4   5
ENDBRANCH   3   4
ENDBRANCH   2   3
BRANCH   2  14
ATOM     14  C   UNL     1       9.105  -1.127  21.862  0.00  0.00    +0.190 C 
BRANCH  14  15
ATOM     15  O   UNL     1       7.831  -1.107  22.507  0.00  0.00    -0.392 OA
ATOM     16  H   UNL     1       7.980  -0.705  23.383  0.00  0.00    +0.210 HD
ENDBRANCH  14  15
ENDBRANCH   2  14
ENDBRANCH   1   2
BRANCH   1  17
ATOM     17  C   UNL     1      10.472   0.493  24.437  0.00  0.00    +0.288 C 
BRANCH  17  18
ATOM     18  N   UNL     1       9.670   1.691  24.269  0.00  0.00    -0.291 N 
ATOM     19  C   UNL     1      10.146   2.925  23.914  0.00  0.00    +0.171 A 
ATOM     20  N   UNL     1      11.425   3.246  23.601  0.00  0.00    -0.196 NA
ATOM     21  C   UNL     1      11.587   4.513  23.328  0.00  0.00    +0.195 A 
ATOM     22  N   UNL     1      12.812   4.992  23.003  0.00  0.00    -0.329 N 
ATOM     23  H   UNL     1      12.854   5.771  22.360  0.00  0.00    +0.145 HD
ATOM     24  H   UNL     1      13.480   4.258  22.785  0.00  0.00    +0.145 HD
ATOM     25  N   UNL     1      10.560   5.439  23.339  0.00  0.00    -0.293 N 
ATOM     26  H   UNL     1      10.752   6.411  23.161  0.00  0.00    +0.172 HD
ATOM     27  C   UNL     1       9.242   5.155  23.674  0.00  0.00    +0.280 A 
ATOM     28  O   UNL     1       8.376   6.024  23.697  0.00  0.00    -0.265 OA
ATOM     29  C   UNL     1       9.049   3.756  23.982  0.00  0.00    +0.172 A 
ATOM     30  N   UNL     1       7.927   3.080  24.385  0.00  0.00    -0.229 NA
ATOM     31  C   UNL     1       8.339   1.841  24.565  0.00  0.00    +0.203 A 
ENDBRANCH  17  18
ENDBRANCH   1  17
TORSDOF 11
ENDMDL
MODEL 7
REMARK VINA RESULT:      -6.0      1.695      2.739
REMARK  Name = 
REMARK  13 active torsions:
REMARK  status: ('A' for Active; 'I' for Inactive)
REMARK    1  A    between atoms: C_1  and  C_2
REMARK    2  A    between atoms: C_2  and  C_3
REMARK    3  A    between atoms: C_2  and  C_4
REMARK    4  A    between atoms: C_4  and  C_6
REMARK    5  A    between atoms: C_4  and  N_26
REMARK    6  A    between atoms: C_6  and  O_8
REMARK    7  A    between atoms: O_8  and  C_9
REMARK    8  A    between atoms: C_9  and  C_10
REMARK    9  A    between atoms: C_10  and  C_11
REMARK   10  A    between atoms: C_10  and  O_13
REMARK   11  A    between atoms: C_11  and  O_12
REMARK   12  A    between atoms: O_13  and  C_14
REMARK   13  A    between atoms: C_14  and  N_15
REMARK                            x       y       z     vdW  Elec       q    Type
REMARK                         _______ _______ _______ _____ _____    ______ ____
ROOT
ATOM      1  O   UNL     1       8.411  -3.218  23.256  0.00  0.00    -0.350 OA
ENDROOT
BRANCH   1   2
ATOM      2  C   UNL     1       7.945  -2.011  22.613  0.00  0.00    +0.183 C 
BRANCH   2   3
ATOM      3  C   UNL     1       7.566  -0.910  23.614  0.00  0.00    +0.266 C 
BRANCH   3   4
ATOM      4  O   UNL     1       8.670  -0.645  24.499  0.00  0.00    -0.461 OA
BRANCH   4   5
ATOM      5  C   UNL     1       8.678   0.582  25.091  0.00  0.00    +0.324 C 
ATOM      6  O   UNL     1       7.860   0.963  25.923  0.00  0.00    -0.249 OA
BRANCH   5   7
ATOM      7  C   UNL     1       9.878   1.424  24.610  0.00  0.00    +0.163 C 
BRANCH   7   9
ATOM      8  C   UNL     1       9.787   3.816  23.734  0.00  0.00    +0.009 C 
ATOM      9  C   UNL     1       9.449   2.348  23.441  0.00  0.00    +0.010 C 
ATOM     10  C   UNL     1      10.102   1.958  22.108  0.00  0.00    +0.009 C 
ENDBRANCH   7   9
BRANCH   7  11
ATOM     11  N   UNL     1      10.955   0.483  24.226  0.00  0.00    -0.318 NA
ATOM     12  H   UNL     1      11.421   0.849  23.392  0.00  0.00    +0.119 HD
ATOM     13  H   UNL     1      11.660   0.420  24.954  0.00  0.00    +0.119 HD
ENDBRANCH   7  11
ENDBRANCH   5   7
ENDBRANCH   4   5
ENDBRANCH   3   4
ENDBRANCH   2   3
BRANCH   2  14
ATOM     14  C   UNL     1       9.074  -1.519  21.694  0.00  0.00    +0.190 C 
BRANCH  14  15
ATOM     15  O   UNL     1      10.341  -1.829  22.274  0.00  0.00    -0.392 OA
ATOM     16  H   UNL     1      10.876  -1.016  22.203  0.00  0.00    +0.210 HD
ENDBRANCH  14  15
ENDBRANCH   2  14
ENDBRANCH   1   2
BRANCH   1  17
ATOM     17  C   UNL     1       7.352  -4.105  23.621  0.00  0.00    +0.288 C 
BRANCH  17  18
ATOM     18  N   UNL     1       7.476  -4.468  25.021  0.00  0.00    -0.291 N 
ATOM     19  C   UNL     1       6.636  -5.306  25.705  0.00  0.00    +0.171 A 
ATOM     20  N   UNL     1       5.579  -5.990  25.200  0.00  0.00    -0.196 NA
ATOM     21  C   UNL     1       4.942  -6.691  26.100  0.00  0.00    +0.195 A 
ATOM     22  N   UNL     1       3.858  -7.426  25.752  0.00  0.00    -0.329 N 
ATOM     23  H   UNL     1       3.688  -8.280  26.266  0.00  0.00    +0.145 HD
ATOM     24  H   UNL     1       3.761  -7.538  24.748  0.00  0.00    +0.145 HD
ATOM     25  N   UNL     1       5.310  -6.749  27.431  0.00  0.00    -0.293 N 
ATOM     26  H   UNL     1       4.755  -7.275  28.087  0.00  0.00    +0.172 HD
ATOM     27  C   UNL     1       6.371  -6.048  27.990  0.00  0.00    +0.280 A 
ATOM     28  O   UNL     1       6.634  -6.114  29.188  0.00  0.00    -0.265 OA
ATOM     29  C   UNL     1       7.083  -5.265  27.007  0.00  0.00    +0.172 A 
ATOM     30  N   UNL     1       8.152  -4.417  27.148  0.00  0.00    -0.229 NA
ATOM     31  C   UNL     1       8.353  -3.942  25.935  0.00  0.00    +0.203 A 
ENDBRANCH  17  18
ENDBRANCH   1  17
TORSDOF 11
ENDMDL
MODEL 8
REMARK VINA RESULT:      -6.0      1.780      2.154
REMARK  Name = 
REMARK  13 active torsions:
REMARK  status: ('A' for Active; 'I' for Inactive)
REMARK    1  A    between atoms: C_1  and  C_2
REMARK    2  A    between atoms: C_2  and  C_3
REMARK    3  A    between atoms: C_2  and  C_4
REMARK    4  A    between atoms: C_4  and  C_6
REMARK    5  A    between atoms: C_4  and  N_26
REMARK    6  A    between atoms: C_6  and  O_8
REMARK    7  A    between atoms: O_8  and  C_9
REMARK    8  A    between atoms: C_9  and  C_10
REMARK    9  A    between atoms: C_10  and  C_11
REMARK   10  A    between atoms: C_10  and  O_13
REMARK   11  A    between atoms: C_11  and  O_12
REMARK   12  A    between atoms: O_13  and  C_14
REMARK   13  A    between atoms: C_14  and  N_15
REMARK                            x       y       z     vdW  Elec       q    Type
REMARK                         _______ _______ _______ _____ _____    ______ ____
ROOT
ATOM      1  O   UNL     1       7.531  -2.282  23.481  0.00  0.00    -0.350 OA
ENDROOT
BRANCH   1   2
ATOM      2  C   UNL     1       8.584  -1.314  23.290  0.00  0.00    +0.183 C 
BRANCH   2   3
ATOM      3  C   UNL     1       8.828  -0.443  24.531  0.00  0.00    +0.266 C 
BRANCH   3   4
ATOM      4  O   UNL     1       8.985   0.935  24.144  0.00  0.00    -0.461 OA
BRANCH   4   5
ATOM      5  C   UNL     1      10.268   1.381  24.037  0.00  0.00    +0.324 C 
ATOM      6  O   UNL     1      11.243   0.837  24.546  0.00  0.00    -0.249 OA
BRANCH   5   7
ATOM      7  C   UNL     1      10.345   2.643  23.153  0.00  0.00    +0.163 C 
BRANCH   7   9
ATOM      8  C   UNL     1      10.442   5.106  23.802  0.00  0.00    +0.009 C 
ATOM      9  C   UNL     1       9.603   3.821  23.836  0.00  0.00    +0.010 C 
ATOM     10  C   UNL     1       8.241   4.115  23.193  0.00  0.00    +0.009 C 
ENDBRANCH   7   9
BRANCH   7  11
ATOM     11  N   UNL     1       9.770   2.296  21.833  0.00  0.00    -0.318 NA
ATOM     12  H   UNL     1       9.685   1.278  21.776  0.00  0.00    +0.119 HD
ATOM     13  H   UNL     1       8.833   2.676  21.734  0.00  0.00    +0.119 HD
ENDBRANCH   7  11
ENDBRANCH   5   7
ENDBRANCH   4   5
ENDBRANCH   3   4
ENDBRANCH   2   3
BRANCH   2  14
ATOM     14  C   UNL     1       9.862  -2.091  22.936  0.00  0.00    +0.190 C 
BRANCH  14  15
ATOM     15  O   UNL     1      10.466  -1.526  21.772  0.00  0.00    -0.392 OA
ATOM     16  H   UNL     1      11.416  -1.445  21.976  0.00  0.00    +0.210 HD
ENDBRANCH  14  15
ENDBRANCH   2  14
ENDBRANCH   1   2
BRANCH   1  17
ATOM     17  C   UNL     1       7.909  -3.608  23.106  0.00  0.00    +0.288 C 
BRANCH  17  18
ATOM     18  N   UNL     1       6.740  -4.468  23.093  0.00  0.00    -0.291 N 
ATOM     19  C   UNL     1       6.254  -5.168  24.165  0.00  0.00    +0.171 A 
ATOM     20  N   UNL     1       6.728  -5.146  25.435  0.00  0.00    -0.196 NA
ATOM     21  C   UNL     1       6.077  -5.941  26.242  0.00  0.00    +0.195 A 
ATOM     22  N   UNL     1       6.436  -6.036  27.545  0.00  0.00    -0.329 N 
ATOM     23  H   UNL     1       5.706  -6.226  28.218  0.00  0.00    +0.145 HD
ATOM     24  H   UNL     1       7.066  -5.296  27.838  0.00  0.00    +0.145 HD
ATOM     25  N   UNL     1       5.001  -6.717  25.854  0.00  0.00    -0.293 N 
ATOM     26  H   UNL     1       4.564  -7.343  26.511  0.00  0.00    +0.172 HD
ATOM     27  C   UNL     1       4.499  -6.783  24.560  0.00  0.00    +0.280 A 
ATOM     28  O   UNL     1       3.558  -7.514  24.265  0.00  0.00    -0.265 OA
ATOM     29  C   UNL     1       5.212  -5.911  23.655  0.00  0.00    +0.172 A 
ATOM     30  N   UNL     1       5.058  -5.708  22.308  0.00  0.00    -0.229 NA
ATOM     31  C   UNL     1       6.005  -4.844  21.998  0.00  0.00    +0.203 A 
ENDBRANCH  17  18
ENDBRANCH   1  17
TORSDOF 11
ENDMDL
MODEL 9
REMARK VINA RESULT:      -5.9      2.594      5.277
REMARK  Name = 
REMARK  13 active torsions:
REMARK  status: ('A' for Active; 'I' for Inactive)
REMARK    1  A    between atoms: C_1  and  C_2
REMARK    2  A    between atoms: C_2  and  C_3
REMARK    3  A    between atoms: C_2  and  C_4
REMARK    4  A    between atoms: C_4  and  C_6
REMARK    5  A    between atoms: C_4  and  N_26
REMARK    6  A    between atoms: C_6  and  O_8
REMARK    7  A    between atoms: O_8  and  C_9
REMARK    8  A    between atoms: C_9  and  C_10
REMARK    9  A    between atoms: C_10  and  C_11
REMARK   10  A    between atoms: C_10  and  O_13
REMARK   11  A    between atoms: C_11  and  O_12
REMARK   12  A    between atoms: O_13  and  C_14
REMARK   13  A    between atoms: C_14  and  N_15
REMARK                            x       y       z     vdW  Elec       q    Type
REMARK                         _______ _______ _______ _____ _____    ______ ____
ROOT
ATOM      1  O   UNL     1       7.681  -0.667  24.210  0.00  0.00    -0.350 OA
ENDROOT
BRANCH   1   2
ATOM      2  C   UNL     1       8.553  -1.267  23.227  0.00  0.00    +0.183 C 
BRANCH   2   3
ATOM      3  C   UNL     1       7.816  -2.227  22.282  0.00  0.00    +0.266 C 
BRANCH   3   4
ATOM      4  O   UNL     1       7.078  -3.201  23.044  0.00  0.00    -0.461 OA
BRANCH   4   5
ATOM      5  C   UNL     1       5.854  -3.540  22.551  0.00  0.00    +0.324 C 
ATOM      6  O   UNL     1       5.432  -3.220  21.444  0.00  0.00    -0.249 OA
BRANCH   5   7
ATOM      7  C   UNL     1       5.076  -4.417  23.553  0.00  0.00    +0.163 C 
BRANCH   7   9
ATOM      8  C   UNL     1       4.772  -6.838  24.293  0.00  0.00    +0.009 C 
ATOM      9  C   UNL     1       5.728  -5.821  23.655  0.00  0.00    +0.010 C 
ATOM     10  C   UNL     1       6.175  -6.366  22.292  0.00  0.00    +0.009 C 
ENDBRANCH   7   9
BRANCH   7  11
ATOM     11  N   UNL     1       3.669  -4.476  23.095  0.00  0.00    -0.318 NA
ATOM     12  H   UNL     1       3.658  -4.831  22.135  0.00  0.00    +0.119 HD
ATOM     13  H   UNL     1       3.130  -5.127  23.657  0.00  0.00    +0.119 HD
ENDBRANCH   7  11
ENDBRANCH   5   7
ENDBRANCH   4   5
ENDBRANCH   3   4
ENDBRANCH   2   3
BRANCH   2  14
ATOM     14  C   UNL     1       9.188  -0.123  22.421  0.00  0.00    +0.190 C 
BRANCH  14  15
ATOM     15  O   UNL     1       9.680  -0.622  21.177  0.00  0.00    -0.392 OA
ATOM     16  H   UNL     1      10.552  -0.206  21.046  0.00  0.00    +0.210 HD
ENDBRANCH  14  15
ENDBRANCH   2  14
ENDBRANCH   1   2
BRANCH   1  17
ATOM     17  C   UNL     1       8.144  -0.837  25.551  0.00  0.00    +0.288 C 
BRANCH  17  18
ATOM     18  N   UNL     1       7.437  -1.937  26.180  0.00  0.00    -0.291 N 
ATOM     19  C   UNL     1       7.887  -3.227  26.269  0.00  0.00    +0.171 A 
ATOM     20  N   UNL     1       9.084  -3.703  25.845  0.00  0.00    -0.196 NA
ATOM     21  C   UNL     1       9.225  -4.988  26.038  0.00  0.00    +0.195 A 
ATOM     22  N   UNL     1      10.366  -5.614  25.662  0.00  0.00    -0.329 N 
ATOM     23  H   UNL     1      10.665  -6.410  26.209  0.00  0.00    +0.145 HD
ATOM     24  H   UNL     1      11.121  -4.970  25.448  0.00  0.00    +0.145 HD
ATOM     25  N   UNL     1       8.264  -5.787  26.629  0.00  0.00    -0.293 N 
ATOM     26  H   UNL     1       8.412  -6.779  26.714  0.00  0.00    +0.172 HD
ATOM     27  C   UNL     1       7.019  -5.341  27.057  0.00  0.00    +0.280 A 
ATOM     28  O   UNL     1       6.190  -6.103  27.548  0.00  0.00    -0.265 OA
ATOM     29  C   UNL     1       6.847  -3.922  26.846  0.00  0.00    +0.172 A 
ATOM     30  N   UNL     1       5.771  -3.109  27.093  0.00  0.00    -0.229 NA
ATOM     31  C   UNL     1       6.154  -1.922  26.666  0.00  0.00    +0.203 A 
ENDBRANCH  17  18
ENDBRANCH   1  17
TORSDOF 11
ENDMDL
