MODEL 1
REMARK VINA RESULT:      -7.5      0.000      0.000
REMARK  Name = 
REMARK  15 active torsions:
REMARK  status: ('A' for Active; 'I' for Inactive)
REMARK    1  A    between atoms: C_1  and  C_2
REMARK    2  A    between atoms: C_2  and  C_3
REMARK    3  A    between atoms: C_3  and  C_4
REMARK    4  A    between atoms: C_4  and  C_36
REMARK    5  A    between atoms: C_6  and  O_35
REMARK    6  A    between atoms: C_7  and  C_11
REMARK    7  A    between atoms: C_11  and  C_13
REMARK    8  A    between atoms: C_11  and  C_15
REMARK    9  A    between atoms: C_13  and  C_14
REMARK   10  A    between atoms: C_17  and  N_21
REMARK   11  A    between atoms: N_21  and  S_22
REMARK   12  A    between atoms: S_22  and  C_25
REMARK   13  A    between atoms: C_28  and  C_31
REMARK   14  A    between atoms: C_36  and  C_37
REMARK   15  A    between atoms: C_37  and  C_38
REMARK                            x       y       z     vdW  Elec       q    Type
REMARK                         _______ _______ _______ _____ _____    ______ ____
ROOT
ATOM      1  C   UNL     1       5.884  -0.558  24.868  0.00  0.00    +0.059 C 
ENDROOT
BRANCH   1   6
ATOM      2  C   UNL     1       7.536   3.504  24.466  0.00  0.00    +0.121 C 
ATOM      3  O   UNL     1       6.464   2.864  23.734  0.00  0.00    -0.454 OA
ATOM      4  C   UNL     1       5.680   1.971  24.386  0.00  0.00    +0.339 C 
ATOM      5  O   UNL     1       4.460   2.006  24.334  0.00  0.00    -0.245 OA
ATOM      6  C   UNL     1       6.449   0.869  25.012  0.00  0.00    +0.081 C 
ATOM      7  C   UNL     1       7.528   1.296  25.698  0.00  0.00    +0.108 C 
ATOM      8  C   UNL     1       7.923   2.737  25.753  0.00  0.00    +0.122 C 
BRANCH   7   9
ATOM      9  O   UNL     1       8.347   0.435  26.391  0.00  0.00    -0.510 OA
ATOM     10  H   UNL     1       8.228  -0.480  26.086  0.00  0.00    +0.292 HD
ENDBRANCH   7   9
BRANCH   2  11
ATOM     11  C   UNL     1       7.003   4.904  24.880  0.00  0.00    +0.048 C 
BRANCH  11  13
ATOM     12  C   UNL     1       8.812   6.296  25.952  0.00  0.00    +0.004 C 
ATOM     13  C   UNL     1       7.566   5.456  26.196  0.00  0.00    +0.000 C 
ENDBRANCH  11  13
ENDBRANCH   2  11
BRANCH   2  14
ATOM     14  C   UNL     1       8.747   3.631  23.506  0.00  0.00    +0.053 C 
BRANCH  14  15
ATOM     15  C   UNL     1       9.965   2.778  23.895  0.00  0.00    +0.039 C 
BRANCH  15  16
ATOM     16  C   UNL     1       9.959   1.460  23.156  0.00  0.00    -0.047 A 
ATOM     17  C   UNL     1      10.532   0.321  23.733  0.00  0.00    +0.003 A 
ATOM     18  C   UNL     1      10.474  -0.909  23.074  0.00  0.00    +0.000 A 
ATOM     19  C   UNL     1       9.843  -1.009  21.836  0.00  0.00    +0.000 A 
ATOM     20  C   UNL     1       9.277   0.121  21.249  0.00  0.00    +0.000 A 
ATOM     21  C   UNL     1       9.334   1.352  21.905  0.00  0.00    +0.003 A 
ENDBRANCH  15  16
ENDBRANCH  14  15
ENDBRANCH   2  14
ENDBRANCH   1   6
BRANCH   1  22
ATOM     22  C   UNL     1       5.430  -1.153  26.210  0.00  0.00    -0.038 A 
ATOM     23  C   UNL     1       4.927  -0.320  27.228  0.00  0.00    +0.004 A 
ATOM     24  C   UNL     1       4.327  -0.864  28.364  0.00  0.00    +0.002 A 
ATOM     25  C   UNL     1       4.247  -2.246  28.518  0.00  0.00    +0.024 A 
ATOM     26  C   UNL     1       4.769  -3.082  27.532  0.00  0.00    +0.048 A 
ATOM     27  C   UNL     1       5.364  -2.549  26.389  0.00  0.00    +0.028 A 
BRANCH  26  28
ATOM     28  N   UNL     1       4.630  -4.494  27.692  0.00  0.00    -0.215 N 
ATOM     29  H   UNL     1       3.757  -4.912  27.391  0.00  0.00    +0.174 HD
BRANCH  28  30
ATOM     30  S   UNL     1       5.953  -5.508  27.370  0.00  0.00    +0.090 S 
ATOM     31  O   UNL     1       5.543  -6.805  27.876  0.00  0.00    -0.148 OA
ATOM     32  O   UNL     1       7.179  -4.894  27.837  0.00  0.00    -0.148 OA
BRANCH  30  33
ATOM     33  C   UNL     1       6.043  -5.661  25.578  0.00  0.00    +0.197 A 
ATOM     34  C   UNL     1       4.947  -6.113  24.854  0.00  0.00    +0.050 A 
ATOM     35  C   UNL     1       5.053  -6.123  23.462  0.00  0.00    +0.017 A 
ATOM     36  C   UNL     1       6.232  -5.678  22.847  0.00  0.00    +0.073 A 
ATOM     37  C   UNL     1       7.279  -5.283  23.667  0.00  0.00    +0.125 A 
ATOM     38  N   UNL     1       7.219  -5.277  25.016  0.00  0.00    -0.235 NA
BRANCH  36  39
ATOM     39  C   UNL     1       6.360  -5.608  21.354  0.00  0.00    +0.419 C 
ATOM     40  F   UNL     1       7.618  -5.912  20.931  0.00  0.00    -0.166 F 
ATOM     41  F   UNL     1       6.087  -4.371  20.861  0.00  0.00    -0.166 F 
ATOM     42  F   UNL     1       5.531  -6.465  20.698  0.00  0.00    -0.166 F 
ENDBRANCH  36  39
ENDBRANCH  30  33
ENDBRANCH  28  30
ENDBRANCH  26  28
ENDBRANCH   1  22
BRANCH   1  43
ATOM     43  C   UNL     1       6.866  -1.522  24.136  0.00  0.00    +0.010 C 
ATOM     44  C   UNL     1       6.458  -1.897  22.715  0.00  0.00    +0.005 C 
ENDBRANCH   1  43
TORSDOF 13
ENDMDL
MODEL 2
REMARK VINA RESULT:      -7.5      1.783      4.168
REMARK  Name = 
REMARK  15 active torsions:
REMARK  status: ('A' for Active; 'I' for Inactive)
REMARK    1  A    between atoms: C_1  and  C_2
REMARK    2  A    between atoms: C_2  and  C_3
REMARK    3  A    between atoms: C_3  and  C_4
REMARK    4  A    between atoms: C_4  and  C_36
REMARK    5  A    between atoms: C_6  and  O_35
REMARK    6  A    between atoms: C_7  and  C_11
REMARK    7  A    between atoms: C_11  and  C_13
REMARK    8  A    between atoms: C_11  and  C_15
REMARK    9  A    between atoms: C_13  and  C_14
REMARK   10  A    between atoms: C_17  and  N_21
REMARK   11  A    between atoms: N_21  and  S_22
REMARK   12  A    between atoms: S_22  and  C_25
REMARK   13  A    between atoms: C_28  and  C_31
REMARK   14  A    between atoms: C_36  and  C_37
REMARK   15  A    between atoms: C_37  and  C_38
REMARK                            x       y       z     vdW  Elec       q    Type
REMARK                         _______ _______ _______ _____ _____    ______ ____
ROOT
ATOM      1  C   UNL     1       6.970   1.151  26.567  0.00  0.00    +0.059 C 
ENDROOT
BRANCH   1   6
ATOM      2  C   UNL     1       9.444  -1.145  23.739  0.00  0.00    +0.121 C 
ATOM      3  O   UNL     1       9.788  -0.588  25.029  0.00  0.00    -0.454 OA
ATOM      4  C   UNL     1       8.832  -0.542  25.989  0.00  0.00    +0.339 C 
ATOM      5  O   UNL     1       9.027  -0.932  27.130  0.00  0.00    -0.245 OA
ATOM      6  C   UNL     1       7.609   0.176  25.558  0.00  0.00    +0.081 C 
ATOM      7  C   UNL     1       7.178  -0.193  24.335  0.00  0.00    +0.108 C 
ATOM      8  C   UNL     1       7.916  -1.183  23.491  0.00  0.00    +0.122 C 
BRANCH   7   9
ATOM      9  O   UNL     1       6.033   0.321  23.772  0.00  0.00    -0.510 OA
ATOM     10  H   UNL     1       6.218   0.714  22.903  0.00  0.00    +0.292 HD
ENDBRANCH   7   9
BRANCH   2  11
ATOM     11  C   UNL     1       9.968  -2.609  23.745  0.00  0.00    +0.048 C 
BRANCH  11  13
ATOM     12  C   UNL     1       9.425  -4.492  25.332  0.00  0.00    +0.004 C 
ATOM     13  C   UNL     1       8.937  -3.672  24.146  0.00  0.00    +0.000 C 
ENDBRANCH  11  13
ENDBRANCH   2  11
BRANCH   2  14
ATOM     14  C   UNL     1      10.165  -0.301  22.657  0.00  0.00    +0.053 C 
BRANCH  14  15
ATOM     15  C   UNL     1       9.226   0.500  21.739  0.00  0.00    +0.039 C 
BRANCH  15  16
ATOM     16  C   UNL     1       9.002   1.893  22.281  0.00  0.00    -0.047 A 
ATOM     17  C   UNL     1       7.854   2.614  21.928  0.00  0.00    +0.003 A 
ATOM     18  C   UNL     1       7.619   3.876  22.476  0.00  0.00    +0.000 A 
ATOM     19  C   UNL     1       8.527   4.427  23.377  0.00  0.00    +0.000 A 
ATOM     20  C   UNL     1       9.677   3.722  23.727  0.00  0.00    +0.000 A 
ATOM     21  C   UNL     1       9.915   2.459  23.182  0.00  0.00    +0.003 A 
ENDBRANCH  15  16
ENDBRANCH  14  15
ENDBRANCH   2  14
ENDBRANCH   1   6
BRANCH   1  22
ATOM     22  C   UNL     1       5.799   0.522  27.338  0.00  0.00    -0.038 A 
ATOM     23  C   UNL     1       5.300   1.135  28.504  0.00  0.00    +0.004 A 
ATOM     24  C   UNL     1       4.117   0.689  29.095  0.00  0.00    +0.002 A 
ATOM     25  C   UNL     1       3.431  -0.394  28.552  0.00  0.00    +0.024 A 
ATOM     26  C   UNL     1       3.932  -1.030  27.417  0.00  0.00    +0.048 A 
ATOM     27  C   UNL     1       5.108  -0.588  26.814  0.00  0.00    +0.028 A 
BRANCH  26  28
ATOM     28  N   UNL     1       3.182  -2.108  26.853  0.00  0.00    -0.215 N 
ATOM     29  H   UNL     1       2.780  -1.962  25.934  0.00  0.00    +0.174 HD
BRANCH  28  30
ATOM     30  S   UNL     1       3.728  -3.702  27.053  0.00  0.00    +0.090 S 
ATOM     31  O   UNL     1       2.512  -4.481  27.205  0.00  0.00    -0.148 OA
ATOM     32  O   UNL     1       4.762  -3.754  28.066  0.00  0.00    -0.148 OA
BRANCH  30  33
ATOM     33  C   UNL     1       4.453  -4.185  25.477  0.00  0.00    +0.197 A 
ATOM     34  C   UNL     1       4.493  -3.291  24.416  0.00  0.00    +0.050 A 
ATOM     35  C   UNL     1       5.149  -3.697  23.253  0.00  0.00    +0.017 A 
ATOM     36  C   UNL     1       5.744  -4.966  23.193  0.00  0.00    +0.073 A 
ATOM     37  C   UNL     1       5.611  -5.795  24.297  0.00  0.00    +0.125 A 
ATOM     38  N   UNL     1       4.969  -5.442  25.432  0.00  0.00    -0.235 NA
BRANCH  36  39
ATOM     39  C   UNL     1       6.517  -5.414  21.987  0.00  0.00    +0.419 C 
ATOM     40  F   UNL     1       7.196  -4.390  21.401  0.00  0.00    -0.166 F 
ATOM     41  F   UNL     1       5.721  -5.941  21.020  0.00  0.00    -0.166 F 
ATOM     42  F   UNL     1       7.450  -6.366  22.265  0.00  0.00    -0.166 F 
ENDBRANCH  36  39
ENDBRANCH  30  33
ENDBRANCH  28  30
ENDBRANCH  26  28
ENDBRANCH   1  22
BRANCH   1  43
ATOM     43  C   UNL     1       6.542   2.498  25.911  0.00  0.00    +0.010 C 
ATOM     44  C   UNL     1       7.114   3.746  26.576  0.00  0.00    +0.005 C 
ENDBRANCH   1  43
TORSDOF 13
ENDMDL
MODEL 3
REMARK VINA RESULT:      -7.3      2.792      5.717
REMARK  Name = 
REMARK  15 active torsions:
REMARK  status: ('A' for Active; 'I' for Inactive)
REMARK    1  A    between atoms: C_1  and  C_2
REMARK    2  A    between atoms: C_2  and  C_3
REMARK    3  A    between atoms: C_3  and  C_4
REMARK    4  A    between atoms: C_4  and  C_36
REMARK    5  A    between atoms: C_6  and  O_35
REMARK    6  A    between atoms: C_7  and  C_11
REMARK    7  A    between atoms: C_11  and  C_13
REMARK    8  A    between atoms: C_11  and  C_15
REMARK    9  A    between atoms: C_13  and  C_14
REMARK   10  A    between atoms: C_17  and  N_21
REMARK   11  A    between atoms: N_21  and  S_22
REMARK   12  A    between atoms: S_22  and  C_25
REMARK   13  A    between atoms: C_28  and  C_31
REMARK   14  A    between atoms: C_36  and  C_37
REMARK   15  A    between atoms: C_37  and  C_38
REMARK                            x       y       z     vdW  Elec       q    Type
REMARK                         _______ _______ _______ _____ _____    ______ ____
ROOT
ATOM      1  C   UNL     1       6.847   3.562  24.108  0.00  0.00    +0.059 C 
ENDROOT
BRANCH   1   6
ATOM      2  C   UNL     1       5.336   1.002  27.356  0.00  0.00    +0.121 C 
ATOM      3  O   UNL     1       6.643   1.596  27.177  0.00  0.00    -0.454 OA
ATOM      4  C   UNL     1       6.727   2.807  26.574  0.00  0.00    +0.339 C 
ATOM      5  O   UNL     1       7.384   3.727  27.035  0.00  0.00    -0.245 OA
ATOM      6  C   UNL     1       6.089   2.835  25.236  0.00  0.00    +0.081 C 
ATOM      7  C   UNL     1       4.867   2.266  25.216  0.00  0.00    +0.108 C 
ATOM      8  C   UNL     1       4.266   1.619  26.423  0.00  0.00    +0.122 C 
BRANCH   7   9
ATOM      9  O   UNL     1       4.090   2.232  24.082  0.00  0.00    -0.510 OA
ATOM     10  H   UNL     1       4.613   2.459  23.295  0.00  0.00    +0.292 HD
ENDBRANCH   7   9
BRANCH   2  11
ATOM     11  C   UNL     1       4.923   1.298  28.825  0.00  0.00    +0.048 C 
BRANCH  11  13
ATOM     12  C   UNL     1       6.263   2.644  30.485  0.00  0.00    +0.004 C 
ATOM     13  C   UNL     1       6.069   1.276  29.845  0.00  0.00    +0.000 C 
ENDBRANCH  11  13
ENDBRANCH   2  11
BRANCH   2  14
ATOM     14  C   UNL     1       5.476  -0.523  27.114  0.00  0.00    +0.053 C 
BRANCH  14  15
ATOM     15  C   UNL     1       6.772  -0.941  26.400  0.00  0.00    +0.039 C 
BRANCH  15  16
ATOM     16  C   UNL     1       7.037  -2.417  26.585  0.00  0.00    -0.047 A 
ATOM     17  C   UNL     1       5.981  -3.300  26.841  0.00  0.00    +0.003 A 
ATOM     18  C   UNL     1       6.220  -4.671  26.954  0.00  0.00    +0.000 A 
ATOM     19  C   UNL     1       7.513  -5.169  26.813  0.00  0.00    +0.000 A 
ATOM     20  C   UNL     1       8.573  -4.298  26.568  0.00  0.00    +0.000 A 
ATOM     21  C   UNL     1       8.337  -2.926  26.454  0.00  0.00    +0.003 A 
ENDBRANCH  15  16
ENDBRANCH  14  15
ENDBRANCH   2  14
ENDBRANCH   1   6
BRANCH   1  22
ATOM     22  C   UNL     1       8.225   2.941  23.825  0.00  0.00    -0.038 A 
ATOM     23  C   UNL     1       9.359   3.760  23.665  0.00  0.00    +0.004 A 
ATOM     24  C   UNL     1      10.639   3.207  23.611  0.00  0.00    +0.002 A 
ATOM     25  C   UNL     1      10.805   1.826  23.684  0.00  0.00    +0.024 A 
ATOM     26  C   UNL     1       9.688   1.002  23.810  0.00  0.00    +0.048 A 
ATOM     27  C   UNL     1       8.406   1.545  23.873  0.00  0.00    +0.028 A 
BRANCH  26  28
ATOM     28  N   UNL     1       9.891  -0.407  23.931  0.00  0.00    -0.215 N 
ATOM     29  H   UNL     1       9.518  -0.860  24.758  0.00  0.00    +0.174 HD
BRANCH  28  30
ATOM     30  S   UNL     1       9.751  -1.395  22.558  0.00  0.00    +0.090 S 
ATOM     31  O   UNL     1      10.900  -2.279  22.634  0.00  0.00    -0.148 OA
ATOM     32  O   UNL     1       9.528  -0.583  21.379  0.00  0.00    -0.148 OA
BRANCH  30  33
ATOM     33  C   UNL     1       8.295  -2.420  22.825  0.00  0.00    +0.197 A 
ATOM     34  C   UNL     1       7.031  -1.849  22.881  0.00  0.00    +0.050 A 
ATOM     35  C   UNL     1       5.938  -2.709  22.999  0.00  0.00    +0.017 A 
ATOM     36  C   UNL     1       6.142  -4.096  23.048  0.00  0.00    +0.073 A 
ATOM     37  C   UNL     1       7.450  -4.558  23.024  0.00  0.00    +0.125 A 
ATOM     38  N   UNL     1       8.531  -3.755  22.927  0.00  0.00    -0.235 NA
BRANCH  36  39
ATOM     39  C   UNL     1       4.991  -5.057  23.106  0.00  0.00    +0.419 C 
ATOM     40  F   UNL     1       4.997  -5.931  22.062  0.00  0.00    -0.166 F 
ATOM     41  F   UNL     1       3.784  -4.433  23.067  0.00  0.00    -0.166 F 
ATOM     42  F   UNL     1       4.981  -5.823  24.231  0.00  0.00    -0.166 F 
ENDBRANCH  36  39
ENDBRANCH  30  33
ENDBRANCH  28  30
ENDBRANCH  26  28
ENDBRANCH   1  22
BRANCH   1  43
ATOM     43  C   UNL     1       6.970   5.095  24.357  0.00  0.00    +0.010 C 
ATOM     44  C   UNL     1       5.650   5.810  24.622  0.00  0.00    +0.005 C 
ENDBRANCH   1  43
TORSDOF 13
ENDMDL
MODEL 4
REMARK VINA RESULT:      -7.2      2.861      5.743
REMARK  Name = 
REMARK  15 active torsions:
REMARK  status: ('A' for Active; 'I' for Inactive)
REMARK    1  A    between atoms: C_1  and  C_2
REMARK    2  A    between atoms: C_2  and  C_3
REMARK    3  A    between atoms: C_3  and  C_4
REMARK    4  A    between atoms: C_4  and  C_36
REMARK    5  A    between atoms: C_6  and  O_35
REMARK    6  A    between atoms: C_7  and  C_11
REMARK    7  A    between atoms: C_11  and  C_13
REMARK    8  A    between atoms: C_11  and  C_15
REMARK    9  A    between atoms: C_13  and  C_14
REMARK   10  A    between atoms: C_17  and  N_21
REMARK   11  A    between atoms: N_21  and  S_22
REMARK   12  A    between atoms: S_22  and  C_25
REMARK   13  A    between atoms: C_28  and  C_31
REMARK   14  A    between atoms: C_36  and  C_37
REMARK   15  A    between atoms: C_37  and  C_38
REMARK                            x       y       z     vdW  Elec       q    Type
REMARK                         _______ _______ _______ _____ _____    ______ ____
ROOT
ATOM      1  C   UNL     1       6.807   2.021  22.743  0.00  0.00    +0.059 C 
ENDROOT
BRANCH   1   6
ATOM      2  C   UNL     1       6.305   1.446  27.079  0.00  0.00    +0.121 C 
ATOM      3  O   UNL     1       7.487   1.302  26.256  0.00  0.00    -0.454 OA
ATOM      4  C   UNL     1       7.634   2.121  25.186  0.00  0.00    +0.339 C 
ATOM      5  O   UNL     1       8.669   2.727  24.960  0.00  0.00    -0.245 OA
ATOM      6  C   UNL     1       6.486   2.066  24.250  0.00  0.00    +0.081 C 
ATOM      7  C   UNL     1       5.290   2.136  24.868  0.00  0.00    +0.108 C 
ATOM      8  C   UNL     1       5.161   2.198  26.356  0.00  0.00    +0.122 C 
BRANCH   7   9
ATOM      9  O   UNL     1       4.103   2.148  24.173  0.00  0.00    -0.510 OA
ATOM     10  H   UNL     1       4.222   1.795  23.276  0.00  0.00    +0.292 HD
ENDBRANCH   7   9
BRANCH   2  11
ATOM     11  C   UNL     1       6.735   2.292  28.311  0.00  0.00    +0.048 C 
BRANCH  11  13
ATOM     12  C   UNL     1       7.970   1.435  30.336  0.00  0.00    +0.004 C 
ATOM     13  C   UNL     1       6.611   1.584  29.666  0.00  0.00    +0.000 C 
ENDBRANCH  11  13
ENDBRANCH   2  11
BRANCH   2  14
ATOM     14  C   UNL     1       5.857   0.026  27.508  0.00  0.00    +0.053 C 
BRANCH  14  15
ATOM     15  C   UNL     1       6.006  -1.049  26.419  0.00  0.00    +0.039 C 
BRANCH  15  16
ATOM     16  C   UNL     1       4.779  -1.931  26.361  0.00  0.00    -0.047 A 
ATOM     17  C   UNL     1       3.914  -2.014  27.458  0.00  0.00    +0.003 A 
ATOM     18  C   UNL     1       2.750  -2.782  27.382  0.00  0.00    +0.000 A 
ATOM     19  C   UNL     1       2.444  -3.471  26.211  0.00  0.00    +0.000 A 
ATOM     20  C   UNL     1       3.303  -3.403  25.116  0.00  0.00    +0.000 A 
ATOM     21  C   UNL     1       4.467  -2.635  25.189  0.00  0.00    +0.003 A 
ENDBRANCH  15  16
ENDBRANCH  14  15
ENDBRANCH   2  14
ENDBRANCH   1   6
BRANCH   1  22
ATOM     22  C   UNL     1       7.715   0.841  22.365  0.00  0.00    -0.038 A 
ATOM     23  C   UNL     1       8.920   1.060  21.669  0.00  0.00    +0.004 A 
ATOM     24  C   UNL     1       9.845   0.029  21.499  0.00  0.00    +0.002 A 
ATOM     25  C   UNL     1       9.569  -1.244  21.994  0.00  0.00    +0.024 A 
ATOM     26  C   UNL     1       8.366  -1.482  22.657  0.00  0.00    +0.048 A 
ATOM     27  C   UNL     1       7.439  -0.457  22.838  0.00  0.00    +0.028 A 
BRANCH  26  28
ATOM     28  N   UNL     1       8.131  -2.783  23.196  0.00  0.00    -0.215 N 
ATOM     29  H   UNL     1       8.071  -3.553  22.540  0.00  0.00    +0.174 HD
BRANCH  28  30
ATOM     30  S   UNL     1       8.902  -3.245  24.636  0.00  0.00    +0.090 S 
ATOM     31  O   UNL     1       8.997  -2.015  25.402  0.00  0.00    -0.148 OA
ATOM     32  O   UNL     1      10.090  -4.019  24.342  0.00  0.00    -0.148 OA
BRANCH  30  33
ATOM     33  C   UNL     1       7.737  -4.304  25.510  0.00  0.00    +0.197 A 
ATOM     34  C   UNL     1       7.633  -4.246  26.894  0.00  0.00    +0.050 A 
ATOM     35  C   UNL     1       6.648  -5.028  27.501  0.00  0.00    +0.017 A 
ATOM     36  C   UNL     1       5.805  -5.825  26.713  0.00  0.00    +0.073 A 
ATOM     37  C   UNL     1       6.022  -5.838  25.343  0.00  0.00    +0.125 A 
ATOM     38  N   UNL     1       6.974  -5.109  24.724  0.00  0.00    -0.235 NA
BRANCH  36  39
ATOM     39  C   UNL     1       4.691  -6.626  27.320  0.00  0.00    +0.419 C 
ATOM     40  F   UNL     1       5.145  -7.534  28.228  0.00  0.00    -0.166 F 
ATOM     41  F   UNL     1       3.991  -7.336  26.396  0.00  0.00    -0.166 F 
ATOM     42  F   UNL     1       3.775  -5.866  27.982  0.00  0.00    -0.166 F 
ENDBRANCH  36  39
ENDBRANCH  30  33
ENDBRANCH  28  30
ENDBRANCH  26  28
ENDBRANCH   1  22
BRANCH   1  43
ATOM     43  C   UNL     1       7.393   3.365  22.213  0.00  0.00    +0.010 C 
ATOM     44  C   UNL     1       6.549   4.598  22.516  0.00  0.00    +0.005 C 
ENDBRANCH   1  43
TORSDOF 13
ENDMDL
MODEL 5
REMARK VINA RESULT:      -7.2      1.713      2.299
REMARK  Name = 
REMARK  15 active torsions:
REMARK  status: ('A' for Active; 'I' for Inactive)
REMARK    1  A    between atoms: C_1  and  C_2
REMARK    2  A    between atoms: C_2  and  C_3
REMARK    3  A    between atoms: C_3  and  C_4
REMARK    4  A    between atoms: C_4  and  C_36
REMARK    5  A    between atoms: C_6  and  O_35
REMARK    6  A    between atoms: C_7  and  C_11
REMARK    7  A    between atoms: C_11  and  C_13
REMARK    8  A    between atoms: C_11  and  C_15
REMARK    9  A    between atoms: C_13  and  C_14
REMARK   10  A    between atoms: C_17  and  N_21
REMARK   11  A    between atoms: N_21  and  S_22
REMARK   12  A    between atoms: S_22  and  C_25
REMARK   13  A    between atoms: C_28  and  C_31
REMARK   14  A    between atoms: C_36  and  C_37
REMARK   15  A    between atoms: C_37  and  C_38
REMARK                            x       y       z     vdW  Elec       q    Type
REMARK                         _______ _______ _______ _____ _____    ______ ____
ROOT
ATOM      1  C   UNL     1       5.693  -0.306  24.948  0.00  0.00    +0.059 C 
ENDROOT
BRANCH   1   6
ATOM      2  C   UNL     1       7.708   3.528  24.159  0.00  0.00    +0.121 C 
ATOM      3  O   UNL     1       6.668   2.857  23.409  0.00  0.00    -0.454 OA
ATOM      4  C   UNL     1       5.750   2.128  24.088  0.00  0.00    +0.339 C 
ATOM      5  O   UNL     1       4.549   2.236  23.892  0.00  0.00    -0.245 OA
ATOM      6  C   UNL     1       6.357   1.085  24.949  0.00  0.00    +0.081 C 
ATOM      7  C   UNL     1       7.390   1.539  25.686  0.00  0.00    +0.108 C 
ATOM      8  C   UNL     1       7.895   2.942  25.579  0.00  0.00    +0.122 C 
BRANCH   7   9
ATOM      9  O   UNL     1       8.059   0.740  26.585  0.00  0.00    -0.510 OA
ATOM     10  H   UNL     1       8.783   1.228  27.012  0.00  0.00    +0.292 HD
ENDBRANCH   7   9
BRANCH   2  11
ATOM     11  C   UNL     1       7.253   5.007  24.304  0.00  0.00    +0.048 C 
BRANCH  11  13
ATOM     12  C   UNL     1       7.448   6.411  22.218  0.00  0.00    +0.004 C 
ATOM     13  C   UNL     1       6.513   5.587  23.092  0.00  0.00    +0.000 C 
ENDBRANCH  11  13
ENDBRANCH   2  11
BRANCH   2  14
ATOM     14  C   UNL     1       9.018   3.428  23.335  0.00  0.00    +0.053 C 
BRANCH  14  15
ATOM     15  C   UNL     1      10.052   2.436  23.895  0.00  0.00    +0.039 C 
BRANCH  15  16
ATOM     16  C   UNL     1       9.917   1.085  23.230  0.00  0.00    -0.047 A 
ATOM     17  C   UNL     1       9.460   0.987  21.911  0.00  0.00    +0.003 A 
ATOM     18  C   UNL     1       9.391  -0.256  21.279  0.00  0.00    +0.000 A 
ATOM     19  C   UNL     1       9.778  -1.408  21.959  0.00  0.00    +0.000 A 
ATOM     20  C   UNL     1      10.225  -1.322  23.277  0.00  0.00    +0.000 A 
ATOM     21  C   UNL     1      10.296  -0.080  23.911  0.00  0.00    +0.003 A 
ENDBRANCH  15  16
ENDBRANCH  14  15
ENDBRANCH   2  14
ENDBRANCH   1   6
BRANCH   1  22
ATOM     22  C   UNL     1       4.968  -0.618  26.266  0.00  0.00    -0.038 A 
ATOM     23  C   UNL     1       4.668   0.413  27.179  0.00  0.00    +0.004 A 
ATOM     24  C   UNL     1       3.838   0.177  28.275  0.00  0.00    +0.002 A 
ATOM     25  C   UNL     1       3.319  -1.096  28.496  0.00  0.00    +0.024 A 
ATOM     26  C   UNL     1       3.633  -2.132  27.618  0.00  0.00    +0.048 A 
ATOM     27  C   UNL     1       4.456  -1.906  26.515  0.00  0.00    +0.028 A 
BRANCH  26  28
ATOM     28  N   UNL     1       3.048  -3.416  27.842  0.00  0.00    -0.215 N 
ATOM     29  H   UNL     1       2.389  -3.753  27.149  0.00  0.00    +0.174 HD
BRANCH  28  30
ATOM     30  S   UNL     1       4.003  -4.675  28.462  0.00  0.00    +0.090 S 
ATOM     31  O   UNL     1       3.168  -5.856  28.332  0.00  0.00    -0.148 OA
ATOM     32  O   UNL     1       4.547  -4.301  29.752  0.00  0.00    -0.148 OA
BRANCH  30  33
ATOM     33  C   UNL     1       5.370  -4.883  27.308  0.00  0.00    +0.197 A 
ATOM     34  C   UNL     1       5.138  -5.331  26.015  0.00  0.00    +0.050 A 
ATOM     35  C   UNL     1       6.228  -5.384  25.145  0.00  0.00    +0.017 A 
ATOM     36  C   UNL     1       7.497  -4.983  25.588  0.00  0.00    +0.073 A 
ATOM     37  C   UNL     1       7.623  -4.588  26.912  0.00  0.00    +0.125 A 
ATOM     38  N   UNL     1       6.595  -4.541  27.786  0.00  0.00    -0.235 NA
BRANCH  36  39
ATOM     39  C   UNL     1       8.680  -4.959  24.665  0.00  0.00    +0.419 C 
ATOM     40  F   UNL     1       8.313  -4.805  23.363  0.00  0.00    -0.166 F 
ATOM     41  F   UNL     1       9.409  -6.106  24.718  0.00  0.00    -0.166 F 
ATOM     42  F   UNL     1       9.551  -3.947  24.928  0.00  0.00    -0.166 F 
ENDBRANCH  36  39
ENDBRANCH  30  33
ENDBRANCH  28  30
ENDBRANCH  26  28
ENDBRANCH   1  22
BRANCH   1  43
ATOM     43  C   UNL     1       6.689  -1.446  24.579  0.00  0.00    +0.010 C 
ATOM     44  C   UNL     1       6.461  -2.080  23.211  0.00  0.00    +0.005 C 
ENDBRANCH   1  43
TORSDOF 13
ENDMDL
MODEL 6
REMARK VINA RESULT:      -7.0      4.112      7.567
REMARK  Name = 
REMARK  15 active torsions:
REMARK  status: ('A' for Active; 'I' for Inactive)
REMARK    1  A    between atoms: C_1  and  C_2
REMARK    2  A    between atoms: C_2  and  C_3
REMARK    3  A    between atoms: C_3  and  C_4
REMARK    4  A    between atoms: C_4  and  C_36
REMARK    5  A    between atoms: C_6  and  O_35
REMARK    6  A    between atoms: C_7  and  C_11
REMARK    7  A    between atoms: C_11  and  C_13
REMARK    8  A    between atoms: C_11  and  C_15
REMARK    9  A    between atoms: C_13  and  C_14
REMARK   10  A    between atoms: C_17  and  N_21
REMARK   11  A    between atoms: N_21  and  S_22
REMARK   12  A    between atoms: S_22  and  C_25
REMARK   13  A    between atoms: C_28  and  C_31
REMARK   14  A    between atoms: C_36  and  C_37
REMARK   15  A    between atoms: C_37  and  C_38
REMARK                            x       y       z     vdW  Elec       q    Type
REMARK                         _______ _______ _______ _____ _____    ______ ____
ROOT
ATOM      1  C   UNL     1       6.921   1.051  25.929  0.00  0.00    +0.059 C 
ENDROOT
BRANCH   1   6
ATOM      2  C   UNL     1       7.696  -2.559  23.531  0.00  0.00    +0.121 C 
ATOM      3  O   UNL     1       8.114  -2.235  24.878  0.00  0.00    -0.454 OA
ATOM      4  C   UNL     1       7.286  -1.490  25.650  0.00  0.00    +0.339 C 
ATOM      5  O   UNL     1       6.999  -1.800  26.796  0.00  0.00    -0.245 OA
ATOM      6  C   UNL     1       6.915  -0.198  25.026  0.00  0.00    +0.081 C 
ATOM      7  C   UNL     1       6.546  -0.317  23.735  0.00  0.00    +0.108 C 
ATOM      8  C   UNL     1       6.578  -1.625  23.010  0.00  0.00    +0.122 C 
BRANCH   7   9
ATOM      9  O   UNL     1       6.119   0.758  22.989  0.00  0.00    -0.510 OA
ATOM     10  H   UNL     1       6.313   1.595  23.444  0.00  0.00    +0.292 HD
ENDBRANCH   7   9
BRANCH   2  11
ATOM     11  C   UNL     1       7.128  -4.005  23.590  0.00  0.00    +0.048 C 
BRANCH  11  13
ATOM     12  C   UNL     1       6.854  -5.658  21.704  0.00  0.00    +0.004 C 
ATOM     13  C   UNL     1       6.277  -4.424  22.384  0.00  0.00    +0.000 C 
ENDBRANCH  11  13
ENDBRANCH   2  11
BRANCH   2  14
ATOM     14  C   UNL     1       8.951  -2.491  22.622  0.00  0.00    +0.053 C 
BRANCH  14  15
ATOM     15  C   UNL     1      10.194  -1.883  23.292  0.00  0.00    +0.039 C 
BRANCH  15  16
ATOM     16  C   UNL     1      10.191  -0.377  23.169  0.00  0.00    -0.047 A 
ATOM     17  C   UNL     1      10.671   0.420  24.215  0.00  0.00    +0.003 A 
ATOM     18  C   UNL     1      10.722   1.809  24.077  0.00  0.00    +0.000 A 
ATOM     19  C   UNL     1      10.295   2.409  22.895  0.00  0.00    +0.000 A 
ATOM     20  C   UNL     1       9.806   1.625  21.852  0.00  0.00    +0.000 A 
ATOM     21  C   UNL     1       9.755   0.236  21.987  0.00  0.00    +0.003 A 
ENDBRANCH  15  16
ENDBRANCH  14  15
ENDBRANCH   2  14
ENDBRANCH   1   6
BRANCH   1  22
ATOM     22  C   UNL     1       5.570   1.286  26.624  0.00  0.00    -0.038 A 
ATOM     23  C   UNL     1       5.456   1.171  28.023  0.00  0.00    +0.004 A 
ATOM     24  C   UNL     1       4.295   1.578  28.681  0.00  0.00    +0.002 A 
ATOM     25  C   UNL     1       3.218   2.075  27.952  0.00  0.00    +0.024 A 
ATOM     26  C   UNL     1       3.306   2.164  26.563  0.00  0.00    +0.048 A 
ATOM     27  C   UNL     1       4.465   1.768  25.897  0.00  0.00    +0.028 A 
BRANCH  26  28
ATOM     28  N   UNL     1       2.205   2.722  25.845  0.00  0.00    -0.215 N 
ATOM     29  H   UNL     1       1.279   2.382  26.077  0.00  0.00    +0.174 HD
BRANCH  28  30
ATOM     30  S   UNL     1       2.192   4.382  25.489  0.00  0.00    +0.090 S 
ATOM     31  O   UNL     1       2.384   5.026  26.776  0.00  0.00    -0.148 OA
ATOM     32  O   UNL     1       1.043   4.709  24.670  0.00  0.00    -0.148 OA
BRANCH  30  33
ATOM     33  C   UNL     1       3.682   4.700  24.530  0.00  0.00    +0.197 A 
ATOM     34  C   UNL     1       4.639   5.596  24.989  0.00  0.00    +0.050 A 
ATOM     35  C   UNL     1       5.811   5.729  24.242  0.00  0.00    +0.017 A 
ATOM     36  C   UNL     1       5.990   4.963  23.081  0.00  0.00    +0.073 A 
ATOM     37  C   UNL     1       4.954   4.127  22.692  0.00  0.00    +0.125 A 
ATOM     38  N   UNL     1       3.800   3.986  23.379  0.00  0.00    -0.235 NA
BRANCH  36  39
ATOM     39  C   UNL     1       7.263   5.026  22.289  0.00  0.00    +0.419 C 
ATOM     40  F   UNL     1       7.475   3.892  21.565  0.00  0.00    -0.166 F 
ATOM     41  F   UNL     1       8.362   5.182  23.074  0.00  0.00    -0.166 F 
ATOM     42  F   UNL     1       7.294   6.049  21.392  0.00  0.00    -0.166 F 
ENDBRANCH  36  39
ENDBRANCH  30  33
ENDBRANCH  28  30
ENDBRANCH  26  28
ENDBRANCH   1  22
BRANCH   1  43
ATOM     43  C   UNL     1       7.390   2.334  25.179  0.00  0.00    +0.010 C 
ATOM     44  C   UNL     1       7.743   3.512  26.080  0.00  0.00    +0.005 C 
ENDBRANCH   1  43
TORSDOF 13
ENDMDL
MODEL 7
REMARK VINA RESULT:      -6.9      3.096      4.216
REMARK  Name = 
REMARK  15 active torsions:
REMARK  status: ('A' for Active; 'I' for Inactive)
REMARK    1  A    between atoms: C_1  and  C_2
REMARK    2  A    between atoms: C_2  and  C_3
REMARK    3  A    between atoms: C_3  and  C_4
REMARK    4  A    between atoms: C_4  and  C_36
REMARK    5  A    between atoms: C_6  and  O_35
REMARK    6  A    between atoms: C_7  and  C_11
REMARK    7  A    between atoms: C_11  and  C_13
REMARK    8  A    between atoms: C_11  and  C_15
REMARK    9  A    between atoms: C_13  and  C_14
REMARK   10  A    between atoms: C_17  and  N_21
REMARK   11  A    between atoms: N_21  and  S_22
REMARK   12  A    between atoms: S_22  and  C_25
REMARK   13  A    between atoms: C_28  and  C_31
REMARK   14  A    between atoms: C_36  and  C_37
REMARK   15  A    between atoms: C_37  and  C_38
REMARK                            x       y       z     vdW  Elec       q    Type
REMARK                         _______ _______ _______ _____ _____    ______ ____
ROOT
ATOM      1  C   UNL     1       6.313  -2.187  27.005  0.00  0.00    +0.059 C 
ENDROOT
BRANCH   1   6
ATOM      2  C   UNL     1       6.014   1.884  25.356  0.00  0.00    +0.121 C 
ATOM      3  O   UNL     1       5.294   0.683  24.993  0.00  0.00    -0.454 OA
ATOM      4  C   UNL     1       5.007  -0.218  25.964  0.00  0.00    +0.339 C 
ATOM      5  O   UNL     1       3.892  -0.695  26.110  0.00  0.00    -0.245 OA
ATOM      6  C   UNL     1       6.208  -0.680  26.701  0.00  0.00    +0.081 C 
ATOM      7  C   UNL     1       7.025   0.326  27.072  0.00  0.00    +0.108 C 
ATOM      8  C   UNL     1       6.756   1.751  26.707  0.00  0.00    +0.122 C 
BRANCH   7   9
ATOM      9  O   UNL     1       8.168   0.112  27.806  0.00  0.00    -0.510 OA
ATOM     10  H   UNL     1       8.084   0.489  28.698  0.00  0.00    +0.292 HD
ENDBRANCH   7   9
BRANCH   2  11
ATOM     11  C   UNL     1       4.945   3.004  25.500  0.00  0.00    +0.048 C 
BRANCH  11  13
ATOM     12  C   UNL     1       4.447   4.941  23.964  0.00  0.00    +0.004 C 
ATOM     13  C   UNL     1       4.278   3.445  24.191  0.00  0.00    +0.000 C 
ENDBRANCH  11  13
ENDBRANCH   2  11
BRANCH   2  14
ATOM     14  C   UNL     1       7.002   2.203  24.204  0.00  0.00    +0.053 C 
BRANCH  14  15
ATOM     15  C   UNL     1       6.988   1.190  23.048  0.00  0.00    +0.039 C 
BRANCH  15  16
ATOM     16  C   UNL     1       8.237   0.340  23.061  0.00  0.00    -0.047 A 
ATOM     17  C   UNL     1       8.932   0.120  24.256  0.00  0.00    +0.003 A 
ATOM     18  C   UNL     1      10.052  -0.713  24.277  0.00  0.00    +0.000 A 
ATOM     19  C   UNL     1      10.485  -1.332  23.107  0.00  0.00    +0.000 A 
ATOM     20  C   UNL     1       9.806  -1.112  21.910  0.00  0.00    +0.000 A 
ATOM     21  C   UNL     1       8.685  -0.280  21.886  0.00  0.00    +0.003 A 
ENDBRANCH  15  16
ENDBRANCH  14  15
ENDBRANCH   2  14
ENDBRANCH   1   6
BRANCH   1  22
ATOM     22  C   UNL     1       7.253  -2.923  26.037  0.00  0.00    -0.038 A 
ATOM     23  C   UNL     1       8.272  -3.762  26.529  0.00  0.00    +0.004 A 
ATOM     24  C   UNL     1       8.996  -4.587  25.669  0.00  0.00    +0.002 A 
ATOM     25  C   UNL     1       8.737  -4.567  24.300  0.00  0.00    +0.024 A 
ATOM     26  C   UNL     1       7.753  -3.718  23.796  0.00  0.00    +0.048 A 
ATOM     27  C   UNL     1       7.018  -2.895  24.649  0.00  0.00    +0.028 A 
BRANCH  26  28
ATOM     28  N   UNL     1       7.474  -3.752  22.396  0.00  0.00    -0.215 N 
ATOM     29  H   UNL     1       8.246  -3.569  21.765  0.00  0.00    +0.174 HD
BRANCH  28  30
ATOM     30  S   UNL     1       6.428  -4.938  21.779  0.00  0.00    +0.090 S 
ATOM     31  O   UNL     1       7.257  -6.125  21.667  0.00  0.00    -0.148 OA
ATOM     32  O   UNL     1       5.720  -4.427  20.622  0.00  0.00    -0.148 OA
BRANCH  30  33
ATOM     33  C   UNL     1       5.227  -5.271  23.078  0.00  0.00    +0.197 A 
ATOM     34  C   UNL     1       4.191  -4.380  23.325  0.00  0.00    +0.050 A 
ATOM     35  C   UNL     1       3.243  -4.742  24.284  0.00  0.00    +0.017 A 
ATOM     36  C   UNL     1       3.356  -5.971  24.950  0.00  0.00    +0.073 A 
ATOM     37  C   UNL     1       4.452  -6.768  24.653  0.00  0.00    +0.125 A 
ATOM     38  N   UNL     1       5.397  -6.443  23.745  0.00  0.00    -0.235 NA
BRANCH  36  39
ATOM     39  C   UNL     1       2.321  -6.427  25.936  0.00  0.00    +0.419 C 
ATOM     40  F   UNL     1       2.877  -6.851  27.105  0.00  0.00    -0.166 F 
ATOM     41  F   UNL     1       1.579  -7.468  25.474  0.00  0.00    -0.166 F 
ATOM     42  F   UNL     1       1.433  -5.454  26.279  0.00  0.00    -0.166 F 
ENDBRANCH  36  39
ENDBRANCH  30  33
ENDBRANCH  28  30
ENDBRANCH  26  28
ENDBRANCH   1  22
BRANCH   1  43
ATOM     43  C   UNL     1       4.921  -2.887  27.066  0.00  0.00    +0.010 C 
ATOM     44  C   UNL     1       4.886  -4.177  27.877  0.00  0.00    +0.005 C 
ENDBRANCH   1  43
TORSDOF 13
ENDMDL
MODEL 8
REMARK VINA RESULT:      -6.8      3.777      7.083
REMARK  Name = 
REMARK  15 active torsions:
REMARK  status: ('A' for Active; 'I' for Inactive)
REMARK    1  A    between atoms: C_1  and  C_2
REMARK    2  A    between atoms: C_2  and  C_3
REMARK    3  A    between atoms: C_3  and  C_4
REMARK    4  A    between atoms: C_4  and  C_36
REMARK    5  A    between atoms: C_6  and  O_35
REMARK    6  A    between atoms: C_7  and  C_11
REMARK    7  A    between atoms: C_11  and  C_13
REMARK    8  A    between atoms: C_11  and  C_15
REMARK    9  A    between atoms: C_13  and  C_14
REMARK   10  A    between atoms: C_17  and  N_21
REMARK   11  A    between atoms: N_21  and  S_22
REMARK   12  A    between atoms: S_22  and  C_25
REMARK   13  A    between atoms: C_28  and  C_31
REMARK   14  A    between atoms: C_36  and  C_37
REMARK   15  A    between atoms: C_37  and  C_38
REMARK                            x       y       z     vdW  Elec       q    Type
REMARK                         _______ _______ _______ _____ _____    ______ ____
ROOT
ATOM      1  C   UNL     1       5.474  -5.421  25.496  0.00  0.00    +0.059 C 
ENDROOT
BRANCH   1   6
ATOM      2  C   UNL     1       4.361  -1.464  27.072  0.00  0.00    +0.121 C 
ATOM      3  O   UNL     1       4.290  -1.976  25.721  0.00  0.00    -0.454 OA
ATOM      4  C   UNL     1       4.017  -3.291  25.541  0.00  0.00    +0.339 C 
ATOM      5  O   UNL     1       3.168  -3.684  24.755  0.00  0.00    -0.245 OA
ATOM      6  C   UNL     1       4.958  -4.184  26.257  0.00  0.00    +0.081 C 
ATOM      7  C   UNL     1       5.178  -3.812  27.534  0.00  0.00    +0.108 C 
ATOM      8  C   UNL     1       4.571  -2.580  28.124  0.00  0.00    +0.122 C 
BRANCH   7   9
ATOM      9  O   UNL     1       5.984  -4.536  28.383  0.00  0.00    -0.510 OA
ATOM     10  H   UNL     1       6.419  -3.955  29.029  0.00  0.00    +0.292 HD
ENDBRANCH   7   9
BRANCH   2  11
ATOM     11  C   UNL     1       2.989  -0.790  27.353  0.00  0.00    +0.048 C 
BRANCH  11  13
ATOM     12  C   UNL     1       2.476   1.604  26.746  0.00  0.00    +0.004 C 
ATOM     13  C   UNL     1       3.058   0.676  27.802  0.00  0.00    +0.000 C 
ENDBRANCH  11  13
ENDBRANCH   2  11
BRANCH   2  14
ATOM     14  C   UNL     1       5.511  -0.426  27.121  0.00  0.00    +0.053 C 
BRANCH  14  15
ATOM     15  C   UNL     1       6.354  -0.344  25.838  0.00  0.00    +0.039 C 
BRANCH  15  16
ATOM     16  C   UNL     1       6.137   0.976  25.134  0.00  0.00    -0.047 A 
ATOM     17  C   UNL     1       6.051   2.165  25.869  0.00  0.00    +0.003 A 
ATOM     18  C   UNL     1       5.909   3.390  25.214  0.00  0.00    +0.000 A 
ATOM     19  C   UNL     1       5.852   3.436  23.823  0.00  0.00    +0.000 A 
ATOM     20  C   UNL     1       5.927   2.257  23.083  0.00  0.00    +0.000 A 
ATOM     21  C   UNL     1       6.070   1.031  23.735  0.00  0.00    +0.003 A 
ENDBRANCH  15  16
ENDBRANCH  14  15
ENDBRANCH   2  14
ENDBRANCH   1   6
BRANCH   1  22
ATOM     22  C   UNL     1       6.200  -5.055  24.192  0.00  0.00    -0.038 A 
ATOM     23  C   UNL     1       6.152  -5.918  23.080  0.00  0.00    +0.004 A 
ATOM     24  C   UNL     1       6.630  -5.508  21.835  0.00  0.00    +0.002 A 
ATOM     25  C   UNL     1       7.193  -4.243  21.687  0.00  0.00    +0.024 A 
ATOM     26  C   UNL     1       7.276  -3.390  22.787  0.00  0.00    +0.048 A 
ATOM     27  C   UNL     1       6.793  -3.788  24.033  0.00  0.00    +0.028 A 
BRANCH  26  28
ATOM     28  N   UNL     1       7.813  -2.081  22.596  0.00  0.00    -0.215 N 
ATOM     29  H   UNL     1       7.207  -1.295  22.803  0.00  0.00    +0.174 HD
BRANCH  28  30
ATOM     30  S   UNL     1       9.422  -1.763  23.034  0.00  0.00    +0.090 S 
ATOM     31  O   UNL     1      10.192  -2.129  21.859  0.00  0.00    -0.148 OA
ATOM     32  O   UNL     1       9.718  -2.362  24.319  0.00  0.00    -0.148 OA
BRANCH  30  33
ATOM     33  C   UNL     1       9.553   0.025  23.198  0.00  0.00    +0.197 A 
ATOM     34  C   UNL     1       9.530   0.839  22.073  0.00  0.00    +0.050 A 
ATOM     35  C   UNL     1       9.545   2.220  22.275  0.00  0.00    +0.017 A 
ATOM     36  C   UNL     1       9.572   2.736  23.579  0.00  0.00    +0.073 A 
ATOM     37  C   UNL     1       9.632   1.832  24.630  0.00  0.00    +0.125 A 
ATOM     38  N   UNL     1       9.637   0.491  24.472  0.00  0.00    -0.235 NA
BRANCH  36  39
ATOM     39  C   UNL     1       9.520   4.213  23.841  0.00  0.00    +0.419 C 
ATOM     40  F   UNL     1       9.068   4.498  25.093  0.00  0.00    -0.166 F 
ATOM     41  F   UNL     1       8.692   4.867  22.984  0.00  0.00    -0.166 F 
ATOM     42  F   UNL     1      10.731   4.825  23.735  0.00  0.00    -0.166 F 
ENDBRANCH  36  39
ENDBRANCH  30  33
ENDBRANCH  28  30
ENDBRANCH  26  28
ENDBRANCH   1  22
BRANCH   1  43
ATOM     43  C   UNL     1       4.356  -6.474  25.232  0.00  0.00    +0.010 C 
ATOM     44  C   UNL     1       3.530  -6.854  26.456  0.00  0.00    +0.005 C 
ENDBRANCH   1  43
TORSDOF 13
ENDMDL
MODEL 9
REMARK VINA RESULT:      -6.8      4.598      8.962
REMARK  Name = 
REMARK  15 active torsions:
REMARK  status: ('A' for Active; 'I' for Inactive)
REMARK    1  A    between atoms: C_1  and  C_2
REMARK    2  A    between atoms: C_2  and  C_3
REMARK    3  A    between atoms: C_3  and  C_4
REMARK    4  A    between atoms: C_4  and  C_36
REMARK    5  A    between atoms: C_6  and  O_35
REMARK    6  A    between atoms: C_7  and  C_11
REMARK    7  A    between atoms: C_11  and  C_13
REMARK    8  A    between atoms: C_11  and  C_15
REMARK    9  A    between atoms: C_13  and  C_14
REMARK   10  A    between atoms: C_17  and  N_21
REMARK   11  A    between atoms: N_21  and  S_22
REMARK   12  A    between atoms: S_22  and  C_25
REMARK   13  A    between atoms: C_28  and  C_31
REMARK   14  A    between atoms: C_36  and  C_37
REMARK   15  A    between atoms: C_37  and  C_38
REMARK                            x       y       z     vdW  Elec       q    Type
REMARK                         _______ _______ _______ _____ _____    ______ ____
ROOT
ATOM      1  C   UNL     1       8.588  -1.175  23.673  0.00  0.00    +0.059 C 
ENDROOT
BRANCH   1   6
ATOM      2  C   UNL     1       6.543  -5.025  24.292  0.00  0.00    +0.121 C 
ATOM      3  O   UNL     1       5.988  -3.705  24.081  0.00  0.00    -0.454 OA
ATOM      4  C   UNL     1       6.657  -2.843  23.277  0.00  0.00    +0.339 C 
ATOM      5  O   UNL     1       6.108  -2.214  22.386  0.00  0.00    -0.245 OA
ATOM      6  C   UNL     1       8.061  -2.623  23.701  0.00  0.00    +0.081 C 
ATOM      7  C   UNL     1       8.715  -3.766  23.990  0.00  0.00    +0.108 C 
ATOM      8  C   UNL     1       8.049  -5.103  23.943  0.00  0.00    +0.122 C 
BRANCH   7   9
ATOM      9  O   UNL     1      10.041  -3.782  24.357  0.00  0.00    -0.510 OA
ATOM     10  H   UNL     1      10.457  -2.918  24.195  0.00  0.00    +0.292 HD
ENDBRANCH   7   9
BRANCH   2  11
ATOM     11  C   UNL     1       5.775  -5.976  23.332  0.00  0.00    +0.048 C 
BRANCH  11  13
ATOM     12  C   UNL     1       6.160  -5.649  20.861  0.00  0.00    +0.004 C 
ATOM     13  C   UNL     1       6.562  -6.438  22.099  0.00  0.00    +0.000 C 
ENDBRANCH  11  13
ENDBRANCH   2  11
BRANCH   2  14
ATOM     14  C   UNL     1       6.292  -5.408  25.773  0.00  0.00    +0.053 C 
BRANCH  14  15
ATOM     15  C   UNL     1       6.837  -4.398  26.797  0.00  0.00    +0.039 C 
BRANCH  15  16
ATOM     16  C   UNL     1       5.713  -3.776  27.592  0.00  0.00    -0.047 A 
ATOM     17  C   UNL     1       5.251  -2.491  27.280  0.00  0.00    +0.003 A 
ATOM     18  C   UNL     1       4.174  -1.941  27.977  0.00  0.00    +0.000 A 
ATOM     19  C   UNL     1       3.551  -2.669  28.988  0.00  0.00    +0.000 A 
ATOM     20  C   UNL     1       4.008  -3.944  29.313  0.00  0.00    +0.000 A 
ATOM     21  C   UNL     1       5.085  -4.498  28.617  0.00  0.00    +0.003 A 
ENDBRANCH  15  16
ENDBRANCH  14  15
ENDBRANCH   2  14
ENDBRANCH   1   6
BRANCH   1  22
ATOM     22  C   UNL     1       7.898  -0.273  24.709  0.00  0.00    -0.038 A 
ATOM     23  C   UNL     1       8.078  -0.500  26.087  0.00  0.00    +0.004 A 
ATOM     24  C   UNL     1       7.627   0.426  27.028  0.00  0.00    +0.002 A 
ATOM     25  C   UNL     1       6.961   1.576  26.612  0.00  0.00    +0.024 A 
ATOM     26  C   UNL     1       6.747   1.797  25.252  0.00  0.00    +0.048 A 
ATOM     27  C   UNL     1       7.202   0.882  24.303  0.00  0.00    +0.028 A 
BRANCH  26  28
ATOM     28  N   UNL     1       6.105   3.007  24.850  0.00  0.00    -0.215 N 
ATOM     29  H   UNL     1       5.912   3.692  25.572  0.00  0.00    +0.174 HD
BRANCH  28  30
ATOM     30  S   UNL     1       6.548   3.746  23.388  0.00  0.00    +0.090 S 
ATOM     31  O   UNL     1       5.829   5.007  23.390  0.00  0.00    -0.148 OA
ATOM     32  O   UNL     1       6.391   2.815  22.289  0.00  0.00    -0.148 OA
BRANCH  30  33
ATOM     33  C   UNL     1       8.296   4.152  23.542  0.00  0.00    +0.197 A 
ATOM     34  C   UNL     1       9.264   3.168  23.391  0.00  0.00    +0.050 A 
ATOM     35  C   UNL     1      10.601   3.566  23.433  0.00  0.00    +0.017 A 
ATOM     36  C   UNL     1      10.923   4.919  23.612  0.00  0.00    +0.073 A 
ATOM     37  C   UNL     1       9.877   5.813  23.790  0.00  0.00    +0.125 A 
ATOM     38  N   UNL     1       8.573   5.462  23.774  0.00  0.00    -0.235 NA
BRANCH  36  39
ATOM     39  C   UNL     1      12.345   5.397  23.593  0.00  0.00    +0.419 C 
ATOM     40  F   UNL     1      13.234   4.366  23.560  0.00  0.00    -0.166 F 
ATOM     41  F   UNL     1      12.664   6.134  24.690  0.00  0.00    -0.166 F 
ATOM     42  F   UNL     1      12.640   6.177  22.517  0.00  0.00    -0.166 F 
ENDBRANCH  36  39
ENDBRANCH  30  33
ENDBRANCH  28  30
ENDBRANCH  26  28
ENDBRANCH   1  22
BRANCH   1  43
ATOM     43  C   UNL     1       8.523  -0.539  22.252  0.00  0.00    +0.010 C 
ATOM     44  C   UNL     1       9.851  -0.009  21.724  0.00  0.00    +0.005 C 
ENDBRANCH   1  43
TORSDOF 13
ENDMDL
