MODEL 1
REMARK VINA RESULT:      -7.7      0.000      0.000
REMARK  Name = 
REMARK  17 active torsions:
REMARK  status: ('A' for Active; 'I' for Inactive)
REMARK    1  A    between atoms: C_1  and  C_2
REMARK    2  A    between atoms: C_2  and  C_3
REMARK    3  A    between atoms: C_2  and  C_4
REMARK    4  A    between atoms: C_2  and  N_5
REMARK    5  A    between atoms: C_6  and  C_8
REMARK    6  A    between atoms: N_19  and  C_20
REMARK    7  A    between atoms: C_20  and  C_21
REMARK    8  A    between atoms: C_21  and  C_22
REMARK    9  A    between atoms: C_21  and  O_51
REMARK   10  A    between atoms: C_22  and  C_23
REMARK   11  A    between atoms: C_22  and  N_30
REMARK   12  A    between atoms: C_23  and  C_24
REMARK   13  A    between atoms: C_31  and  C_33
REMARK   14  A    between atoms: C_33  and  C_34
REMARK   15  A    between atoms: C_33  and  N_38
REMARK   16  A    between atoms: C_34  and  C_35
REMARK   17  A    between atoms: C_39  and  C_41
REMARK                            x       y       z     vdW  Elec       q    Type
REMARK                         _______ _______ _______ _____ _____    ______ ____
ROOT
ATOM      1  C   UNL     1       8.236  -3.129  24.190  0.00  0.00    +0.107 C 
ENDROOT
BRANCH   1   2
ATOM      2  N   UNL     1       7.405  -1.956  24.488  0.00  0.00    -0.308 N 
ATOM      3  H   UNL     1       7.412  -1.158  23.843  0.00  0.00    +0.149 HD
ATOM      4  C   UNL     1       6.677  -1.822  25.650  0.00  0.00    +0.234 C 
ATOM      5  O   UNL     1       6.660  -2.728  26.475  0.00  0.00    -0.274 OA
BRANCH   4   6
ATOM      6  C   UNL     1       5.863  -0.519  25.812  0.00  0.00    +0.168 C 
BRANCH   6   7
ATOM      7  N   UNL     1       6.348   0.578  24.966  0.00  0.00    -0.298 N 
ATOM      8  H   UNL     1       7.329   0.847  25.052  0.00  0.00    +0.150 HD
ATOM      9  C   UNL     1       5.590   1.662  24.628  0.00  0.00    +0.263 C 
ATOM     10  O   UNL     1       4.364   1.702  24.742  0.00  0.00    -0.269 OA
BRANCH   9  11
ATOM     11  C   UNL     1       6.389   2.831  24.122  0.00  0.00    +0.126 A 
ATOM     12  C   UNL     1       6.362   3.195  22.787  0.00  0.00    +0.033 A 
ATOM     13  C   UNL     1       7.132   4.289  22.405  0.00  0.00    +0.012 A 
ATOM     14  C   UNL     1       7.889   4.985  23.358  0.00  0.00    +0.000 A 
ATOM     15  C   UNL     1       7.844   4.539  24.696  0.00  0.00    +0.072 A 
ATOM     16  C   UNL     1       8.578   5.234  25.650  0.00  0.00    +0.028 A 
ATOM     17  C   UNL     1       9.345   6.352  25.315  0.00  0.00    +0.002 A 
ATOM     18  C   UNL     1       9.391   6.789  23.995  0.00  0.00    +0.001 A 
ATOM     19  C   UNL     1       8.664   6.109  23.018  0.00  0.00    +0.010 A 
ATOM     20  N   UNL     1       7.125   3.471  25.077  0.00  0.00    -0.242 NA
ENDBRANCH   9  11
ENDBRANCH   6   7
BRANCH   6  21
ATOM     21  C   UNL     1       5.964  -0.089  27.281  0.00  0.00    +0.127 C 
BRANCH  21  22
ATOM     22  C   UNL     1       7.312   0.522  27.577  0.00  0.00    +0.213 C 
ATOM     23  N   UNL     1       7.275   1.837  27.928  0.00  0.00    -0.329 N 
ATOM     24  H   UNL     1       8.153   2.296  28.132  0.00  0.00    +0.145 HD
ATOM     25  H   UNL     1       6.420   2.375  27.991  0.00  0.00    +0.145 HD
ATOM     26  O   UNL     1       8.370  -0.083  27.505  0.00  0.00    -0.276 OA
ENDBRANCH  21  22
ENDBRANCH   6  21
ENDBRANCH   4   6
ENDBRANCH   1   2
BRANCH   1  27
ATOM     27  C   UNL     1       7.630  -4.095  23.127  0.00  0.00    +0.149 C 
BRANCH  27  28
ATOM     28  O   UNL     1       8.332  -5.363  23.254  0.00  0.00    -0.389 OA
ATOM     29  H   UNL     1       7.790  -5.948  23.816  0.00  0.00    +0.210 HD
ENDBRANCH  27  28
BRANCH  27  30
ATOM     30  C   UNL     1       6.103  -4.458  23.138  0.00  0.00    +0.118 C 
BRANCH  30  32
ATOM     31  C   UNL     1       5.386  -5.819  25.056  0.00  0.00    +0.143 C 
ATOM     32  N   UNL     1       5.233  -4.492  24.356  0.00  0.00    -0.289 NA
ATOM     33  C   UNL     1       3.820  -4.250  24.053  0.00  0.00    +0.089 C 
ATOM     34  C   UNL     1       2.969  -5.402  23.453  0.00  0.00    +0.006 C 
ATOM     35  C   UNL     1       3.344  -6.838  23.875  0.00  0.00    -0.005 C 
ATOM     36  C   UNL     1       2.423  -7.532  24.903  0.00  0.00    +0.004 C 
ATOM     37  C   UNL     1       1.487  -6.673  25.745  0.00  0.00    +0.000 C 
ATOM     38  C   UNL     1       1.126  -5.308  25.187  0.00  0.00    +0.000 C 
ATOM     39  C   UNL     1       1.475  -5.146  23.712  0.00  0.00    +0.005 C 
ATOM     40  C   UNL     1       4.833  -6.988  24.216  0.00  0.00    +0.032 C 
BRANCH  31  43
ATOM     41  N   UNL     1       4.334  -4.824  27.175  0.00  0.00    -0.309 N 
ATOM     42  H   UNL     1       4.427  -3.953  26.665  0.00  0.00    +0.149 HD
ATOM     43  C   UNL     1       4.831  -5.937  26.526  0.00  0.00    +0.231 C 
ATOM     44  O   UNL     1       4.938  -7.010  27.128  0.00  0.00    -0.274 OA
BRANCH  41  46
ATOM     45  C   UNL     1       5.316  -5.085  29.456  0.00  0.00    +0.031 C 
ATOM     46  C   UNL     1       4.041  -4.782  28.644  0.00  0.00    +0.026 C 
ATOM     47  C   UNL     1       3.561  -3.379  29.052  0.00  0.00    +0.031 C 
ATOM     48  C   UNL     1       2.930  -5.756  29.095  0.00  0.00    +0.031 C 
ENDBRANCH  41  46
ENDBRANCH  31  43
ENDBRANCH  30  32
ENDBRANCH  27  30
ENDBRANCH   1  27
BRANCH   1  49
ATOM     49  C   UNL     1       9.701  -2.692  23.835  0.00  0.00    +0.060 C 
BRANCH  49  50
ATOM     50  C   UNL     1       9.826  -1.282  23.289  0.00  0.00    -0.046 A 
ATOM     51  C   UNL     1       9.534  -0.997  21.950  0.00  0.00    +0.004 A 
ATOM     52  C   UNL     1       9.421   0.326  21.516  0.00  0.00    +0.000 A 
ATOM     53  C   UNL     1       9.619   1.375  22.411  0.00  0.00    +0.000 A 
ATOM     54  C   UNL     1      10.002   1.100  23.719  0.00  0.00    +0.000 A 
ATOM     55  C   UNL     1      10.140  -0.222  24.143  0.00  0.00    +0.004 A 
ENDBRANCH  49  50
ENDBRANCH   1  49
TORSDOF 14
ENDMDL
MODEL 2
REMARK VINA RESULT:      -7.7      1.941      7.751
REMARK  Name = 
REMARK  17 active torsions:
REMARK  status: ('A' for Active; 'I' for Inactive)
REMARK    1  A    between atoms: C_1  and  C_2
REMARK    2  A    between atoms: C_2  and  C_3
REMARK    3  A    between atoms: C_2  and  C_4
REMARK    4  A    between atoms: C_2  and  N_5
REMARK    5  A    between atoms: C_6  and  C_8
REMARK    6  A    between atoms: N_19  and  C_20
REMARK    7  A    between atoms: C_20  and  C_21
REMARK    8  A    between atoms: C_21  and  C_22
REMARK    9  A    between atoms: C_21  and  O_51
REMARK   10  A    between atoms: C_22  and  C_23
REMARK   11  A    between atoms: C_22  and  N_30
REMARK   12  A    between atoms: C_23  and  C_24
REMARK   13  A    between atoms: C_31  and  C_33
REMARK   14  A    between atoms: C_33  and  C_34
REMARK   15  A    between atoms: C_33  and  N_38
REMARK   16  A    between atoms: C_34  and  C_35
REMARK   17  A    between atoms: C_39  and  C_41
REMARK                            x       y       z     vdW  Elec       q    Type
REMARK                         _______ _______ _______ _____ _____    ______ ____
ROOT
ATOM      1  C   UNL     1       3.887  -4.574  26.649  0.00  0.00    +0.107 C 
ENDROOT
BRANCH   1   2
ATOM      2  N   UNL     1       4.878  -4.595  25.566  0.00  0.00    -0.308 N 
ATOM      3  H   UNL     1       4.780  -3.939  24.783  0.00  0.00    +0.149 HD
ATOM      4  C   UNL     1       5.894  -5.522  25.490  0.00  0.00    +0.234 C 
ATOM      5  O   UNL     1       6.038  -6.354  26.378  0.00  0.00    -0.274 OA
BRANCH   4   6
ATOM      6  C   UNL     1       6.844  -5.411  24.277  0.00  0.00    +0.168 C 
BRANCH   6   7
ATOM      7  N   UNL     1       7.349  -4.051  24.056  0.00  0.00    -0.298 N 
ATOM      8  H   UNL     1       6.868  -3.472  23.366  0.00  0.00    +0.150 HD
ATOM      9  C   UNL     1       8.672  -3.719  24.112  0.00  0.00    +0.263 C 
ATOM     10  O   UNL     1       9.535  -4.430  24.626  0.00  0.00    -0.269 OA
BRANCH   9  11
ATOM     11  C   UNL     1       8.998  -2.404  23.460  0.00  0.00    +0.126 A 
ATOM     12  C   UNL     1       8.884  -2.231  22.092  0.00  0.00    +0.033 A 
ATOM     13  C   UNL     1       9.207  -0.982  21.573  0.00  0.00    +0.012 A 
ATOM     14  C   UNL     1       9.619   0.051  22.428  0.00  0.00    +0.000 A 
ATOM     15  C   UNL     1       9.696  -0.222  23.810  0.00  0.00    +0.072 A 
ATOM     16  C   UNL     1      10.087   0.801  24.666  0.00  0.00    +0.028 A 
ATOM     17  C   UNL     1      10.396   2.078  24.190  0.00  0.00    +0.002 A 
ATOM     18  C   UNL     1      10.322   2.345  22.828  0.00  0.00    +0.001 A 
ATOM     19  C   UNL     1       9.934   1.335  21.948  0.00  0.00    +0.010 A 
ATOM     20  N   UNL     1       9.411  -1.430  24.324  0.00  0.00    -0.242 NA
ENDBRANCH   9  11
ENDBRANCH   6   7
BRANCH   6  21
ATOM     21  C   UNL     1       6.063  -5.854  23.033  0.00  0.00    +0.127 C 
BRANCH  21  22
ATOM     22  C   UNL     1       5.665  -4.668  22.190  0.00  0.00    +0.213 C 
ATOM     23  N   UNL     1       6.204  -4.653  20.939  0.00  0.00    -0.329 N 
ATOM     24  H   UNL     1       5.972  -3.875  20.335  0.00  0.00    +0.145 HD
ATOM     25  H   UNL     1       6.821  -5.374  20.588  0.00  0.00    +0.145 HD
ATOM     26  O   UNL     1       4.932  -3.770  22.573  0.00  0.00    -0.276 OA
ENDBRANCH  21  22
ENDBRANCH   6  21
ENDBRANCH   4   6
ENDBRANCH   1   2
BRANCH   1  27
ATOM     27  C   UNL     1       4.022  -3.363  27.623  0.00  0.00    +0.149 C 
BRANCH  27  28
ATOM     28  O   UNL     1       4.430  -3.897  28.913  0.00  0.00    -0.389 OA
ATOM     29  H   UNL     1       5.393  -4.054  28.879  0.00  0.00    +0.210 HD
ENDBRANCH  27  28
BRANCH  27  30
ATOM     30  C   UNL     1       5.017  -2.188  27.321  0.00  0.00    +0.118 C 
BRANCH  30  32
ATOM     31  C   UNL     1       5.740  -0.298  25.924  0.00  0.00    +0.143 C 
ATOM     32  N   UNL     1       4.629  -0.844  26.785  0.00  0.00    -0.289 NA
ATOM     33  C   UNL     1       4.302   0.117  27.843  0.00  0.00    +0.089 C 
ATOM     34  C   UNL     1       5.456   0.799  28.626  0.00  0.00    +0.006 C 
ATOM     35  C   UNL     1       6.770   1.047  27.855  0.00  0.00    -0.005 C 
ATOM     36  C   UNL     1       7.057   2.497  27.404  0.00  0.00    +0.004 C 
ATOM     37  C   UNL     1       5.903   3.490  27.350  0.00  0.00    +0.000 C 
ATOM     38  C   UNL     1       4.693   3.178  28.214  0.00  0.00    +0.000 C 
ATOM     39  C   UNL     1       4.961   2.107  29.265  0.00  0.00    +0.005 C 
ATOM     40  C   UNL     1       7.009   0.020  26.740  0.00  0.00    +0.032 C 
BRANCH  31  43
ATOM     41  N   UNL     1       6.318   1.363  24.053  0.00  0.00    -0.309 N 
ATOM     42  H   UNL     1       7.210   0.880  24.068  0.00  0.00    +0.149 HD
ATOM     43  C   UNL     1       5.406   0.931  24.996  0.00  0.00    +0.231 C 
ATOM     44  O   UNL     1       4.366   1.569  25.190  0.00  0.00    -0.274 OA
BRANCH  41  46
ATOM     45  C   UNL     1       7.030   3.755  24.039  0.00  0.00    +0.031 C 
ATOM     46  C   UNL     1       6.204   2.667  23.325  0.00  0.00    +0.026 C 
ATOM     47  C   UNL     1       6.763   2.530  21.898  0.00  0.00    +0.031 C 
ATOM     48  C   UNL     1       4.756   3.177  23.163  0.00  0.00    +0.031 C 
ENDBRANCH  41  46
ENDBRANCH  31  43
ENDBRANCH  30  32
ENDBRANCH  27  30
ENDBRANCH   1  27
BRANCH   1  49
ATOM     49  C   UNL     1       2.435  -4.719  26.073  0.00  0.00    +0.060 C 
BRANCH  49  50
ATOM     50  C   UNL     1       2.292  -5.747  24.968  0.00  0.00    -0.046 A 
ATOM     51  C   UNL     1       2.436  -7.115  25.229  0.00  0.00    +0.004 A 
ATOM     52  C   UNL     1       2.072  -8.062  24.268  0.00  0.00    +0.000 A 
ATOM     53  C   UNL     1       1.582  -7.651  23.031  0.00  0.00    +0.000 A 
ATOM     54  C   UNL     1       1.526  -6.294  22.730  0.00  0.00    +0.000 A 
ATOM     55  C   UNL     1       1.914  -5.351  23.683  0.00  0.00    +0.004 A 
ENDBRANCH  49  50
ENDBRANCH   1  49
TORSDOF 14
ENDMDL
MODEL 3
REMARK VINA RESULT:      -7.3      1.757      2.494
REMARK  Name = 
REMARK  17 active torsions:
REMARK  status: ('A' for Active; 'I' for Inactive)
REMARK    1  A    between atoms: C_1  and  C_2
REMARK    2  A    between atoms: C_2  and  C_3
REMARK    3  A    between atoms: C_2  and  C_4
REMARK    4  A    between atoms: C_2  and  N_5
REMARK    5  A    between atoms: C_6  and  C_8
REMARK    6  A    between atoms: N_19  and  C_20
REMARK    7  A    between atoms: C_20  and  C_21
REMARK    8  A    between atoms: C_21  and  C_22
REMARK    9  A    between atoms: C_21  and  O_51
REMARK   10  A    between atoms: C_22  and  C_23
REMARK   11  A    between atoms: C_22  and  N_30
REMARK   12  A    between atoms: C_23  and  C_24
REMARK   13  A    between atoms: C_31  and  C_33
REMARK   14  A    between atoms: C_33  and  C_34
REMARK   15  A    between atoms: C_33  and  N_38
REMARK   16  A    between atoms: C_34  and  C_35
REMARK   17  A    between atoms: C_39  and  C_41
REMARK                            x       y       z     vdW  Elec       q    Type
REMARK                         _______ _______ _______ _____ _____    ______ ____
ROOT
ATOM      1  C   UNL     1       9.167  -2.927  24.729  0.00  0.00    +0.107 C 
ENDROOT
BRANCH   1   2
ATOM      2  N   UNL     1       8.012  -2.036  24.888  0.00  0.00    -0.308 N 
ATOM      3  H   UNL     1       7.358  -1.915  24.105  0.00  0.00    +0.149 HD
ATOM      4  C   UNL     1       7.801  -1.265  26.010  0.00  0.00    +0.234 C 
ATOM      5  O   UNL     1       8.569  -1.340  26.962  0.00  0.00    -0.274 OA
BRANCH   4   6
ATOM      6  C   UNL     1       6.541  -0.371  26.011  0.00  0.00    +0.168 C 
BRANCH   6   7
ATOM      7  N   UNL     1       6.747   0.926  25.355  0.00  0.00    -0.298 N 
ATOM      8  H   UNL     1       6.521   1.768  25.887  0.00  0.00    +0.150 HD
ATOM      9  C   UNL     1       6.540   1.139  24.023  0.00  0.00    +0.263 C 
ATOM     10  O   UNL     1       6.448   0.235  23.191  0.00  0.00    -0.269 OA
BRANCH   9  11
ATOM     11  C   UNL     1       6.407   2.589  23.651  0.00  0.00    +0.126 A 
ATOM     12  C   UNL     1       7.499   3.440  23.671  0.00  0.00    +0.033 A 
ATOM     13  C   UNL     1       7.285   4.767  23.313  0.00  0.00    +0.012 A 
ATOM     14  C   UNL     1       6.004   5.198  22.940  0.00  0.00    +0.000 A 
ATOM     15  C   UNL     1       4.958   4.252  22.944  0.00  0.00    +0.072 A 
ATOM     16  C   UNL     1       3.688   4.668  22.558  0.00  0.00    +0.028 A 
ATOM     17  C   UNL     1       3.435   5.985  22.167  0.00  0.00    +0.002 A 
ATOM     18  C   UNL     1       4.467   6.917  22.165  0.00  0.00    +0.001 A 
ATOM     19  C   UNL     1       5.749   6.525  22.549  0.00  0.00    +0.010 A 
ATOM     20  N   UNL     1       5.142   2.973  23.310  0.00  0.00    -0.242 NA
ENDBRANCH   9  11
ENDBRANCH   6   7
BRANCH   6  21
ATOM     21  C   UNL     1       6.148  -0.126  27.474  0.00  0.00    +0.127 C 
BRANCH  21  22
ATOM     22  C   UNL     1       6.651   1.212  27.955  0.00  0.00    +0.213 C 
ATOM     23  N   UNL     1       7.787   1.157  28.704  0.00  0.00    -0.329 N 
ATOM     24  H   UNL     1       8.163   2.028  29.056  0.00  0.00    +0.145 HD
ATOM     25  H   UNL     1       8.268   0.295  28.927  0.00  0.00    +0.145 HD
ATOM     26  O   UNL     1       6.100   2.277  27.721  0.00  0.00    -0.276 OA
ENDBRANCH  21  22
ENDBRANCH   6  21
ENDBRANCH   4   6
ENDBRANCH   1   2
BRANCH   1  27
ATOM     27  C   UNL     1       8.807  -4.443  24.669  0.00  0.00    +0.149 C 
BRANCH  27  28
ATOM     28  O   UNL     1      10.023  -5.182  24.973  0.00  0.00    -0.389 OA
ATOM     29  H   UNL     1      10.722  -4.867  24.369  0.00  0.00    +0.210 HD
ENDBRANCH  27  28
BRANCH  27  30
ATOM     30  C   UNL     1       7.702  -5.052  25.602  0.00  0.00    +0.118 C 
BRANCH  30  32
ATOM     31  C   UNL     1       5.652  -5.194  26.953  0.00  0.00    +0.143 C 
ATOM     32  N   UNL     1       6.344  -4.462  25.830  0.00  0.00    -0.289 NA
ATOM     33  C   UNL     1       5.504  -4.487  24.629  0.00  0.00    +0.089 C 
ATOM     34  C   UNL     1       4.821  -5.818  24.213  0.00  0.00    +0.006 C 
ATOM     35  C   UNL     1       4.420  -6.780  25.351  0.00  0.00    -0.005 C 
ATOM     36  C   UNL     1       2.920  -6.850  25.716  0.00  0.00    +0.004 C 
ATOM     37  C   UNL     1       2.004  -5.717  25.273  0.00  0.00    +0.000 C 
ATOM     38  C   UNL     1       2.469  -4.886  24.089  0.00  0.00    +0.000 C 
ATOM     39  C   UNL     1       3.610  -5.531  23.310  0.00  0.00    +0.005 C 
ATOM     40  C   UNL     1       5.325  -6.655  26.584  0.00  0.00    +0.032 C 
BRANCH  31  43
ATOM     41  N   UNL     1       3.974  -3.264  27.175  0.00  0.00    -0.309 N 
ATOM     42  H   UNL     1       4.601  -2.805  26.525  0.00  0.00    +0.149 HD
ATOM     43  C   UNL     1       4.369  -4.525  27.578  0.00  0.00    +0.231 C 
ATOM     44  O   UNL     1       3.782  -5.093  28.503  0.00  0.00    -0.274 OA
BRANCH  41  46
ATOM     45  C   UNL     1       3.444  -2.072  29.303  0.00  0.00    +0.031 C 
ATOM     46  C   UNL     1       2.943  -2.449  27.895  0.00  0.00    +0.026 C 
ATOM     47  C   UNL     1       2.677  -1.138  27.137  0.00  0.00    +0.031 C 
ATOM     48  C   UNL     1       1.571  -3.143  28.033  0.00  0.00    +0.031 C 
ENDBRANCH  41  46
ENDBRANCH  31  43
ENDBRANCH  30  32
ENDBRANCH  27  30
ENDBRANCH   1  27
BRANCH   1  49
ATOM     49  C   UNL     1      10.052  -2.474  23.515  0.00  0.00    +0.060 C 
BRANCH  49  50
ATOM     50  C   UNL     1       9.916  -1.010  23.145  0.00  0.00    -0.046 A 
ATOM     51  C   UNL     1      10.441  -0.005  23.967  0.00  0.00    +0.004 A 
ATOM     52  C   UNL     1      10.524   1.313  23.510  0.00  0.00    +0.000 A 
ATOM     53  C   UNL     1      10.064   1.642  22.236  0.00  0.00    +0.000 A 
ATOM     54  C   UNL     1       9.455   0.668  21.452  0.00  0.00    +0.000 A 
ATOM     55  C   UNL     1       9.351  -0.642  21.922  0.00  0.00    +0.004 A 
ENDBRANCH  49  50
ENDBRANCH   1  49
TORSDOF 14
ENDMDL
MODEL 4
REMARK VINA RESULT:      -7.2      1.807      3.440
REMARK  Name = 
REMARK  17 active torsions:
REMARK  status: ('A' for Active; 'I' for Inactive)
REMARK    1  A    between atoms: C_1  and  C_2
REMARK    2  A    between atoms: C_2  and  C_3
REMARK    3  A    between atoms: C_2  and  C_4
REMARK    4  A    between atoms: C_2  and  N_5
REMARK    5  A    between atoms: C_6  and  C_8
REMARK    6  A    between atoms: N_19  and  C_20
REMARK    7  A    between atoms: C_20  and  C_21
REMARK    8  A    between atoms: C_21  and  C_22
REMARK    9  A    between atoms: C_21  and  O_51
REMARK   10  A    between atoms: C_22  and  C_23
REMARK   11  A    between atoms: C_22  and  N_30
REMARK   12  A    between atoms: C_23  and  C_24
REMARK   13  A    between atoms: C_31  and  C_33
REMARK   14  A    between atoms: C_33  and  C_34
REMARK   15  A    between atoms: C_33  and  N_38
REMARK   16  A    between atoms: C_34  and  C_35
REMARK   17  A    between atoms: C_39  and  C_41
REMARK                            x       y       z     vdW  Elec       q    Type
REMARK                         _______ _______ _______ _____ _____    ______ ____
ROOT
ATOM      1  C   UNL     1       9.199  -2.680  24.791  0.00  0.00    +0.107 C 
ENDROOT
BRANCH   1   2
ATOM      2  N   UNL     1       8.004  -1.844  24.960  0.00  0.00    -0.308 N 
ATOM      3  H   UNL     1       7.317  -1.789  24.199  0.00  0.00    +0.149 HD
ATOM      4  C   UNL     1       7.793  -1.041  26.059  0.00  0.00    +0.234 C 
ATOM      5  O   UNL     1       8.597  -1.038  26.984  0.00  0.00    -0.274 OA
BRANCH   4   6
ATOM      6  C   UNL     1       6.487  -0.215  26.075  0.00  0.00    +0.168 C 
BRANCH   6   7
ATOM      7  N   UNL     1       6.624   1.100  25.438  0.00  0.00    -0.298 N 
ATOM      8  H   UNL     1       6.268   1.912  25.946  0.00  0.00    +0.150 HD
ATOM      9  C   UNL     1       6.522   1.302  24.092  0.00  0.00    +0.263 C 
ATOM     10  O   UNL     1       6.596   0.400  23.257  0.00  0.00    -0.269 OA
BRANCH   9  11
ATOM     11  C   UNL     1       6.281   2.736  23.708  0.00  0.00    +0.126 A 
ATOM     12  C   UNL     1       7.286   3.682  23.796  0.00  0.00    +0.033 A 
ATOM     13  C   UNL     1       6.976   4.985  23.420  0.00  0.00    +0.012 A 
ATOM     14  C   UNL     1       5.689   5.299  22.963  0.00  0.00    +0.000 A 
ATOM     15  C   UNL     1       4.735   4.261  22.901  0.00  0.00    +0.072 A 
ATOM     16  C   UNL     1       3.461   4.559  22.431  0.00  0.00    +0.028 A 
ATOM     17  C   UNL     1       3.114   5.849  22.020  0.00  0.00    +0.002 A 
ATOM     18  C   UNL     1       4.055   6.871  22.083  0.00  0.00    +0.001 A 
ATOM     19  C   UNL     1       5.339   6.598  22.552  0.00  0.00    +0.010 A 
ATOM     20  N   UNL     1       5.011   3.003  23.283  0.00  0.00    -0.242 NA
ENDBRANCH   9  11
ENDBRANCH   6   7
BRANCH   6  21
ATOM     21  C   UNL     1       6.083  -0.014  27.540  0.00  0.00    +0.127 C 
BRANCH  21  22
ATOM     22  C   UNL     1       6.513   1.343  28.041  0.00  0.00    +0.213 C 
ATOM     23  N   UNL     1       7.660   1.341  28.776  0.00  0.00    -0.329 N 
ATOM     24  H   UNL     1       7.989   2.226  29.140  0.00  0.00    +0.145 HD
ATOM     25  H   UNL     1       8.194   0.505  28.976  0.00  0.00    +0.145 HD
ATOM     26  O   UNL     1       5.897   2.377  27.834  0.00  0.00    -0.276 OA
ENDBRANCH  21  22
ENDBRANCH   6  21
ENDBRANCH   4   6
ENDBRANCH   1   2
BRANCH   1  27
ATOM     27  C   UNL     1       8.952  -4.206  24.995  0.00  0.00    +0.149 C 
BRANCH  27  28
ATOM     28  O   UNL     1      10.246  -4.864  24.898  0.00  0.00    -0.389 OA
ATOM     29  H   UNL     1      10.573  -5.012  25.806  0.00  0.00    +0.210 HD
ENDBRANCH  27  28
BRANCH  27  30
ATOM     30  C   UNL     1       8.300  -4.754  26.313  0.00  0.00    +0.118 C 
BRANCH  30  32
ATOM     31  C   UNL     1       5.980  -5.084  25.570  0.00  0.00    +0.143 C 
ATOM     32  N   UNL     1       7.115  -5.666  26.376  0.00  0.00    -0.289 NA
ATOM     33  C   UNL     1       6.668  -5.926  27.747  0.00  0.00    +0.089 C 
ATOM     34  C   UNL     1       5.834  -4.844  28.487  0.00  0.00    +0.006 C 
ATOM     35  C   UNL     1       4.911  -3.962  27.619  0.00  0.00    -0.005 C 
ATOM     36  C   UNL     1       3.397  -4.269  27.668  0.00  0.00    +0.004 C 
ATOM     37  C   UNL     1       2.941  -5.625  28.192  0.00  0.00    +0.000 C 
ATOM     38  C   UNL     1       3.905  -6.365  29.102  0.00  0.00    +0.000 C 
ATOM     39  C   UNL     1       5.033  -5.485  29.631  0.00  0.00    +0.005 C 
ATOM     40  C   UNL     1       5.434  -3.781  26.188  0.00  0.00    +0.032 C 
BRANCH  31  43
ATOM     41  N   UNL     1       3.688  -5.551  24.513  0.00  0.00    -0.309 N 
ATOM     42  H   UNL     1       3.714  -4.558  24.312  0.00  0.00    +0.149 HD
ATOM     43  C   UNL     1       4.770  -6.032  25.223  0.00  0.00    +0.231 C 
ATOM     44  O   UNL     1       4.752  -7.180  25.680  0.00  0.00    -0.274 OA
BRANCH  41  46
ATOM     45  C   UNL     1       1.215  -5.403  24.819  0.00  0.00    +0.031 C 
ATOM     46  C   UNL     1       2.393  -6.291  24.373  0.00  0.00    +0.026 C 
ATOM     47  C   UNL     1       2.151  -6.667  22.901  0.00  0.00    +0.031 C 
ATOM     48  C   UNL     1       2.333  -7.617  25.162  0.00  0.00    +0.031 C 
ENDBRANCH  41  46
ENDBRANCH  31  43
ENDBRANCH  30  32
ENDBRANCH  27  30
ENDBRANCH   1  27
BRANCH   1  49
ATOM     49  C   UNL     1       9.905  -2.365  23.426  0.00  0.00    +0.060 C 
BRANCH  49  50
ATOM     50  C   UNL     1      10.138  -0.890  23.160  0.00  0.00    -0.046 A 
ATOM     51  C   UNL     1       9.746  -0.303  21.950  0.00  0.00    +0.004 A 
ATOM     52  C   UNL     1       9.745   1.087  21.805  0.00  0.00    +0.000 A 
ATOM     53  C   UNL     1      10.155   1.900  22.859  0.00  0.00    +0.000 A 
ATOM     54  C   UNL     1      10.636   1.321  24.029  0.00  0.00    +0.000 A 
ATOM     55  C   UNL     1      10.659  -0.068  24.161  0.00  0.00    +0.004 A 
ENDBRANCH  49  50
ENDBRANCH   1  49
TORSDOF 14
ENDMDL
MODEL 5
REMARK VINA RESULT:      -7.1      2.266      8.120
REMARK  Name = 
REMARK  17 active torsions:
REMARK  status: ('A' for Active; 'I' for Inactive)
REMARK    1  A    between atoms: C_1  and  C_2
REMARK    2  A    between atoms: C_2  and  C_3
REMARK    3  A    between atoms: C_2  and  C_4
REMARK    4  A    between atoms: C_2  and  N_5
REMARK    5  A    between atoms: C_6  and  C_8
REMARK    6  A    between atoms: N_19  and  C_20
REMARK    7  A    between atoms: C_20  and  C_21
REMARK    8  A    between atoms: C_21  and  C_22
REMARK    9  A    between atoms: C_21  and  O_51
REMARK   10  A    between atoms: C_22  and  C_23
REMARK   11  A    between atoms: C_22  and  N_30
REMARK   12  A    between atoms: C_23  and  C_24
REMARK   13  A    between atoms: C_31  and  C_33
REMARK   14  A    between atoms: C_33  and  C_34
REMARK   15  A    between atoms: C_33  and  N_38
REMARK   16  A    between atoms: C_34  and  C_35
REMARK   17  A    between atoms: C_39  and  C_41
REMARK                            x       y       z     vdW  Elec       q    Type
REMARK                         _______ _______ _______ _____ _____    ______ ____
ROOT
ATOM      1  C   UNL     1       4.439  -4.190  27.081  0.00  0.00    +0.107 C 
ENDROOT
BRANCH   1   2
ATOM      2  N   UNL     1       5.375  -4.242  25.951  0.00  0.00    -0.308 N 
ATOM      3  H   UNL     1       5.312  -3.531  25.213  0.00  0.00    +0.149 HD
ATOM      4  C   UNL     1       6.285  -5.260  25.770  0.00  0.00    +0.234 C 
ATOM      5  O   UNL     1       6.379  -6.157  26.599  0.00  0.00    -0.274 OA
BRANCH   4   6
ATOM      6  C   UNL     1       7.189  -5.169  24.520  0.00  0.00    +0.168 C 
BRANCH   6   7
ATOM      7  N   UNL     1       7.665  -3.808  24.245  0.00  0.00    -0.298 N 
ATOM      8  H   UNL     1       7.101  -3.224  23.626  0.00  0.00    +0.150 HD
ATOM      9  C   UNL     1       8.985  -3.479  24.132  0.00  0.00    +0.263 C 
ATOM     10  O   UNL     1       9.905  -4.196  24.526  0.00  0.00    -0.269 OA
BRANCH   9  11
ATOM     11  C   UNL     1       9.228  -2.160  23.453  0.00  0.00    +0.126 A 
ATOM     12  C   UNL     1       8.883  -1.959  22.128  0.00  0.00    +0.033 A 
ATOM     13  C   UNL     1       9.144  -0.708  21.579  0.00  0.00    +0.012 A 
ATOM     14  C   UNL     1       9.727   0.297  22.363  0.00  0.00    +0.000 A 
ATOM     15  C   UNL     1      10.036  -0.004  23.706  0.00  0.00    +0.072 A 
ATOM     16  C   UNL     1      10.598   0.994  24.496  0.00  0.00    +0.028 A 
ATOM     17  C   UNL     1      10.854   2.271  23.992  0.00  0.00    +0.002 A 
ATOM     18  C   UNL     1      10.551   2.565  22.667  0.00  0.00    +0.001 A 
ATOM     19  C   UNL     1       9.988   1.582  21.854  0.00  0.00    +0.010 A 
ATOM     20  N   UNL     1       9.812  -1.213  24.245  0.00  0.00    -0.242 NA
ENDBRANCH   9  11
ENDBRANCH   6   7
BRANCH   6  21
ATOM     21  C   UNL     1       6.369  -5.656  23.319  0.00  0.00    +0.127 C 
BRANCH  21  22
ATOM     22  C   UNL     1       5.849  -4.494  22.508  0.00  0.00    +0.213 C 
ATOM     23  N   UNL     1       6.261  -4.478  21.209  0.00  0.00    -0.329 N 
ATOM     24  H   UNL     1       5.944  -3.716  20.624  0.00  0.00    +0.145 HD
ATOM     25  H   UNL     1       6.864  -5.182  20.805  0.00  0.00    +0.145 HD
ATOM     26  O   UNL     1       5.128  -3.616  22.953  0.00  0.00    -0.276 OA
ENDBRANCH  21  22
ENDBRANCH   6  21
ENDBRANCH   4   6
ENDBRANCH   1   2
BRANCH   1  27
ATOM     27  C   UNL     1       4.182  -2.757  27.639  0.00  0.00    +0.149 C 
BRANCH  27  28
ATOM     28  O   UNL     1       4.090  -2.874  29.086  0.00  0.00    -0.389 OA
ATOM     29  H   UNL     1       4.299  -3.797  29.324  0.00  0.00    +0.210 HD
ENDBRANCH  27  28
BRANCH  27  30
ATOM     30  C   UNL     1       5.199  -1.590  27.376  0.00  0.00    +0.118 C 
BRANCH  30  32
ATOM     31  C   UNL     1       5.342   0.165  25.661  0.00  0.00    +0.143 C 
ATOM     32  N   UNL     1       4.825  -0.181  27.035  0.00  0.00    -0.289 NA
ATOM     33  C   UNL     1       5.321   0.793  28.012  0.00  0.00    +0.089 C 
ATOM     34  C   UNL     1       6.816   1.211  27.967  0.00  0.00    +0.006 C 
ATOM     35  C   UNL     1       7.494   1.223  26.580  0.00  0.00    -0.005 C 
ATOM     36  C   UNL     1       7.734   2.602  25.926  0.00  0.00    +0.004 C 
ATOM     37  C   UNL     1       6.946   3.802  26.437  0.00  0.00    +0.000 C 
ATOM     38  C   UNL     1       6.393   3.706  27.848  0.00  0.00    +0.000 C 
ATOM     39  C   UNL     1       7.005   2.570  28.661  0.00  0.00    +0.005 C 
ATOM     40  C   UNL     1       6.882   0.205  25.609  0.00  0.00    +0.032 C 
BRANCH  31  43
ATOM     41  N   UNL     1       5.316   1.923  23.790  0.00  0.00    -0.309 N 
ATOM     42  H   UNL     1       6.126   1.408  23.462  0.00  0.00    +0.149 HD
ATOM     43  C   UNL     1       4.773   1.464  24.974  0.00  0.00    +0.231 C 
ATOM     44  O   UNL     1       3.907   2.126  25.556  0.00  0.00    -0.274 OA
BRANCH  41  46
ATOM     45  C   UNL     1       6.188   3.732  22.307  0.00  0.00    +0.031 C 
ATOM     46  C   UNL     1       5.028   3.275  23.213  0.00  0.00    +0.026 C 
ATOM     47  C   UNL     1       3.760   3.224  22.344  0.00  0.00    +0.031 C 
ATOM     48  C   UNL     1       4.770   4.371  24.270  0.00  0.00    +0.031 C 
ENDBRANCH  41  46
ENDBRANCH  31  43
ENDBRANCH  30  32
ENDBRANCH  27  30
ENDBRANCH   1  27
BRANCH   1  49
ATOM     49  C   UNL     1       3.108  -4.943  26.731  0.00  0.00    +0.060 C 
BRANCH  49  50
ATOM     50  C   UNL     1       2.581  -5.842  27.833  0.00  0.00    -0.046 A 
ATOM     51  C   UNL     1       3.433  -6.705  28.531  0.00  0.00    +0.004 A 
ATOM     52  C   UNL     1       2.995  -7.348  29.692  0.00  0.00    +0.000 A 
ATOM     53  C   UNL     1       1.695  -7.150  30.153  0.00  0.00    +0.000 A 
ATOM     54  C   UNL     1       0.814  -6.369  29.412  0.00  0.00    +0.000 A 
ATOM     55  C   UNL     1       1.248  -5.749  28.240  0.00  0.00    +0.004 A 
ENDBRANCH  49  50
ENDBRANCH   1  49
TORSDOF 14
ENDMDL
MODEL 6
REMARK VINA RESULT:      -7.1      2.245      7.848
REMARK  Name = 
REMARK  17 active torsions:
REMARK  status: ('A' for Active; 'I' for Inactive)
REMARK    1  A    between atoms: C_1  and  C_2
REMARK    2  A    between atoms: C_2  and  C_3
REMARK    3  A    between atoms: C_2  and  C_4
REMARK    4  A    between atoms: C_2  and  N_5
REMARK    5  A    between atoms: C_6  and  C_8
REMARK    6  A    between atoms: N_19  and  C_20
REMARK    7  A    between atoms: C_20  and  C_21
REMARK    8  A    between atoms: C_21  and  C_22
REMARK    9  A    between atoms: C_21  and  O_51
REMARK   10  A    between atoms: C_22  and  C_23
REMARK   11  A    between atoms: C_22  and  N_30
REMARK   12  A    between atoms: C_23  and  C_24
REMARK   13  A    between atoms: C_31  and  C_33
REMARK   14  A    between atoms: C_33  and  C_34
REMARK   15  A    between atoms: C_33  and  N_38
REMARK   16  A    between atoms: C_34  and  C_35
REMARK   17  A    between atoms: C_39  and  C_41
REMARK                            x       y       z     vdW  Elec       q    Type
REMARK                         _______ _______ _______ _____ _____    ______ ____
ROOT
ATOM      1  C   UNL     1       8.370   1.505  23.279  0.00  0.00    +0.107 C 
ENDROOT
BRANCH   1   2
ATOM      2  N   UNL     1       8.378   0.042  23.391  0.00  0.00    -0.308 N 
ATOM      3  H   UNL     1       8.090  -0.397  24.274  0.00  0.00    +0.149 HD
ATOM      4  C   UNL     1       8.848  -0.789  22.398  0.00  0.00    +0.234 C 
ATOM      5  O   UNL     1       9.240  -0.321  21.336  0.00  0.00    -0.274 OA
BRANCH   4   6
ATOM      6  C   UNL     1       8.797  -2.307  22.682  0.00  0.00    +0.168 C 
BRANCH   6   7
ATOM      7  N   UNL     1       7.475  -2.773  23.118  0.00  0.00    -0.298 N 
ATOM      8  H   UNL     1       7.193  -2.568  24.078  0.00  0.00    +0.150 HD
ATOM      9  C   UNL     1       6.912  -3.944  22.700  0.00  0.00    +0.263 C 
ATOM     10  O   UNL     1       7.299  -4.577  21.717  0.00  0.00    -0.269 OA
BRANCH   9  11
ATOM     11  C   UNL     1       5.778  -4.418  23.565  0.00  0.00    +0.126 A 
ATOM     12  C   UNL     1       4.459  -4.225  23.191  0.00  0.00    +0.033 A 
ATOM     13  C   UNL     1       3.472  -4.695  24.052  0.00  0.00    +0.012 A 
ATOM     14  C   UNL     1       3.828  -5.345  25.242  0.00  0.00    +0.000 A 
ATOM     15  C   UNL     1       5.200  -5.500  25.530  0.00  0.00    +0.072 A 
ATOM     16  C   UNL     1       5.561  -6.160  26.700  0.00  0.00    +0.028 A 
ATOM     17  C   UNL     1       4.603  -6.670  27.580  0.00  0.00    +0.002 A 
ATOM     18  C   UNL     1       3.251  -6.514  27.296  0.00  0.00    +0.001 A 
ATOM     19  C   UNL     1       2.863  -5.855  26.130  0.00  0.00    +0.010 A 
ATOM     20  N   UNL     1       6.165  -5.031  24.722  0.00  0.00    -0.242 NA
ENDBRANCH   9  11
ENDBRANCH   6   7
BRANCH   6  21
ATOM     21  C   UNL     1       9.815  -2.606  23.790  0.00  0.00    +0.127 C 
BRANCH  21  22
ATOM     22  C   UNL     1       9.123  -2.940  25.088  0.00  0.00    +0.213 C 
ATOM     23  N   UNL     1       9.233  -4.242  25.473  0.00  0.00    -0.329 N 
ATOM     24  H   UNL     1       8.782  -4.519  26.335  0.00  0.00    +0.145 HD
ATOM     25  H   UNL     1       9.737  -4.941  24.942  0.00  0.00    +0.145 HD
ATOM     26  O   UNL     1       8.495  -2.134  25.757  0.00  0.00    -0.276 OA
ENDBRANCH  21  22
ENDBRANCH   6  21
ENDBRANCH   4   6
ENDBRANCH   1   2
BRANCH   1  27
ATOM     27  C   UNL     1       6.947   2.143  23.266  0.00  0.00    +0.149 C 
BRANCH  27  28
ATOM     28  O   UNL     1       6.064   1.201  22.595  0.00  0.00    -0.389 OA
ATOM     29  H   UNL     1       5.627   1.674  21.861  0.00  0.00    +0.210 HD
ENDBRANCH  27  28
BRANCH  27  30
ATOM     30  C   UNL     1       6.217   2.523  24.602  0.00  0.00    +0.118 C 
BRANCH  30  32
ATOM     31  C   UNL     1       4.384   1.833  26.089  0.00  0.00    +0.143 C 
ATOM     32  N   UNL     1       5.805   1.554  25.666  0.00  0.00    -0.289 NA
ATOM     33  C   UNL     1       6.686   1.585  26.837  0.00  0.00    +0.089 C 
ATOM     34  C   UNL     1       6.529   2.735  27.868  0.00  0.00    +0.006 C 
ATOM     35  C   UNL     1       5.109   3.308  28.063  0.00  0.00    -0.005 C 
ATOM     36  C   UNL     1       4.354   2.895  29.345  0.00  0.00    +0.004 C 
ATOM     37  C   UNL     1       4.827   1.665  30.111  0.00  0.00    +0.000 C 
ATOM     38  C   UNL     1       6.271   1.243  29.898  0.00  0.00    +0.000 C 
ATOM     39  C   UNL     1       7.121   2.314  29.224  0.00  0.00    +0.005 C 
ATOM     40  C   UNL     1       4.243   3.193  26.801  0.00  0.00    +0.032 C 
BRANCH  31  43
ATOM     41  N   UNL     1       4.271  -0.468  27.220  0.00  0.00    -0.309 N 
ATOM     42  H   UNL     1       5.178  -0.592  26.784  0.00  0.00    +0.149 HD
ATOM     43  C   UNL     1       3.646   0.731  26.939  0.00  0.00    +0.231 C 
ATOM     44  O   UNL     1       2.467   0.907  27.264  0.00  0.00    -0.274 OA
BRANCH  41  46
ATOM     45  C   UNL     1       2.506  -2.178  26.781  0.00  0.00    +0.031 C 
ATOM     46  C   UNL     1       3.560  -1.663  27.780  0.00  0.00    +0.026 C 
ATOM     47  C   UNL     1       4.557  -2.808  28.026  0.00  0.00    +0.031 C 
ATOM     48  C   UNL     1       2.867  -1.409  29.136  0.00  0.00    +0.031 C 
ENDBRANCH  41  46
ENDBRANCH  31  43
ENDBRANCH  30  32
ENDBRANCH  27  30
ENDBRANCH   1  27
BRANCH   1  49
ATOM     49  C   UNL     1       9.303   2.148  24.364  0.00  0.00    +0.060 C 
BRANCH  49  50
ATOM     50  C   UNL     1       9.991   3.428  23.929  0.00  0.00    -0.046 A 
ATOM     51  C   UNL     1       9.397   4.677  24.144  0.00  0.00    +0.004 A 
ATOM     52  C   UNL     1      10.131   5.852  23.961  0.00  0.00    +0.000 A 
ATOM     53  C   UNL     1      11.458   5.789  23.542  0.00  0.00    +0.000 A 
ATOM     54  C   UNL     1      12.025   4.556  23.236  0.00  0.00    +0.000 A 
ATOM     55  C   UNL     1      11.281   3.387  23.395  0.00  0.00    +0.004 A 
ENDBRANCH  49  50
ENDBRANCH   1  49
TORSDOF 14
ENDMDL
MODEL 7
REMARK VINA RESULT:      -7.0      2.770      6.096
REMARK  Name = 
REMARK  17 active torsions:
REMARK  status: ('A' for Active; 'I' for Inactive)
REMARK    1  A    between atoms: C_1  and  C_2
REMARK    2  A    between atoms: C_2  and  C_3
REMARK    3  A    between atoms: C_2  and  C_4
REMARK    4  A    between atoms: C_2  and  N_5
REMARK    5  A    between atoms: C_6  and  C_8
REMARK    6  A    between atoms: N_19  and  C_20
REMARK    7  A    between atoms: C_20  and  C_21
REMARK    8  A    between atoms: C_21  and  C_22
REMARK    9  A    between atoms: C_21  and  O_51
REMARK   10  A    between atoms: C_22  and  C_23
REMARK   11  A    between atoms: C_22  and  N_30
REMARK   12  A    between atoms: C_23  and  C_24
REMARK   13  A    between atoms: C_31  and  C_33
REMARK   14  A    between atoms: C_33  and  C_34
REMARK   15  A    between atoms: C_33  and  N_38
REMARK   16  A    between atoms: C_34  and  C_35
REMARK   17  A    between atoms: C_39  and  C_41
REMARK                            x       y       z     vdW  Elec       q    Type
REMARK                         _______ _______ _______ _____ _____    ______ ____
ROOT
ATOM      1  C   UNL     1       4.005   0.354  27.454  0.00  0.00    +0.107 C 
ENDROOT
BRANCH   1   2
ATOM      2  N   UNL     1       4.447   1.131  26.290  0.00  0.00    -0.308 N 
ATOM      3  H   UNL     1       5.429   1.078  25.993  0.00  0.00    +0.149 HD
ATOM      4  C   UNL     1       3.632   2.016  25.619  0.00  0.00    +0.234 C 
ATOM      5  O   UNL     1       2.460   2.149  25.952  0.00  0.00    -0.274 OA
BRANCH   4   6
ATOM      6  C   UNL     1       4.258   2.763  24.420  0.00  0.00    +0.168 C 
BRANCH   6   7
ATOM      7  N   UNL     1       5.512   3.448  24.752  0.00  0.00    -0.298 N 
ATOM      8  H   UNL     1       5.567   4.452  24.570  0.00  0.00    +0.150 HD
ATOM      9  C   UNL     1       6.744   2.876  24.618  0.00  0.00    +0.263 C 
ATOM     10  O   UNL     1       6.925   1.664  24.490  0.00  0.00    -0.269 OA
BRANCH   9  11
ATOM     11  C   UNL     1       7.878   3.863  24.612  0.00  0.00    +0.126 A 
ATOM     12  C   UNL     1       7.754   5.103  25.214  0.00  0.00    +0.033 A 
ATOM     13  C   UNL     1       8.853   5.955  25.162  0.00  0.00    +0.012 A 
ATOM     14  C   UNL     1      10.033   5.543  24.525  0.00  0.00    +0.000 A 
ATOM     15  C   UNL     1      10.062   4.256  23.948  0.00  0.00    +0.072 A 
ATOM     16  C   UNL     1      11.235   3.833  23.332  0.00  0.00    +0.028 A 
ATOM     17  C   UNL     1      12.369   4.647  23.277  0.00  0.00    +0.002 A 
ATOM     18  C   UNL     1      12.338   5.916  23.845  0.00  0.00    +0.001 A 
ATOM     19  C   UNL     1      11.174   6.364  24.469  0.00  0.00    +0.010 A 
ATOM     20  N   UNL     1       9.003   3.431  23.970  0.00  0.00    -0.242 NA
ENDBRANCH   9  11
ENDBRANCH   6   7
BRANCH   6  21
ATOM     21  C   UNL     1       3.239   3.805  23.941  0.00  0.00    +0.127 C 
BRANCH  21  22
ATOM     22  C   UNL     1       3.760   4.564  22.745  0.00  0.00    +0.213 C 
ATOM     23  N   UNL     1       3.285   4.129  21.544  0.00  0.00    -0.329 N 
ATOM     24  H   UNL     1       3.607   4.602  20.710  0.00  0.00    +0.145 HD
ATOM     25  H   UNL     1       2.633   3.361  21.446  0.00  0.00    +0.145 HD
ATOM     26  O   UNL     1       4.553   5.489  22.812  0.00  0.00    -0.276 OA
ENDBRANCH  21  22
ENDBRANCH   6  21
ENDBRANCH   4   6
ENDBRANCH   1   2
BRANCH   1  27
ATOM     27  C   UNL     1       3.521  -1.089  27.120  0.00  0.00    +0.149 C 
BRANCH  27  28
ATOM     28  O   UNL     1       2.120  -0.992  26.739  0.00  0.00    -0.389 OA
ATOM     29  H   UNL     1       1.596  -1.469  27.410  0.00  0.00    +0.210 HD
ENDBRANCH  27  28
BRANCH  27  30
ATOM     30  C   UNL     1       4.206  -1.932  25.987  0.00  0.00    +0.118 C 
BRANCH  30  32
ATOM     31  C   UNL     1       5.852  -2.281  24.194  0.00  0.00    +0.143 C 
ATOM     32  N   UNL     1       5.661  -1.886  25.637  0.00  0.00    -0.289 NA
ATOM     33  C   UNL     1       6.482  -2.742  26.499  0.00  0.00    +0.089 C 
ATOM     34  C   UNL     1       6.501  -4.273  26.241  0.00  0.00    +0.006 C 
ATOM     35  C   UNL     1       6.327  -4.736  24.779  0.00  0.00    -0.005 C 
ATOM     36  C   UNL     1       7.593  -5.227  24.042  0.00  0.00    +0.004 C 
ATOM     37  C   UNL     1       8.959  -4.847  24.598  0.00  0.00    +0.000 C 
ATOM     38  C   UNL     1       9.019  -4.486  26.072  0.00  0.00    +0.000 C 
ATOM     39  C   UNL     1       7.771  -4.895  26.846  0.00  0.00    +0.005 C 
ATOM     40  C   UNL     1       5.493  -3.758  23.940  0.00  0.00    +0.032 C 
BRANCH  31  43
ATOM     41  N   UNL     1       8.204  -1.254  24.222  0.00  0.00    -0.309 N 
ATOM     42  H   UNL     1       7.906  -0.899  25.124  0.00  0.00    +0.149 HD
ATOM     43  C   UNL     1       7.248  -1.972  23.532  0.00  0.00    +0.231 C 
ATOM     44  O   UNL     1       7.441  -2.288  22.353  0.00  0.00    -0.274 OA
BRANCH  41  46
ATOM     45  C   UNL     1      10.249   0.125  24.614  0.00  0.00    +0.031 C 
ATOM     46  C   UNL     1       9.437  -0.687  23.586  0.00  0.00    +0.026 C 
ATOM     47  C   UNL     1      10.344  -1.822  23.079  0.00  0.00    +0.031 C 
ATOM     48  C   UNL     1       9.160   0.210  22.360  0.00  0.00    +0.031 C 
ENDBRANCH  41  46
ENDBRANCH  31  43
ENDBRANCH  30  32
ENDBRANCH  27  30
ENDBRANCH   1  27
BRANCH   1  49
ATOM     49  C   UNL     1       5.101   0.372  28.578  0.00  0.00    +0.060 C 
BRANCH  49  50
ATOM     50  C   UNL     1       5.533   1.757  29.018  0.00  0.00    -0.046 A 
ATOM     51  C   UNL     1       6.647   2.383  28.444  0.00  0.00    +0.004 A 
ATOM     52  C   UNL     1       6.897   3.738  28.679  0.00  0.00    +0.000 A 
ATOM     53  C   UNL     1       6.049   4.473  29.504  0.00  0.00    +0.000 A 
ATOM     54  C   UNL     1       4.996   3.836  30.152  0.00  0.00    +0.000 A 
ATOM     55  C   UNL     1       4.765   2.477  29.936  0.00  0.00    +0.004 A 
ENDBRANCH  49  50
ENDBRANCH   1  49
TORSDOF 14
ENDMDL
MODEL 8
REMARK VINA RESULT:      -6.9      2.060      3.922
REMARK  Name = 
REMARK  17 active torsions:
REMARK  status: ('A' for Active; 'I' for Inactive)
REMARK    1  A    between atoms: C_1  and  C_2
REMARK    2  A    between atoms: C_2  and  C_3
REMARK    3  A    between atoms: C_2  and  C_4
REMARK    4  A    between atoms: C_2  and  N_5
REMARK    5  A    between atoms: C_6  and  C_8
REMARK    6  A    between atoms: N_19  and  C_20
REMARK    7  A    between atoms: C_20  and  C_21
REMARK    8  A    between atoms: C_21  and  C_22
REMARK    9  A    between atoms: C_21  and  O_51
REMARK   10  A    between atoms: C_22  and  C_23
REMARK   11  A    between atoms: C_22  and  N_30
REMARK   12  A    between atoms: C_23  and  C_24
REMARK   13  A    between atoms: C_31  and  C_33
REMARK   14  A    between atoms: C_33  and  C_34
REMARK   15  A    between atoms: C_33  and  N_38
REMARK   16  A    between atoms: C_34  and  C_35
REMARK   17  A    between atoms: C_39  and  C_41
REMARK                            x       y       z     vdW  Elec       q    Type
REMARK                         _______ _______ _______ _____ _____    ______ ____
ROOT
ATOM      1  C   UNL     1       8.185  -4.439  24.260  0.00  0.00    +0.107 C 
ENDROOT
BRANCH   1   2
ATOM      2  N   UNL     1       7.597  -3.136  24.592  0.00  0.00    -0.308 N 
ATOM      3  H   UNL     1       6.787  -3.096  25.222  0.00  0.00    +0.149 HD
ATOM      4  C   UNL     1       8.014  -1.952  24.026  0.00  0.00    +0.234 C 
ATOM      5  O   UNL     1       8.954  -1.942  23.239  0.00  0.00    -0.274 OA
BRANCH   4   6
ATOM      6  C   UNL     1       7.281  -0.669  24.478  0.00  0.00    +0.168 C 
BRANCH   6   7
ATOM      7  N   UNL     1       8.112   0.537  24.393  0.00  0.00    -0.298 N 
ATOM      8  H   UNL     1       8.405   0.974  25.269  0.00  0.00    +0.150 HD
ATOM      9  C   UNL     1       7.976   1.481  23.417  0.00  0.00    +0.263 C 
ATOM     10  O   UNL     1       7.364   1.294  22.364  0.00  0.00    -0.269 OA
BRANCH   9  11
ATOM     11  C   UNL     1       8.621   2.798  23.748  0.00  0.00    +0.126 A 
ATOM     12  C   UNL     1       7.921   3.797  24.402  0.00  0.00    +0.033 A 
ATOM     13  C   UNL     1       8.595   4.984  24.668  0.00  0.00    +0.012 A 
ATOM     14  C   UNL     1       9.936   5.134  24.287  0.00  0.00    +0.000 A 
ATOM     15  C   UNL     1      10.564   4.054  23.632  0.00  0.00    +0.072 A 
ATOM     16  C   UNL     1      11.899   4.186  23.267  0.00  0.00    +0.028 A 
ATOM     17  C   UNL     1      12.621   5.352  23.537  0.00  0.00    +0.002 A 
ATOM     18  C   UNL     1      12.000   6.417  24.181  0.00  0.00    +0.001 A 
ATOM     19  C   UNL     1      10.661   6.308  24.556  0.00  0.00    +0.010 A 
ATOM     20  N   UNL     1       9.921   2.910  23.346  0.00  0.00    -0.242 NA
ENDBRANCH   9  11
ENDBRANCH   6   7
BRANCH   6  21
ATOM     21  C   UNL     1       6.852  -0.871  25.937  0.00  0.00    +0.127 C 
BRANCH  21  22
ATOM     22  C   UNL     1       7.980  -0.545  26.885  0.00  0.00    +0.213 C 
ATOM     23  N   UNL     1       7.704   0.446  27.777  0.00  0.00    -0.329 N 
ATOM     24  H   UNL     1       8.430   0.706  28.433  0.00  0.00    +0.145 HD
ATOM     25  H   UNL     1       6.818   0.933  27.815  0.00  0.00    +0.145 HD
ATOM     26  O   UNL     1       9.068  -1.098  26.871  0.00  0.00    -0.276 OA
ENDBRANCH  21  22
ENDBRANCH   6  21
ENDBRANCH   4   6
ENDBRANCH   1   2
BRANCH   1  27
ATOM     27  C   UNL     1       8.144  -5.480  25.420  0.00  0.00    +0.149 C 
BRANCH  27  28
ATOM     28  O   UNL     1       9.502  -5.968  25.604  0.00  0.00    -0.389 OA
ATOM     29  H   UNL     1       9.558  -6.361  26.496  0.00  0.00    +0.210 HD
ENDBRANCH  27  28
BRANCH  27  30
ATOM     30  C   UNL     1       7.645  -5.078  26.852  0.00  0.00    +0.118 C 
BRANCH  30  32
ATOM     31  C   UNL     1       6.013  -4.756  28.663  0.00  0.00    +0.143 C 
ATOM     32  N   UNL     1       6.263  -4.604  27.183  0.00  0.00    -0.289 NA
ATOM     33  C   UNL     1       5.223  -5.310  26.429  0.00  0.00    +0.089 C 
ATOM     34  C   UNL     1       4.807  -6.738  26.874  0.00  0.00    +0.006 C 
ATOM     35  C   UNL     1       4.890  -7.050  28.384  0.00  0.00    -0.005 C 
ATOM     36  C   UNL     1       3.560  -7.093  29.167  0.00  0.00    +0.004 C 
ATOM     37  C   UNL     1       2.328  -6.435  28.558  0.00  0.00    +0.000 C 
ATOM     38  C   UNL     1       2.327  -6.253  27.050  0.00  0.00    +0.000 C 
ATOM     39  C   UNL     1       3.403  -7.069  26.342  0.00  0.00    +0.005 C 
ATOM     40  C   UNL     1       5.975  -6.234  29.100  0.00  0.00    +0.032 C 
BRANCH  31  43
ATOM     41  N   UNL     1       3.998  -3.176  28.483  0.00  0.00    -0.309 N 
ATOM     42  H   UNL     1       4.343  -3.040  27.539  0.00  0.00    +0.149 HD
ATOM     43  C   UNL     1       4.765  -4.010  29.272  0.00  0.00    +0.231 C 
ATOM     44  O   UNL     1       4.542  -4.096  30.483  0.00  0.00    -0.274 OA
BRANCH  41  46
ATOM     45  C   UNL     1       3.606  -1.304  30.087  0.00  0.00    +0.031 C 
ATOM     46  C   UNL     1       2.973  -2.229  29.029  0.00  0.00    +0.026 C 
ATOM     47  C   UNL     1       2.425  -1.332  27.905  0.00  0.00    +0.031 C 
ATOM     48  C   UNL     1       1.742  -2.920  29.654  0.00  0.00    +0.031 C 
ENDBRANCH  41  46
ENDBRANCH  31  43
ENDBRANCH  30  32
ENDBRANCH  27  30
ENDBRANCH   1  27
BRANCH   1  49
ATOM     49  C   UNL     1       7.569  -5.000  22.930  0.00  0.00    +0.060 C 
BRANCH  49  50
ATOM     50  C   UNL     1       6.054  -5.062  22.912  0.00  0.00    -0.046 A 
ATOM     51  C   UNL     1       5.381  -6.287  22.826  0.00  0.00    +0.004 A 
ATOM     52  C   UNL     1       4.003  -6.356  23.049  0.00  0.00    +0.000 A 
ATOM     53  C   UNL     1       3.283  -5.199  23.338  0.00  0.00    +0.000 A 
ATOM     54  C   UNL     1       3.928  -3.967  23.331  0.00  0.00    +0.000 A 
ATOM     55  C   UNL     1       5.300  -3.899  23.083  0.00  0.00    +0.004 A 
ENDBRANCH  49  50
ENDBRANCH   1  49
TORSDOF 14
ENDMDL
MODEL 9
REMARK VINA RESULT:      -6.8      2.188      3.348
REMARK  Name = 
REMARK  17 active torsions:
REMARK  status: ('A' for Active; 'I' for Inactive)
REMARK    1  A    between atoms: C_1  and  C_2
REMARK    2  A    between atoms: C_2  and  C_3
REMARK    3  A    between atoms: C_2  and  C_4
REMARK    4  A    between atoms: C_2  and  N_5
REMARK    5  A    between atoms: C_6  and  C_8
REMARK    6  A    between atoms: N_19  and  C_20
REMARK    7  A    between atoms: C_20  and  C_21
REMARK    8  A    between atoms: C_21  and  C_22
REMARK    9  A    between atoms: C_21  and  O_51
REMARK   10  A    between atoms: C_22  and  C_23
REMARK   11  A    between atoms: C_22  and  N_30
REMARK   12  A    between atoms: C_23  and  C_24
REMARK   13  A    between atoms: C_31  and  C_33
REMARK   14  A    between atoms: C_33  and  C_34
REMARK   15  A    between atoms: C_33  and  N_38
REMARK   16  A    between atoms: C_34  and  C_35
REMARK   17  A    between atoms: C_39  and  C_41
REMARK                            x       y       z     vdW  Elec       q    Type
REMARK                         _______ _______ _______ _____ _____    ______ ____
ROOT
ATOM      1  C   UNL     1       9.640  -1.010  24.690  0.00  0.00    +0.107 C 
ENDROOT
BRANCH   1   2
ATOM      2  N   UNL     1       8.474  -0.332  25.268  0.00  0.00    -0.308 N 
ATOM      3  H   UNL     1       7.819   0.159  24.647  0.00  0.00    +0.149 HD
ATOM      4  C   UNL     1       8.252  -0.233  26.623  0.00  0.00    +0.234 C 
ATOM      5  O   UNL     1       9.021  -0.768  27.414  0.00  0.00    -0.274 OA
BRANCH   4   6
ATOM      6  C   UNL     1       6.981   0.525  27.065  0.00  0.00    +0.168 C 
BRANCH   6   7
ATOM      7  N   UNL     1       6.606   1.613  26.154  0.00  0.00    -0.298 N 
ATOM      8  H   UNL     1       6.519   2.552  26.547  0.00  0.00    +0.150 HD
ATOM      9  C   UNL     1       5.746   1.458  25.106  0.00  0.00    +0.263 C 
ATOM     10  O   UNL     1       5.426   0.364  24.640  0.00  0.00    -0.269 OA
BRANCH   9  11
ATOM     11  C   UNL     1       5.191   2.751  24.576  0.00  0.00    +0.126 A 
ATOM     12  C   UNL     1       5.574   3.969  25.109  0.00  0.00    +0.033 A 
ATOM     13  C   UNL     1       5.011   5.116  24.558  0.00  0.00    +0.012 A 
ATOM     14  C   UNL     1       4.099   5.014  23.498  0.00  0.00    +0.000 A 
ATOM     15  C   UNL     1       3.778   3.726  23.021  0.00  0.00    +0.072 A 
ATOM     16  C   UNL     1       2.888   3.616  21.957  0.00  0.00    +0.028 A 
ATOM     17  C   UNL     1       2.318   4.742  21.359  0.00  0.00    +0.002 A 
ATOM     18  C   UNL     1       2.634   6.012  21.833  0.00  0.00    +0.001 A 
ATOM     19  C   UNL     1       3.523   6.148  22.899  0.00  0.00    +0.010 A 
ATOM     20  N   UNL     1       4.295   2.607  23.556  0.00  0.00    -0.242 NA
ENDBRANCH   9  11
ENDBRANCH   6   7
BRANCH   6  21
ATOM     21  C   UNL     1       7.253   1.117  28.454  0.00  0.00    +0.127 C 
BRANCH  21  22
ATOM     22  C   UNL     1       6.633   2.486  28.593  0.00  0.00    +0.213 C 
ATOM     23  N   UNL     1       5.364   2.487  29.087  0.00  0.00    -0.329 N 
ATOM     24  H   UNL     1       4.900   3.380  29.195  0.00  0.00    +0.145 HD
ATOM     25  H   UNL     1       4.864   1.646  29.347  0.00  0.00    +0.145 HD
ATOM     26  O   UNL     1       7.192   3.526  28.284  0.00  0.00    -0.276 OA
ENDBRANCH  21  22
ENDBRANCH   6  21
ENDBRANCH   4   6
ENDBRANCH   1   2
BRANCH   1  27
ATOM     27  C   UNL     1       9.297  -2.273  23.841  0.00  0.00    +0.149 C 
BRANCH  27  28
ATOM     28  O   UNL     1      10.548  -2.972  23.592  0.00  0.00    -0.389 OA
ATOM     29  H   UNL     1      11.222  -2.304  23.363  0.00  0.00    +0.210 HD
ENDBRANCH  27  28
BRANCH  27  30
ATOM     30  C   UNL     1       8.305  -3.365  24.377  0.00  0.00    +0.118 C 
BRANCH  30  32
ATOM     31  C   UNL     1       6.740  -3.768  26.230  0.00  0.00    +0.143 C 
ATOM     32  N   UNL     1       6.924  -3.099  24.890  0.00  0.00    -0.289 NA
ATOM     33  C   UNL     1       5.877  -3.543  23.965  0.00  0.00    +0.089 C 
ATOM     34  C   UNL     1       5.526  -5.054  23.894  0.00  0.00    +0.006 C 
ATOM     35  C   UNL     1       5.682  -5.868  25.196  0.00  0.00    -0.005 C 
ATOM     36  C   UNL     1       4.386  -6.242  25.951  0.00  0.00    +0.004 C 
ATOM     37  C   UNL     1       3.110  -5.468  25.645  0.00  0.00    +0.000 C 
ATOM     38  C   UNL     1       3.041  -4.771  24.297  0.00  0.00    +0.000 C 
ATOM     39  C   UNL     1       4.112  -5.241  23.318  0.00  0.00    +0.005 C 
ATOM     40  C   UNL     1       6.768  -5.306  26.123  0.00  0.00    +0.032 C 
BRANCH  31  43
ATOM     41  N   UNL     1       4.778  -2.203  26.769  0.00  0.00    -0.309 N 
ATOM     42  H   UNL     1       5.158  -1.661  26.001  0.00  0.00    +0.149 HD
ATOM     43  C   UNL     1       5.495  -3.337  27.095  0.00  0.00    +0.231 C 
ATOM     44  O   UNL     1       5.230  -3.964  28.126  0.00  0.00    -0.274 OA
BRANCH  41  46
ATOM     45  C   UNL     1       3.308  -0.214  27.111  0.00  0.00    +0.031 C 
ATOM     46  C   UNL     1       3.764  -1.574  27.675  0.00  0.00    +0.026 C 
ATOM     47  C   UNL     1       2.516  -2.468  27.779  0.00  0.00    +0.031 C 
ATOM     48  C   UNL     1       4.254  -1.364  29.124  0.00  0.00    +0.031 C 
ENDBRANCH  41  46
ENDBRANCH  31  43
ENDBRANCH  30  32
ENDBRANCH  27  30
ENDBRANCH   1  27
BRANCH   1  49
ATOM     49  C   UNL     1      10.541   0.009  23.907  0.00  0.00    +0.060 C 
BRANCH  49  50
ATOM     50  C   UNL     1       9.781   1.128  23.221  0.00  0.00    -0.046 A 
ATOM     51  C   UNL     1       9.118   0.913  22.007  0.00  0.00    +0.004 A 
ATOM     52  C   UNL     1       8.231   1.870  21.506  0.00  0.00    +0.000 A 
ATOM     53  C   UNL     1       8.015   3.057  22.202  0.00  0.00    +0.000 A 
ATOM     54  C   UNL     1       8.741   3.317  23.359  0.00  0.00    +0.000 A 
ATOM     55  C   UNL     1       9.645   2.371  23.844  0.00  0.00    +0.004 A 
ENDBRANCH  49  50
ENDBRANCH   1  49
TORSDOF 14
ENDMDL
