MODEL 1
REMARK VINA RESULT:      -5.9      0.000      0.000
REMARK  Name = 
REMARK  6 active torsions:
REMARK  status: ('A' for Active; 'I' for Inactive)
REMARK    1  A    between atoms: C_3  and  C_19
REMARK    2  A    between atoms: N_5  and  C1*_6
REMARK    3  A    between atoms: C2*_8  and  O2*_18
REMARK    4  A    between atoms: C3*_10  and  O3*_17
REMARK    5  A    between atoms: C4*_12  and  C5*_15
REMARK    6  A    between atoms: C5*_15  and  O5*_16
REMARK                            x       y       z     vdW  Elec       q    Type
REMARK                         _______ _______ _______ _____ _____    ______ ____
ROOT
ATOM      1  C1* UNL     1       8.160  -1.515  23.943  0.00  0.00    +0.270 C 
ATOM      2  O4* UNL     1       9.456  -1.360  24.559  0.00  0.00    -0.344 OA
ATOM      3  C4* UNL     1      10.344  -0.728  23.607  0.00  0.00    +0.177 C 
ATOM      4  C3* UNL     1       9.575  -0.547  22.295  0.00  0.00    +0.178 C 
ATOM      5  C2* UNL     1       8.118  -0.585  22.726  0.00  0.00    +0.196 C 
ENDROOT
BRANCH   1   7
ATOM      6  C   UNL     1       8.537  -4.022  24.094  0.00  0.00    +0.223 A 
ATOM      7  N   UNL     1       7.942  -2.911  23.585  0.00  0.00    -0.220 N 
ATOM      8  N   UNL     1       7.060  -3.235  22.616  0.00  0.00    -0.142 NA
ATOM      9  C   UNL     1       7.192  -4.574  22.550  0.00  0.00    +0.236 A 
ATOM     10  N   UNL     1       8.103  -5.087  23.463  0.00  0.00    -0.211 NA
BRANCH   9  11
ATOM     11  C   UNL     1       6.472  -5.436  21.591  0.00  0.00    +0.281 C 
ATOM     12  N   UNL     1       6.387  -6.749  21.983  0.00  0.00    -0.323 N 
ATOM     13  H   UNL     1       5.939  -7.416  21.375  0.00  0.00    +0.145 HD
ATOM     14  H   UNL     1       6.816  -7.040  22.855  0.00  0.00    +0.145 HD
ATOM     15  O   UNL     1       5.998  -5.067  20.522  0.00  0.00    -0.267 OA
ENDBRANCH   9  11
ENDBRANCH   1   7
BRANCH   4  16
ATOM     16  O3* UNL     1       9.856  -1.655  21.435  0.00  0.00    -0.386 OA
ATOM     17  H3* UNL     1      10.366  -1.317  20.676  0.00  0.00    +0.210 HD
ENDBRANCH   4  16
BRANCH   5  18
ATOM     18  O2* UNL     1       7.707   0.742  23.084  0.00  0.00    -0.385 OA
ATOM     19  H2* UNL     1       8.104   0.947  23.952  0.00  0.00    +0.210 HD
ENDBRANCH   5  18
BRANCH   3  20
ATOM     20  C5* UNL     1      10.849   0.605  24.174  0.00  0.00    +0.190 C 
BRANCH  20  21
ATOM     21  O5* UNL     1       9.957   1.146  25.147  0.00  0.00    -0.392 OA
ATOM     22  H5* UNL     1       9.797   0.472  25.829  0.00  0.00    +0.210 HD
ENDBRANCH  20  21
ENDBRANCH   3  20
TORSDOF 6
ENDMDL
MODEL 2
REMARK VINA RESULT:      -5.8      2.257      3.348
REMARK  Name = 
REMARK  6 active torsions:
REMARK  status: ('A' for Active; 'I' for Inactive)
REMARK    1  A    between atoms: C_3  and  C_19
REMARK    2  A    between atoms: N_5  and  C1*_6
REMARK    3  A    between atoms: C2*_8  and  O2*_18
REMARK    4  A    between atoms: C3*_10  and  O3*_17
REMARK    5  A    between atoms: C4*_12  and  C5*_15
REMARK    6  A    between atoms: C5*_15  and  O5*_16
REMARK                            x       y       z     vdW  Elec       q    Type
REMARK                         _______ _______ _______ _____ _____    ______ ____
ROOT
ATOM      1  C1* UNL     1       8.165  -1.839  22.461  0.00  0.00    +0.270 C 
ATOM      2  O4* UNL     1       7.457  -0.586  22.581  0.00  0.00    -0.344 OA
ATOM      3  C4* UNL     1       8.389   0.425  23.030  0.00  0.00    +0.177 C 
ATOM      4  C3* UNL     1       9.738  -0.255  23.278  0.00  0.00    +0.178 C 
ATOM      5  C2* UNL     1       9.663  -1.517  22.436  0.00  0.00    +0.196 C 
ENDROOT
BRANCH   1   7
ATOM      6  C   UNL     1       6.628  -2.797  24.242  0.00  0.00    +0.223 A 
ATOM      7  N   UNL     1       7.803  -2.722  23.562  0.00  0.00    -0.220 N 
ATOM      8  N   UNL     1       8.700  -3.607  24.048  0.00  0.00    -0.142 NA
ATOM      9  C   UNL     1       8.019  -4.172  25.064  0.00  0.00    +0.236 A 
ATOM     10  N   UNL     1       6.725  -3.687  25.202  0.00  0.00    -0.211 NA
BRANCH   9  11
ATOM     11  C   UNL     1       8.575  -5.191  25.976  0.00  0.00    +0.281 C 
ATOM     12  N   UNL     1       9.818  -5.642  25.610  0.00  0.00    -0.323 N 
ATOM     13  H   UNL     1      10.262  -6.361  26.158  0.00  0.00    +0.145 HD
ATOM     14  H   UNL     1      10.254  -5.280  24.769  0.00  0.00    +0.145 HD
ATOM     15  O   UNL     1       8.008  -5.642  26.967  0.00  0.00    -0.267 OA
ENDBRANCH   9  11
ENDBRANCH   1   7
BRANCH   4  16
ATOM     16  O3* UNL     1       9.838  -0.599  24.663  0.00  0.00    -0.386 OA
ATOM     17  H3* UNL     1       9.335   0.066  25.169  0.00  0.00    +0.210 HD
ENDBRANCH   4  16
BRANCH   5  18
ATOM     18  O2* UNL     1      10.120  -1.218  21.110  0.00  0.00    -0.385 OA
ATOM     19  H2* UNL     1       9.665  -1.828  20.498  0.00  0.00    +0.210 HD
ENDBRANCH   5  18
BRANCH   3  20
ATOM     20  C5* UNL     1       8.484   1.545  21.986  0.00  0.00    +0.190 C 
BRANCH  20  21
ATOM     21  O5* UNL     1       9.818   1.725  21.513  0.00  0.00    -0.392 OA
ATOM     22  H5* UNL     1      10.059   2.661  21.614  0.00  0.00    +0.210 HD
ENDBRANCH  20  21
ENDBRANCH   3  20
TORSDOF 6
ENDMDL
MODEL 3
REMARK VINA RESULT:      -5.8      2.265      3.377
REMARK  Name = 
REMARK  6 active torsions:
REMARK  status: ('A' for Active; 'I' for Inactive)
REMARK    1  A    between atoms: C_3  and  C_19
REMARK    2  A    between atoms: N_5  and  C1*_6
REMARK    3  A    between atoms: C2*_8  and  O2*_18
REMARK    4  A    between atoms: C3*_10  and  O3*_17
REMARK    5  A    between atoms: C4*_12  and  C5*_15
REMARK    6  A    between atoms: C5*_15  and  O5*_16
REMARK                            x       y       z     vdW  Elec       q    Type
REMARK                         _______ _______ _______ _____ _____    ______ ____
ROOT
ATOM      1  C1* UNL     1       9.850  -1.020  23.099  0.00  0.00    +0.270 C 
ATOM      2  O4* UNL     1       9.038  -0.308  22.141  0.00  0.00    -0.344 OA
ATOM      3  C4* UNL     1       8.359   0.770  22.827  0.00  0.00    +0.177 C 
ATOM      4  C3* UNL     1       8.709   0.676  24.315  0.00  0.00    +0.178 C 
ATOM      5  C2* UNL     1      10.005  -0.117  24.327  0.00  0.00    +0.196 C 
ENDROOT
BRANCH   1   7
ATOM      6  C   UNL     1       8.151  -2.891  22.847  0.00  0.00    +0.223 A 
ATOM      7  N   UNL     1       9.230  -2.299  23.423  0.00  0.00    -0.220 N 
ATOM      8  N   UNL     1       9.718  -3.057  24.428  0.00  0.00    -0.142 NA
ATOM      9  C   UNL     1       8.859  -4.095  24.444  0.00  0.00    +0.236 A 
ATOM     10  N   UNL     1       7.877  -4.016  23.466  0.00  0.00    -0.211 NA
BRANCH   9  11
ATOM     11  C   UNL     1       8.914  -5.208  25.412  0.00  0.00    +0.281 C 
ATOM     12  N   UNL     1      10.179  -5.697  25.622  0.00  0.00    -0.323 N 
ATOM     13  H   UNL     1      10.307  -6.478  26.244  0.00  0.00    +0.145 HD
ATOM     14  H   UNL     1      10.961  -5.297  25.115  0.00  0.00    +0.145 HD
ATOM     15  O   UNL     1       7.946  -5.701  25.983  0.00  0.00    -0.267 OA
ENDBRANCH   9  11
ENDBRANCH   1   7
BRANCH   4  16
ATOM     16  O3* UNL     1       7.683  -0.058  24.989  0.00  0.00    -0.386 OA
ATOM     17  H3* UNL     1       7.169  -0.536  24.312  0.00  0.00    +0.210 HD
ENDBRANCH   4  16
BRANCH   5  18
ATOM     18  O2* UNL     1      11.106   0.791  24.183  0.00  0.00    -0.385 OA
ATOM     19  H2* UNL     1      11.700   0.656  24.947  0.00  0.00    +0.210 HD
ENDBRANCH   5  18
BRANCH   3  20
ATOM     20  C5* UNL     1       8.770   2.116  22.216  0.00  0.00    +0.190 C 
BRANCH  20  21
ATOM     21  O5* UNL     1      10.026   2.036  21.543  0.00  0.00    -0.392 OA
ATOM     22  H5* UNL     1      10.186   2.879  21.085  0.00  0.00    +0.210 HD
ENDBRANCH  20  21
ENDBRANCH   3  20
TORSDOF 6
ENDMDL
MODEL 4
REMARK VINA RESULT:      -5.8      1.972      2.781
REMARK  Name = 
REMARK  6 active torsions:
REMARK  status: ('A' for Active; 'I' for Inactive)
REMARK    1  A    between atoms: C_3  and  C_19
REMARK    2  A    between atoms: N_5  and  C1*_6
REMARK    3  A    between atoms: C2*_8  and  O2*_18
REMARK    4  A    between atoms: C3*_10  and  O3*_17
REMARK    5  A    between atoms: C4*_12  and  C5*_15
REMARK    6  A    between atoms: C5*_15  and  O5*_16
REMARK                            x       y       z     vdW  Elec       q    Type
REMARK                         _______ _______ _______ _____ _____    ______ ____
ROOT
ATOM      1  C1* UNL     1       8.235  -0.761  23.667  0.00  0.00    +0.270 C 
ATOM      2  O4* UNL     1       9.455  -0.196  24.191  0.00  0.00    -0.344 OA
ATOM      3  C4* UNL     1      10.290   0.203  23.079  0.00  0.00    +0.177 C 
ATOM      4  C3* UNL     1       9.580  -0.208  21.786  0.00  0.00    +0.178 C 
ATOM      5  C2* UNL     1       8.124  -0.330  22.201  0.00  0.00    +0.196 C 
ENDROOT
BRANCH   1   7
ATOM      6  C   UNL     1       7.747  -3.160  22.989  0.00  0.00    +0.223 A 
ATOM      7  N   UNL     1       8.251  -2.210  23.821  0.00  0.00    -0.220 N 
ATOM      8  N   UNL     1       8.807  -2.772  24.916  0.00  0.00    -0.142 NA
ATOM      9  C   UNL     1       8.573  -4.083  24.712  0.00  0.00    +0.236 A 
ATOM     10  N   UNL     1       7.918  -4.349  23.517  0.00  0.00    -0.211 NA
BRANCH   9  11
ATOM     11  C   UNL     1       8.940  -5.153  25.660  0.00  0.00    +0.281 C 
ATOM     12  N   UNL     1      10.273  -5.480  25.637  0.00  0.00    -0.323 N 
ATOM     13  H   UNL     1      10.608  -6.222  26.231  0.00  0.00    +0.145 HD
ATOM     14  H   UNL     1      10.894  -5.003  24.993  0.00  0.00    +0.145 HD
ATOM     15  O   UNL     1       8.161  -5.743  26.402  0.00  0.00    -0.267 OA
ENDBRANCH   9  11
ENDBRANCH   1   7
BRANCH   4  16
ATOM     16  O3* UNL     1      10.074  -1.484  21.369  0.00  0.00    -0.386 OA
ATOM     17  H3* UNL     1       9.336  -2.118  21.422  0.00  0.00    +0.210 HD
ENDBRANCH   4  16
BRANCH   5  18
ATOM     18  O2* UNL     1       7.497   0.954  22.071  0.00  0.00    -0.385 OA
ATOM     19  H2* UNL     1       6.703   0.838  21.513  0.00  0.00    +0.210 HD
ENDBRANCH   5  18
BRANCH   3  20
ATOM     20  C5* UNL     1      10.555   1.713  23.143  0.00  0.00    +0.190 C 
BRANCH  20  21
ATOM     21  O5* UNL     1      10.316   2.352  21.889  0.00  0.00    -0.392 OA
ATOM     22  H5* UNL     1       9.808   1.745  21.325  0.00  0.00    +0.210 HD
ENDBRANCH  20  21
ENDBRANCH   3  20
TORSDOF 6
ENDMDL
MODEL 5
REMARK VINA RESULT:      -5.8      2.883      5.441
REMARK  Name = 
REMARK  6 active torsions:
REMARK  status: ('A' for Active; 'I' for Inactive)
REMARK    1  A    between atoms: C_3  and  C_19
REMARK    2  A    between atoms: N_5  and  C1*_6
REMARK    3  A    between atoms: C2*_8  and  O2*_18
REMARK    4  A    between atoms: C3*_10  and  O3*_17
REMARK    5  A    between atoms: C4*_12  and  C5*_15
REMARK    6  A    between atoms: C5*_15  and  O5*_16
REMARK                            x       y       z     vdW  Elec       q    Type
REMARK                         _______ _______ _______ _____ _____    ______ ____
ROOT
ATOM      1  C1* UNL     1       9.041  -3.341  25.827  0.00  0.00    +0.270 C 
ATOM      2  O4* UNL     1       7.756  -3.515  26.462  0.00  0.00    -0.344 OA
ATOM      3  C4* UNL     1       7.015  -4.519  25.729  0.00  0.00    +0.177 C 
ATOM      4  C3* UNL     1       7.858  -4.939  24.522  0.00  0.00    +0.178 C 
ATOM      5  C2* UNL     1       9.273  -4.557  24.924  0.00  0.00    +0.196 C 
ENDROOT
BRANCH   1   7
ATOM      6  C   UNL     1       8.545  -0.880  25.442  0.00  0.00    +0.223 A 
ATOM      7  N   UNL     1       9.064  -2.085  25.087  0.00  0.00    -0.220 N 
ATOM      8  N   UNL     1       9.644  -2.023  23.870  0.00  0.00    -0.142 NA
ATOM      9  C   UNL     1       9.408  -0.747  23.508  0.00  0.00    +0.236 A 
ATOM     10  N   UNL     1       8.730  -0.014  24.472  0.00  0.00    -0.211 NA
BRANCH   9  11
ATOM     11  C   UNL     1       9.798  -0.163  22.210  0.00  0.00    +0.281 C 
ATOM     12  N   UNL     1       9.770  -1.057  21.169  0.00  0.00    -0.323 N 
ATOM     13  H   UNL     1      10.050  -0.752  20.251  0.00  0.00    +0.145 HD
ATOM     14  H   UNL     1       9.512  -2.021  21.346  0.00  0.00    +0.145 HD
ATOM     15  O   UNL     1      10.145   1.001  22.030  0.00  0.00    -0.267 OA
ENDBRANCH   9  11
ENDBRANCH   1   7
BRANCH   4  16
ATOM     16  O3* UNL     1       7.453  -4.174  23.383  0.00  0.00    -0.386 OA
ATOM     17  H3* UNL     1       7.276  -3.265  23.686  0.00  0.00    +0.210 HD
ENDBRANCH   4  16
BRANCH   5  18
ATOM     18  O2* UNL     1       9.861  -5.649  25.644  0.00  0.00    -0.385 OA
ATOM     19  H2* UNL     1      10.466  -6.111  25.033  0.00  0.00    +0.210 HD
ENDBRANCH   5  18
BRANCH   3  20
ATOM     20  C5* UNL     1       6.689  -5.701  26.652  0.00  0.00    +0.190 C 
BRANCH  20  21
ATOM     21  O5* UNL     1       7.686  -5.887  27.655  0.00  0.00    -0.392 OA
ATOM     22  H5* UNL     1       7.591  -5.186  28.321  0.00  0.00    +0.210 HD
ENDBRANCH  20  21
ENDBRANCH   3  20
TORSDOF 6
ENDMDL
MODEL 6
REMARK VINA RESULT:      -5.6      1.412      1.912
REMARK  Name = 
REMARK  6 active torsions:
REMARK  status: ('A' for Active; 'I' for Inactive)
REMARK    1  A    between atoms: C_3  and  C_19
REMARK    2  A    between atoms: N_5  and  C1*_6
REMARK    3  A    between atoms: C2*_8  and  O2*_18
REMARK    4  A    between atoms: C3*_10  and  O3*_17
REMARK    5  A    between atoms: C4*_12  and  C5*_15
REMARK    6  A    between atoms: C5*_15  and  O5*_16
REMARK                            x       y       z     vdW  Elec       q    Type
REMARK                         _______ _______ _______ _____ _____    ______ ____
ROOT
ATOM      1  C1* UNL     1       7.970  -1.205  22.701  0.00  0.00    +0.270 C 
ATOM      2  O4* UNL     1       8.181  -0.621  24.004  0.00  0.00    -0.344 OA
ATOM      3  C4* UNL     1       9.456  -1.079  24.511  0.00  0.00    +0.177 C 
ATOM      4  C3* UNL     1      10.040  -2.065  23.495  0.00  0.00    +0.178 C 
ATOM      5  C2* UNL     1       9.328  -1.709  22.201  0.00  0.00    +0.196 C 
ENDROOT
BRANCH   1   7
ATOM      6  C   UNL     1       5.887  -2.352  23.592  0.00  0.00    +0.223 A 
ATOM      7  N   UNL     1       6.978  -2.269  22.786  0.00  0.00    -0.220 N 
ATOM      8  N   UNL     1       7.090  -3.367  22.008  0.00  0.00    -0.142 NA
ATOM      9  C   UNL     1       6.045  -4.112  22.418  0.00  0.00    +0.236 A 
ATOM     10  N   UNL     1       5.279  -3.500  23.401  0.00  0.00    -0.211 NA
BRANCH   9  11
ATOM     11  C   UNL     1       5.735  -5.464  21.911  0.00  0.00    +0.281 C 
ATOM     12  N   UNL     1       5.294  -6.331  22.879  0.00  0.00    -0.323 N 
ATOM     13  H   UNL     1       5.087  -7.284  22.628  0.00  0.00    +0.145 HD
ATOM     14  H   UNL     1       5.225  -6.015  23.840  0.00  0.00    +0.145 HD
ATOM     15  O   UNL     1       5.865  -5.833  20.748  0.00  0.00    -0.267 OA
ENDBRANCH   9  11
ENDBRANCH   1   7
BRANCH   4  16
ATOM     16  O3* UNL     1       9.695  -3.396  23.889  0.00  0.00    -0.386 OA
ATOM     17  H3* UNL     1      10.494  -3.809  24.264  0.00  0.00    +0.210 HD
ENDBRANCH   4  16
BRANCH   5  18
ATOM     18  O2* UNL     1      10.067  -0.674  21.537  0.00  0.00    -0.385 OA
ATOM     19  H2* UNL     1      10.916  -0.569  22.009  0.00  0.00    +0.210 HD
ENDBRANCH   5  18
BRANCH   3  20
ATOM     20  C5* UNL     1      10.380   0.123  24.753  0.00  0.00    +0.190 C 
BRANCH  20  21
ATOM     21  O5* UNL     1      10.040   1.235  23.926  0.00  0.00    -0.392 OA
ATOM     22  H5* UNL     1       9.806   1.985  24.498  0.00  0.00    +0.210 HD
ENDBRANCH  20  21
ENDBRANCH   3  20
TORSDOF 6
ENDMDL
MODEL 7
REMARK VINA RESULT:      -5.6      1.407      2.112
REMARK  Name = 
REMARK  6 active torsions:
REMARK  status: ('A' for Active; 'I' for Inactive)
REMARK    1  A    between atoms: C_3  and  C_19
REMARK    2  A    between atoms: N_5  and  C1*_6
REMARK    3  A    between atoms: C2*_8  and  O2*_18
REMARK    4  A    between atoms: C3*_10  and  O3*_17
REMARK    5  A    between atoms: C4*_12  and  C5*_15
REMARK    6  A    between atoms: C5*_15  and  O5*_16
REMARK                            x       y       z     vdW  Elec       q    Type
REMARK                         _______ _______ _______ _____ _____    ______ ____
ROOT
ATOM      1  C1* UNL     1       9.767  -1.585  23.969  0.00  0.00    +0.270 C 
ATOM      2  O4* UNL     1       9.964  -0.880  22.725  0.00  0.00    -0.344 OA
ATOM      3  C4* UNL     1       9.173   0.331  22.754  0.00  0.00    +0.177 C 
ATOM      4  C3* UNL     1       8.377   0.343  24.062  0.00  0.00    +0.178 C 
ATOM      5  C2* UNL     1       9.163  -0.591  24.967  0.00  0.00    +0.196 C 
ENDROOT
BRANCH   1   7
ATOM      6  C   UNL     1       8.762  -3.848  24.533  0.00  0.00    +0.223 A 
ATOM      7  N   UNL     1       8.912  -2.745  23.753  0.00  0.00    -0.220 N 
ATOM      8  N   UNL     1       8.142  -2.827  22.646  0.00  0.00    -0.142 NA
ATOM      9  C   UNL     1       7.568  -4.038  22.789  0.00  0.00    +0.236 A 
ATOM     10  N   UNL     1       7.936  -4.691  23.958  0.00  0.00    -0.211 NA
BRANCH   9  11
ATOM     11  C   UNL     1       6.655  -4.649  21.803  0.00  0.00    +0.281 C 
ATOM     12  N   UNL     1       6.949  -5.957  21.513  0.00  0.00    -0.323 N 
ATOM     13  H   UNL     1       6.396  -6.446  20.827  0.00  0.00    +0.145 HD
ATOM     14  H   UNL     1       7.744  -6.402  21.958  0.00  0.00    +0.145 HD
ATOM     15  O   UNL     1       5.722  -4.076  21.249  0.00  0.00    -0.267 OA
ENDBRANCH   9  11
ENDBRANCH   1   7
BRANCH   4  16
ATOM     16  O3* UNL     1       7.076  -0.198  23.819  0.00  0.00    -0.386 OA
ATOM     17  H3* UNL     1       6.911  -0.884  24.492  0.00  0.00    +0.210 HD
ENDBRANCH   4  16
BRANCH   5  18
ATOM     18  O2* UNL     1      10.178   0.165  25.643  0.00  0.00    -0.385 OA
ATOM     19  H2* UNL     1      10.986  -0.384  25.666  0.00  0.00    +0.210 HD
ENDBRANCH   5  18
BRANCH   3  20
ATOM     20  C5* UNL     1      10.091   1.554  22.619  0.00  0.00    +0.190 C 
BRANCH  20  21
ATOM     21  O5* UNL     1       9.883   2.247  21.389  0.00  0.00    -0.392 OA
ATOM     22  H5* UNL     1      10.356   1.774  20.684  0.00  0.00    +0.210 HD
ENDBRANCH  20  21
ENDBRANCH   3  20
TORSDOF 6
ENDMDL
MODEL 8
REMARK VINA RESULT:      -5.6      4.691      7.648
REMARK  Name = 
REMARK  6 active torsions:
REMARK  status: ('A' for Active; 'I' for Inactive)
REMARK    1  A    between atoms: C_3  and  C_19
REMARK    2  A    between atoms: N_5  and  C1*_6
REMARK    3  A    between atoms: C2*_8  and  O2*_18
REMARK    4  A    between atoms: C3*_10  and  O3*_17
REMARK    5  A    between atoms: C4*_12  and  C5*_15
REMARK    6  A    between atoms: C5*_15  and  O5*_16
REMARK                            x       y       z     vdW  Elec       q    Type
REMARK                         _______ _______ _______ _____ _____    ______ ____
ROOT
ATOM      1  C1* UNL     1       9.182   1.826  22.749  0.00  0.00    +0.270 C 
ATOM      2  O4* UNL     1      10.202   0.987  22.165  0.00  0.00    -0.344 OA
ATOM      3  C4* UNL     1      10.495  -0.088  23.087  0.00  0.00    +0.177 C 
ATOM      4  C3* UNL     1       9.662   0.137  24.353  0.00  0.00    +0.178 C 
ATOM      5  C2* UNL     1       8.525   1.026  23.879  0.00  0.00    +0.196 C 
ENDROOT
BRANCH   1   7
ATOM      6  C   UNL     1       9.154   4.152  23.767  0.00  0.00    +0.223 A 
ATOM      7  N   UNL     1       9.772   3.073  23.219  0.00  0.00    -0.220 N 
ATOM      8  N   UNL     1      11.103   3.276  23.120  0.00  0.00    -0.142 NA
ATOM      9  C   UNL     1      11.234   4.531  23.593  0.00  0.00    +0.236 A 
ATOM     10  N   UNL     1      10.035   5.095  24.006  0.00  0.00    -0.211 NA
BRANCH   9  11
ATOM     11  C   UNL     1      12.511   5.269  23.655  0.00  0.00    +0.281 C 
ATOM     12  N   UNL     1      12.475   6.369  24.474  0.00  0.00    -0.323 N 
ATOM     13  H   UNL     1      13.294   6.951  24.552  0.00  0.00    +0.145 HD
ATOM     14  H   UNL     1      11.614   6.609  24.953  0.00  0.00    +0.145 HD
ATOM     15  O   UNL     1      13.529   4.981  23.032  0.00  0.00    -0.267 OA
ENDBRANCH   9  11
ENDBRANCH   1   7
BRANCH   4  16
ATOM     16  O3* UNL     1      10.458   0.836  25.314  0.00  0.00    -0.386 OA
ATOM     17  H3* UNL     1      10.483   0.296  26.125  0.00  0.00    +0.210 HD
ENDBRANCH   4  16
BRANCH   5  18
ATOM     18  O2* UNL     1       7.460   0.197  23.394  0.00  0.00    -0.385 OA
ATOM     19  H2* UNL     1       7.290   0.451  22.466  0.00  0.00    +0.210 HD
ENDBRANCH   5  18
BRANCH   3  20
ATOM     20  C5* UNL     1      10.193  -1.438  22.424  0.00  0.00    +0.190 C 
BRANCH  20  21
ATOM     21  O5* UNL     1       9.379  -1.293  21.261  0.00  0.00    -0.392 OA
ATOM     22  H5* UNL     1       9.039  -0.383  21.233  0.00  0.00    +0.210 HD
ENDBRANCH  20  21
ENDBRANCH   3  20
TORSDOF 6
ENDMDL
MODEL 9
REMARK VINA RESULT:      -5.6      2.521      3.623
REMARK  Name = 
REMARK  6 active torsions:
REMARK  status: ('A' for Active; 'I' for Inactive)
REMARK    1  A    between atoms: C_3  and  C_19
REMARK    2  A    between atoms: N_5  and  C1*_6
REMARK    3  A    between atoms: C2*_8  and  O2*_18
REMARK    4  A    between atoms: C3*_10  and  O3*_17
REMARK    5  A    between atoms: C4*_12  and  C5*_15
REMARK    6  A    between atoms: C5*_15  and  O5*_16
REMARK                            x       y       z     vdW  Elec       q    Type
REMARK                         _______ _______ _______ _____ _____    ______ ____
ROOT
ATOM      1  C1* UNL     1       8.485   1.120  22.829  0.00  0.00    +0.270 C 
ATOM      2  O4* UNL     1       8.040   2.177  23.707  0.00  0.00    -0.344 OA
ATOM      3  C4* UNL     1       9.196   2.738  24.372  0.00  0.00    +0.177 C 
ATOM      4  C3* UNL     1      10.424   1.933  23.940  0.00  0.00    +0.178 C 
ATOM      5  C2* UNL     1       9.993   1.299  22.629  0.00  0.00    +0.196 C 
ENDROOT
BRANCH   1   7
ATOM      6  C   UNL     1       7.114  -0.502  24.222  0.00  0.00    +0.223 A 
ATOM      7  N   UNL     1       8.149  -0.177  23.403  0.00  0.00    -0.220 N 
ATOM      8  N   UNL     1       8.924  -1.253  23.152  0.00  0.00    -0.142 NA
ATOM      9  C   UNL     1       8.328  -2.210  23.889  0.00  0.00    +0.236 A 
ATOM     10  N   UNL     1       7.196  -1.768  24.561  0.00  0.00    -0.211 NA
BRANCH   9  11
ATOM     11  C   UNL     1       8.820  -3.597  24.012  0.00  0.00    +0.281 C 
ATOM     12  N   UNL     1       7.929  -4.542  23.570  0.00  0.00    -0.323 N 
ATOM     13  H   UNL     1       8.169  -5.517  23.644  0.00  0.00    +0.145 HD
ATOM     14  H   UNL     1       7.024  -4.250  23.218  0.00  0.00    +0.145 HD
ATOM     15  O   UNL     1       9.906  -3.925  24.480  0.00  0.00    -0.267 OA
ENDBRANCH   9  11
ENDBRANCH   1   7
BRANCH   4  16
ATOM     16  O3* UNL     1      10.677   0.915  24.912  0.00  0.00    -0.386 OA
ATOM     17  H3* UNL     1      10.292   0.084  24.577  0.00  0.00    +0.210 HD
ENDBRANCH   4  16
BRANCH   5  18
ATOM     18  O2* UNL     1      10.283   2.208  21.557  0.00  0.00    -0.385 OA
ATOM     19  H2* UNL     1      10.692   1.691  20.836  0.00  0.00    +0.210 HD
ENDBRANCH   5  18
BRANCH   3  20
ATOM     20  C5* UNL     1       9.323   4.227  24.023  0.00  0.00    +0.190 C 
BRANCH  20  21
ATOM     21  O5* UNL     1      10.563   4.522  23.380  0.00  0.00    -0.392 OA
ATOM     22  H5* UNL     1      11.181   4.869  24.045  0.00  0.00    +0.210 HD
ENDBRANCH  20  21
ENDBRANCH   3  20
TORSDOF 6
ENDMDL
