MODEL 1
REMARK VINA RESULT:      -6.0      0.000      0.000
REMARK  Name = 
REMARK  4 active torsions:
REMARK  status: ('A' for Active; 'I' for Inactive)
REMARK    1  A    between atoms: C_1  and  C_2
REMARK    2  A    between atoms: N_4  and  C_10
REMARK    3  A    between atoms: C_14  and  C_17
REMARK    4  A    between atoms: C_17  and  O_18
REMARK                            x       y       z     vdW  Elec       q    Type
REMARK                         _______ _______ _______ _____ _____    ______ ____
ROOT
ATOM      1  C   UNL     1       5.584  -3.337  21.845  0.00  0.00    +0.051 C 
ATOM      2  C   UNL     1       6.792  -3.658  22.661  0.00  0.00    +0.030 A 
ATOM      3  C   UNL     1       6.815  -4.950  23.378  0.00  0.00    +0.257 A 
ATOM      4  O   UNL     1       5.905  -5.765  23.282  0.00  0.00    -0.267 OA
ATOM      5  N   UNL     1       7.919  -5.182  24.145  0.00  0.00    -0.275 N 
ATOM      6  H   UNL     1       7.956  -6.063  24.632  0.00  0.00    +0.173 HD
ATOM      7  C   UNL     1       8.992  -4.345  24.305  0.00  0.00    +0.332 A 
ATOM      8  O   UNL     1       9.930  -4.687  25.022  0.00  0.00    -0.246 OA
ATOM      9  N   UNL     1       8.923  -3.135  23.623  0.00  0.00    -0.270 N 
ATOM     10  C   UNL     1       7.849  -2.847  22.795  0.00  0.00    +0.102 A 
ENDROOT
BRANCH   9  11
ATOM     11  C   UNL     1      10.094  -2.259  23.690  0.00  0.00    +0.248 C 
ATOM     12  O   UNL     1      10.422  -1.733  22.385  0.00  0.00    -0.343 OA
ATOM     13  C   UNL     1      10.271  -0.295  22.393  0.00  0.00    +0.169 C 
ATOM     14  C   UNL     1       9.967   0.062  23.802  0.00  0.00    +0.007 C 
ATOM     15  C   UNL     1       9.847  -1.050  24.527  0.00  0.00    +0.025 C 
BRANCH  13  16
ATOM     16  C   UNL     1       9.169   0.132  21.402  0.00  0.00    +0.191 C 
BRANCH  16  17
ATOM     17  O   UNL     1       9.175   1.527  21.090  0.00  0.00    -0.392 OA
ATOM     18  H   UNL     1       9.564   1.644  20.210  0.00  0.00    +0.210 HD
ENDBRANCH  16  17
ENDBRANCH  13  16
ENDBRANCH   9  11
TORSDOF 3
ENDMDL
MODEL 2
REMARK VINA RESULT:      -5.9      2.605      3.658
REMARK  Name = 
REMARK  4 active torsions:
REMARK  status: ('A' for Active; 'I' for Inactive)
REMARK    1  A    between atoms: C_1  and  C_2
REMARK    2  A    between atoms: N_4  and  C_10
REMARK    3  A    between atoms: C_14  and  C_17
REMARK    4  A    between atoms: C_17  and  O_18
REMARK                            x       y       z     vdW  Elec       q    Type
REMARK                         _______ _______ _______ _____ _____    ______ ____
ROOT
ATOM      1  C   UNL     1       5.451  -3.891  27.656  0.00  0.00    +0.051 C 
ATOM      2  C   UNL     1       6.690  -4.195  26.879  0.00  0.00    +0.030 A 
ATOM      3  C   UNL     1       7.473  -5.384  27.273  0.00  0.00    +0.257 A 
ATOM      4  O   UNL     1       7.113  -6.135  28.171  0.00  0.00    -0.267 OA
ATOM      5  N   UNL     1       8.619  -5.599  26.562  0.00  0.00    -0.275 N 
ATOM      6  H   UNL     1       9.160  -6.412  26.810  0.00  0.00    +0.173 HD
ATOM      7  C   UNL     1       9.097  -4.831  25.535  0.00  0.00    +0.332 A 
ATOM      8  O   UNL     1      10.143  -5.149  24.973  0.00  0.00    -0.246 OA
ATOM      9  N   UNL     1       8.336  -3.715  25.206  0.00  0.00    -0.270 N 
ATOM     10  C   UNL     1       7.141  -3.455  25.859  0.00  0.00    +0.102 A 
ENDROOT
BRANCH   9  11
ATOM     11  C   UNL     1       8.763  -2.927  24.049  0.00  0.00    +0.248 C 
ATOM     12  O   UNL     1       8.181  -3.440  22.830  0.00  0.00    -0.343 OA
ATOM     13  C   UNL     1       7.309  -2.441  22.253  0.00  0.00    +0.169 C 
ATOM     14  C   UNL     1       7.484  -1.232  23.097  0.00  0.00    +0.007 C 
ATOM     15  C   UNL     1       8.288  -1.515  24.121  0.00  0.00    +0.025 C 
BRANCH  13  16
ATOM     16  C   UNL     1       5.856  -2.956  22.215  0.00  0.00    +0.191 C 
BRANCH  16  17
ATOM     17  O   UNL     1       5.608  -3.925  21.194  0.00  0.00    -0.392 OA
ATOM     18  H   UNL     1       6.207  -4.675  21.329  0.00  0.00    +0.210 HD
ENDBRANCH  16  17
ENDBRANCH  13  16
ENDBRANCH   9  11
TORSDOF 3
ENDMDL
MODEL 3
REMARK VINA RESULT:      -5.9      1.881      2.582
REMARK  Name = 
REMARK  4 active torsions:
REMARK  status: ('A' for Active; 'I' for Inactive)
REMARK    1  A    between atoms: C_1  and  C_2
REMARK    2  A    between atoms: N_4  and  C_10
REMARK    3  A    between atoms: C_14  and  C_17
REMARK    4  A    between atoms: C_17  and  O_18
REMARK                            x       y       z     vdW  Elec       q    Type
REMARK                         _______ _______ _______ _____ _____    ______ ____
ROOT
ATOM      1  C   UNL     1       5.508  -5.619  22.331  0.00  0.00    +0.051 C 
ATOM      2  C   UNL     1       6.134  -5.491  23.681  0.00  0.00    +0.030 A 
ATOM      3  C   UNL     1       5.533  -6.255  24.793  0.00  0.00    +0.257 A 
ATOM      4  O   UNL     1       4.582  -7.010  24.627  0.00  0.00    -0.267 OA
ATOM      5  N   UNL     1       6.112  -6.075  26.016  0.00  0.00    -0.275 N 
ATOM      6  H   UNL     1       5.721  -6.597  26.784  0.00  0.00    +0.173 HD
ATOM      7  C   UNL     1       7.182  -5.269  26.301  0.00  0.00    +0.332 A 
ATOM      8  O   UNL     1       7.609  -5.209  27.452  0.00  0.00    -0.246 OA
ATOM      9  N   UNL     1       7.708  -4.558  25.228  0.00  0.00    -0.270 N 
ATOM     10  C   UNL     1       7.195  -4.720  23.950  0.00  0.00    +0.102 A 
ENDROOT
BRANCH   9  11
ATOM     11  C   UNL     1       8.913  -3.764  25.474  0.00  0.00    +0.248 C 
ATOM     12  O   UNL     1       9.721  -3.665  24.280  0.00  0.00    -0.343 OA
ATOM     13  C   UNL     1       9.794  -2.283  23.860  0.00  0.00    +0.169 C 
ATOM     14  C   UNL     1       9.109  -1.511  24.928  0.00  0.00    +0.007 C 
ATOM     15  C   UNL     1       8.596  -2.350  25.825  0.00  0.00    +0.025 C 
BRANCH  13  16
ATOM     16  C   UNL     1       9.150  -2.111  22.471  0.00  0.00    +0.191 C 
BRANCH  16  17
ATOM     17  O   UNL     1      10.042  -1.609  21.473  0.00  0.00    -0.392 OA
ATOM     18  H   UNL     1      10.801  -1.201  21.916  0.00  0.00    +0.210 HD
ENDBRANCH  16  17
ENDBRANCH  13  16
ENDBRANCH   9  11
TORSDOF 3
ENDMDL
MODEL 4
REMARK VINA RESULT:      -5.9      3.217      4.739
REMARK  Name = 
REMARK  4 active torsions:
REMARK  status: ('A' for Active; 'I' for Inactive)
REMARK    1  A    between atoms: C_1  and  C_2
REMARK    2  A    between atoms: N_4  and  C_10
REMARK    3  A    between atoms: C_14  and  C_17
REMARK    4  A    between atoms: C_17  and  O_18
REMARK                            x       y       z     vdW  Elec       q    Type
REMARK                         _______ _______ _______ _____ _____    ______ ____
ROOT
ATOM      1  C   UNL     1       4.732  -5.097  27.172  0.00  0.00    +0.051 C 
ATOM      2  C   UNL     1       6.089  -5.106  26.547  0.00  0.00    +0.030 A 
ATOM      3  C   UNL     1       7.202  -5.681  27.329  0.00  0.00    +0.257 A 
ATOM      4  O   UNL     1       7.033  -6.182  28.435  0.00  0.00    -0.267 OA
ATOM      5  N   UNL     1       8.430  -5.630  26.736  0.00  0.00    -0.275 N 
ATOM      6  H   UNL     1       9.200  -6.028  27.251  0.00  0.00    +0.173 HD
ATOM      7  C   UNL     1       8.719  -5.108  25.503  0.00  0.00    +0.332 A 
ATOM      8  O   UNL     1       9.875  -5.138  25.085  0.00  0.00    -0.246 OA
ATOM      9  N   UNL     1       7.644  -4.566  24.807  0.00  0.00    -0.270 N 
ATOM     10  C   UNL     1       6.362  -4.617  25.331  0.00  0.00    +0.102 A 
ENDROOT
BRANCH   9  11
ATOM     11  C   UNL     1       7.897  -4.090  23.446  0.00  0.00    +0.248 C 
ATOM     12  O   UNL     1       7.925  -5.190  22.510  0.00  0.00    -0.343 OA
ATOM     13  C   UNL     1       6.841  -5.047  21.563  0.00  0.00    +0.169 C 
ATOM     14  C   UNL     1       6.222  -3.733  21.871  0.00  0.00    +0.007 C 
ATOM     15  C   UNL     1       6.806  -3.205  22.946  0.00  0.00    +0.025 C 
BRANCH  13  16
ATOM     16  C   UNL     1       5.861  -6.230  21.689  0.00  0.00    +0.191 C 
BRANCH  16  17
ATOM     17  O   UNL     1       4.601  -5.884  22.269  0.00  0.00    -0.392 OA
ATOM     18  H   UNL     1       4.764  -5.401  23.094  0.00  0.00    +0.210 HD
ENDBRANCH  16  17
ENDBRANCH  13  16
ENDBRANCH   9  11
TORSDOF 3
ENDMDL
MODEL 5
REMARK VINA RESULT:      -5.6      2.089      5.508
REMARK  Name = 
REMARK  4 active torsions:
REMARK  status: ('A' for Active; 'I' for Inactive)
REMARK    1  A    between atoms: C_1  and  C_2
REMARK    2  A    between atoms: N_4  and  C_10
REMARK    3  A    between atoms: C_14  and  C_17
REMARK    4  A    between atoms: C_17  and  O_18
REMARK                            x       y       z     vdW  Elec       q    Type
REMARK                         _______ _______ _______ _____ _____    ______ ____
ROOT
ATOM      1  C   UNL     1       7.584   0.453  26.349  0.00  0.00    +0.051 C 
ATOM      2  C   UNL     1       8.367  -0.215  25.267  0.00  0.00    +0.030 A 
ATOM      3  C   UNL     1       9.375   0.593  24.549  0.00  0.00    +0.257 A 
ATOM      4  O   UNL     1       9.609   1.759  24.845  0.00  0.00    -0.267 OA
ATOM      5  N   UNL     1      10.037  -0.047  23.541  0.00  0.00    -0.275 N 
ATOM      6  H   UNL     1      10.735   0.486  23.047  0.00  0.00    +0.173 HD
ATOM      7  C   UNL     1       9.860  -1.346  23.145  0.00  0.00    +0.332 A 
ATOM      8  O   UNL     1      10.535  -1.799  22.223  0.00  0.00    -0.246 OA
ATOM      9  N   UNL     1       8.893  -2.065  23.839  0.00  0.00    -0.270 N 
ATOM     10  C   UNL     1       8.208  -1.492  24.899  0.00  0.00    +0.102 A 
ENDROOT
BRANCH   9  11
ATOM     11  C   UNL     1       8.746  -3.484  23.510  0.00  0.00    +0.248 C 
ATOM     12  O   UNL     1       9.423  -4.313  24.481  0.00  0.00    -0.343 OA
ATOM     13  C   UNL     1       8.455  -5.136  25.171  0.00  0.00    +0.169 C 
ATOM     14  C   UNL     1       7.162  -4.879  24.488  0.00  0.00    +0.007 C 
ATOM     15  C   UNL     1       7.325  -3.932  23.566  0.00  0.00    +0.025 C 
BRANCH  13  16
ATOM     16  C   UNL     1       8.432  -4.789  26.673  0.00  0.00    +0.191 C 
BRANCH  16  17
ATOM     17  O   UNL     1       7.941  -5.842  27.507  0.00  0.00    -0.392 OA
ATOM     18  H   UNL     1       8.594  -6.558  27.515  0.00  0.00    +0.210 HD
ENDBRANCH  16  17
ENDBRANCH  13  16
ENDBRANCH   9  11
TORSDOF 3
ENDMDL
MODEL 6
REMARK VINA RESULT:      -5.5      2.306      5.099
REMARK  Name = 
REMARK  4 active torsions:
REMARK  status: ('A' for Active; 'I' for Inactive)
REMARK    1  A    between atoms: C_1  and  C_2
REMARK    2  A    between atoms: N_4  and  C_10
REMARK    3  A    between atoms: C_14  and  C_17
REMARK    4  A    between atoms: C_17  and  O_18
REMARK                            x       y       z     vdW  Elec       q    Type
REMARK                         _______ _______ _______ _____ _____    ______ ____
ROOT
ATOM      1  C   UNL     1       9.795   0.543  21.712  0.00  0.00    +0.051 C 
ATOM      2  C   UNL     1       9.526   0.098  23.112  0.00  0.00    +0.030 A 
ATOM      3  C   UNL     1       9.859   1.032  24.207  0.00  0.00    +0.257 A 
ATOM      4  O   UNL     1      10.297   2.157  23.994  0.00  0.00    -0.267 OA
ATOM      5  N   UNL     1       9.636   0.567  25.470  0.00  0.00    -0.275 N 
ATOM      6  H   UNL     1       9.848   1.196  26.229  0.00  0.00    +0.173 HD
ATOM      7  C   UNL     1       9.138  -0.662  25.811  0.00  0.00    +0.332 A 
ATOM      8  O   UNL     1       8.977  -0.947  26.996  0.00  0.00    -0.246 OA
ATOM      9  N   UNL     1       8.850  -1.515  24.751  0.00  0.00    -0.270 N 
ATOM     10  C   UNL     1       9.016  -1.096  23.439  0.00  0.00    +0.102 A 
ENDROOT
BRANCH   9  11
ATOM     11  C   UNL     1       8.223  -2.798  25.071  0.00  0.00    +0.248 C 
ATOM     12  O   UNL     1       6.789  -2.727  24.914  0.00  0.00    -0.343 OA
ATOM     13  C   UNL     1       6.373  -3.630  23.863  0.00  0.00    +0.169 C 
ATOM     14  C   UNL     1       7.601  -4.367  23.470  0.00  0.00    +0.007 C 
ATOM     15  C   UNL     1       8.646  -3.882  24.138  0.00  0.00    +0.025 C 
BRANCH  13  16
ATOM     16  C   UNL     1       5.734  -2.842  22.702  0.00  0.00    +0.191 C 
BRANCH  16  17
ATOM     17  O   UNL     1       5.532  -3.615  21.516  0.00  0.00    -0.392 OA
ATOM     18  H   UNL     1       4.934  -3.127  20.930  0.00  0.00    +0.210 HD
ENDBRANCH  16  17
ENDBRANCH  13  16
ENDBRANCH   9  11
TORSDOF 3
ENDMDL
MODEL 7
REMARK VINA RESULT:      -5.5      3.426      5.454
REMARK  Name = 
REMARK  4 active torsions:
REMARK  status: ('A' for Active; 'I' for Inactive)
REMARK    1  A    between atoms: C_1  and  C_2
REMARK    2  A    between atoms: N_4  and  C_10
REMARK    3  A    between atoms: C_14  and  C_17
REMARK    4  A    between atoms: C_17  and  O_18
REMARK                            x       y       z     vdW  Elec       q    Type
REMARK                         _______ _______ _______ _____ _____    ______ ____
ROOT
ATOM      1  C   UNL     1       7.239  -5.083  27.111  0.00  0.00    +0.051 C 
ATOM      2  C   UNL     1       6.188  -5.720  26.261  0.00  0.00    +0.030 A 
ATOM      3  C   UNL     1       5.303  -6.718  26.894  0.00  0.00    +0.257 A 
ATOM      4  O   UNL     1       5.379  -6.995  28.086  0.00  0.00    -0.267 OA
ATOM      5  N   UNL     1       4.387  -7.304  26.070  0.00  0.00    -0.275 N 
ATOM      6  H   UNL     1       3.768  -7.980  26.487  0.00  0.00    +0.173 HD
ATOM      7  C   UNL     1       4.213  -7.053  24.735  0.00  0.00    +0.332 A 
ATOM      8  O   UNL     1       3.337  -7.649  24.112  0.00  0.00    -0.246 OA
ATOM      9  N   UNL     1       5.076  -6.116  24.176  0.00  0.00    -0.270 N 
ATOM     10  C   UNL     1       6.006  -5.453  24.962  0.00  0.00    +0.102 A 
ENDROOT
BRANCH   9  11
ATOM     11  C   UNL     1       4.854  -5.749  22.776  0.00  0.00    +0.248 C 
ATOM     12  O   UNL     1       4.630  -4.328  22.644  0.00  0.00    -0.343 OA
ATOM     13  C   UNL     1       5.692  -3.743  21.856  0.00  0.00    +0.169 C 
ATOM     14  C   UNL     1       6.513  -4.890  21.389  0.00  0.00    +0.007 C 
ATOM     15  C   UNL     1       6.050  -6.017  21.927  0.00  0.00    +0.025 C 
BRANCH  13  16
ATOM     16  C   UNL     1       6.486  -2.726  22.699  0.00  0.00    +0.191 C 
BRANCH  16  17
ATOM     17  O   UNL     1       7.848  -2.570  22.294  0.00  0.00    -0.392 OA
ATOM     18  H   UNL     1       8.219  -3.448  22.116  0.00  0.00    +0.210 HD
ENDBRANCH  16  17
ENDBRANCH  13  16
ENDBRANCH   9  11
TORSDOF 3
ENDMDL
MODEL 8
REMARK VINA RESULT:      -5.5      2.574      3.277
REMARK  Name = 
REMARK  4 active torsions:
REMARK  status: ('A' for Active; 'I' for Inactive)
REMARK    1  A    between atoms: C_1  and  C_2
REMARK    2  A    between atoms: N_4  and  C_10
REMARK    3  A    between atoms: C_14  and  C_17
REMARK    4  A    between atoms: C_17  and  O_18
REMARK                            x       y       z     vdW  Elec       q    Type
REMARK                         _______ _______ _______ _____ _____    ______ ____
ROOT
ATOM      1  C   UNL     1       7.215  -0.359  27.100  0.00  0.00    +0.051 C 
ATOM      2  C   UNL     1       8.077  -0.926  26.021  0.00  0.00    +0.030 A 
ATOM      3  C   UNL     1       7.994  -2.379  25.765  0.00  0.00    +0.257 A 
ATOM      4  O   UNL     1       7.216  -3.105  26.373  0.00  0.00    -0.267 OA
ATOM      5  N   UNL     1       8.830  -2.859  24.799  0.00  0.00    -0.275 N 
ATOM      6  H   UNL     1       8.778  -3.846  24.604  0.00  0.00    +0.173 HD
ATOM      7  C   UNL     1       9.720  -2.131  24.056  0.00  0.00    +0.332 A 
ATOM      8  O   UNL     1      10.408  -2.694  23.207  0.00  0.00    -0.246 OA
ATOM      9  N   UNL     1       9.776  -0.770  24.338  0.00  0.00    -0.270 N 
ATOM     10  C   UNL     1       8.929  -0.206  25.280  0.00  0.00    +0.102 A 
ENDROOT
BRANCH   9  11
ATOM     11  C   UNL     1      10.643   0.056  23.496  0.00  0.00    +0.248 C 
ATOM     12  O   UNL     1       9.997   0.371  22.242  0.00  0.00    -0.343 OA
ATOM     13  C   UNL     1       9.795   1.800  22.150  0.00  0.00    +0.169 C 
ATOM     14  C   UNL     1      10.470   2.371  23.343  0.00  0.00    +0.007 C 
ATOM     15  C   UNL     1      10.928   1.383  24.111  0.00  0.00    +0.025 C 
BRANCH  13  16
ATOM     16  C   UNL     1       8.289   2.125  22.084  0.00  0.00    +0.191 C 
BRANCH  16  17
ATOM     17  O   UNL     1       7.998   3.521  21.988  0.00  0.00    -0.392 OA
ATOM     18  H   UNL     1       8.835   4.007  21.932  0.00  0.00    +0.210 HD
ENDBRANCH  16  17
ENDBRANCH  13  16
ENDBRANCH   9  11
TORSDOF 3
ENDMDL
MODEL 9
REMARK VINA RESULT:      -5.5      2.610      3.755
REMARK  Name = 
REMARK  4 active torsions:
REMARK  status: ('A' for Active; 'I' for Inactive)
REMARK    1  A    between atoms: C_1  and  C_2
REMARK    2  A    between atoms: N_4  and  C_10
REMARK    3  A    between atoms: C_14  and  C_17
REMARK    4  A    between atoms: C_17  and  O_18
REMARK                            x       y       z     vdW  Elec       q    Type
REMARK                         _______ _______ _______ _____ _____    ______ ____
ROOT
ATOM      1  C   UNL     1       8.067  -0.797  26.995  0.00  0.00    +0.051 C 
ATOM      2  C   UNL     1       8.717  -1.022  25.670  0.00  0.00    +0.030 A 
ATOM      3  C   UNL     1       9.016  -2.415  25.279  0.00  0.00    +0.257 A 
ATOM      4  O   UNL     1       8.708  -3.371  25.981  0.00  0.00    -0.267 OA
ATOM      5  N   UNL     1       9.647  -2.570  24.079  0.00  0.00    -0.275 N 
ATOM      6  H   UNL     1       9.850  -3.514  23.791  0.00  0.00    +0.173 HD
ATOM      7  C   UNL     1      10.018  -1.572  23.217  0.00  0.00    +0.332 A 
ATOM      8  O   UNL     1      10.574  -1.857  22.159  0.00  0.00    -0.246 OA
ATOM      9  N   UNL     1       9.729  -0.276  23.631  0.00  0.00    -0.270 N 
ATOM     10  C   UNL     1       9.055  -0.045  24.820  0.00  0.00    +0.102 A 
ENDROOT
BRANCH   9  11
ATOM     11  C   UNL     1      10.021   0.809  22.692  0.00  0.00    +0.248 C 
ATOM     12  O   UNL     1       8.950   0.967  21.735  0.00  0.00    -0.343 OA
ATOM     13  C   UNL     1       8.344   2.270  21.900  0.00  0.00    +0.169 C 
ATOM     14  C   UNL     1       9.178   2.967  22.911  0.00  0.00    +0.007 C 
ATOM     15  C   UNL     1      10.110   2.133  23.371  0.00  0.00    +0.025 C 
BRANCH  13  16
ATOM     16  C   UNL     1       6.868   2.124  22.319  0.00  0.00    +0.191 C 
BRANCH  16  17
ATOM     17  O   UNL     1       6.460   0.775  22.559  0.00  0.00    -0.392 OA
ATOM     18  H   UNL     1       5.594   0.787  22.994  0.00  0.00    +0.210 HD
ENDBRANCH  16  17
ENDBRANCH  13  16
ENDBRANCH   9  11
TORSDOF 3
ENDMDL
