MODEL 1
REMARK VINA RESULT:      -6.7      0.000      0.000
REMARK  Name = 
REMARK  13 active torsions:
REMARK  status: ('A' for Active; 'I' for Inactive)
REMARK    1  A    between atoms: C_1  and  C_2
REMARK    2  A    between atoms: C_2  and  C_3
REMARK    3  A    between atoms: C_2  and  C_4
REMARK    4  A    between atoms: C_4  and  C_5
REMARK    5  A    between atoms: C_4  and  N_25
REMARK    6  A    between atoms: C_5  and  O_7
REMARK    7  A    between atoms: O_7  and  C_8
REMARK    8  A    between atoms: C_8  and  C_9
REMARK    9  A    between atoms: C_9  and  C_10
REMARK   10  A    between atoms: C_9  and  O_12
REMARK   11  A    between atoms: C_10  and  O_11
REMARK   12  A    between atoms: O_12  and  C_13
REMARK   13  A    between atoms: C_13  and  N_14
REMARK                            x       y       z     vdW  Elec       q    Type
REMARK                         _______ _______ _______ _____ _____    ______ ____
ROOT
ATOM      1  O   UNL     1       6.765  -1.308  22.923  0.00  0.00    -0.350 OA
ENDROOT
BRANCH   1   2
ATOM      2  C   UNL     1       8.088  -0.730  22.888  0.00  0.00    +0.183 C 
BRANCH   2   3
ATOM      3  C   UNL     1       8.692  -0.522  24.287  0.00  0.00    +0.266 C 
BRANCH   3   4
ATOM      4  O   UNL     1       8.976   0.874  24.508  0.00  0.00    -0.461 OA
BRANCH   4   5
ATOM      5  C   UNL     1      10.196   1.309  24.091  0.00  0.00    +0.324 C 
ATOM      6  O   UNL     1      11.269   0.821  24.426  0.00  0.00    -0.249 OA
BRANCH   5   7
ATOM      7  C   UNL     1      10.067   2.535  23.164  0.00  0.00    +0.163 C 
BRANCH   7   9
ATOM      8  C   UNL     1       9.032   4.798  23.731  0.00  0.00    +0.009 C 
ATOM      9  C   UNL     1       8.760   3.318  23.437  0.00  0.00    +0.010 C 
ATOM     10  C   UNL     1       7.780   3.222  22.259  0.00  0.00    +0.009 C 
ENDBRANCH   7   9
BRANCH   7  11
ATOM     11  N   UNL     1      10.083   2.048  21.758  0.00  0.00    -0.318 NA
ATOM     12  H   UNL     1       9.284   2.444  21.263  0.00  0.00    +0.119 HD
ATOM     13  H   UNL     1      10.897   2.463  21.296  0.00  0.00    +0.119 HD
ENDBRANCH   7  11
ENDBRANCH   5   7
ENDBRANCH   4   5
ENDBRANCH   3   4
ENDBRANCH   2   3
BRANCH   2  14
ATOM     14  C   UNL     1       8.972  -1.676  22.061  0.00  0.00    +0.190 C 
BRANCH  14  15
ATOM     15  O   UNL     1       9.784  -0.919  21.163  0.00  0.00    -0.392 OA
ATOM     16  H   UNL     1      10.391  -1.556  20.744  0.00  0.00    +0.210 HD
ENDBRANCH  14  15
ENDBRANCH   2  14
ENDBRANCH   1   2
BRANCH   1  17
ATOM     17  C   UNL     1       6.775  -2.738  22.882  0.00  0.00    +0.288 C 
BRANCH  17  18
ATOM     18  N   UNL     1       6.415  -3.270  24.181  0.00  0.00    -0.291 N 
ATOM     19  C   UNL     1       7.222  -4.037  24.976  0.00  0.00    +0.171 A 
ATOM     20  N   UNL     1       8.487  -4.445  24.700  0.00  0.00    -0.196 NA
ATOM     21  C   UNL     1       9.020  -5.150  25.663  0.00  0.00    +0.195 A 
ATOM     22  N   UNL     1      10.287  -5.620  25.542  0.00  0.00    -0.329 N 
ATOM     23  H   UNL     1      10.527  -6.471  26.031  0.00  0.00    +0.145 HD
ATOM     24  H   UNL     1      10.642  -5.583  24.592  0.00  0.00    +0.145 HD
ATOM     25  N   UNL     1       8.368  -5.466  26.837  0.00  0.00    -0.293 N 
ATOM     26  H   UNL     1       8.840  -5.986  27.558  0.00  0.00    +0.172 HD
ATOM     27  C   UNL     1       7.076  -5.065  27.157  0.00  0.00    +0.280 A 
ATOM     28  O   UNL     1       6.553  -5.368  28.225  0.00  0.00    -0.265 OA
ATOM     29  C   UNL     1       6.476  -4.274  26.108  0.00  0.00    +0.172 A 
ATOM     30  N   UNL     1       5.248  -3.671  26.038  0.00  0.00    -0.229 NA
ATOM     31  C   UNL     1       5.245  -3.067  24.865  0.00  0.00    +0.203 A 
ENDBRANCH  17  18
ENDBRANCH   1  17
TORSDOF 11
ENDMDL
MODEL 2
REMARK VINA RESULT:      -6.6      2.199      3.160
REMARK  Name = 
REMARK  13 active torsions:
REMARK  status: ('A' for Active; 'I' for Inactive)
REMARK    1  A    between atoms: C_1  and  C_2
REMARK    2  A    between atoms: C_2  and  C_3
REMARK    3  A    between atoms: C_2  and  C_4
REMARK    4  A    between atoms: C_4  and  C_5
REMARK    5  A    between atoms: C_4  and  N_25
REMARK    6  A    between atoms: C_5  and  O_7
REMARK    7  A    between atoms: O_7  and  C_8
REMARK    8  A    between atoms: C_8  and  C_9
REMARK    9  A    between atoms: C_9  and  C_10
REMARK   10  A    between atoms: C_9  and  O_12
REMARK   11  A    between atoms: C_10  and  O_11
REMARK   12  A    between atoms: O_12  and  C_13
REMARK   13  A    between atoms: C_13  and  N_14
REMARK                            x       y       z     vdW  Elec       q    Type
REMARK                         _______ _______ _______ _____ _____    ______ ____
ROOT
ATOM      1  O   UNL     1       4.897  -4.035  22.879  0.00  0.00    -0.350 OA
ENDROOT
BRANCH   1   2
ATOM      2  C   UNL     1       6.115  -3.733  22.164  0.00  0.00    +0.183 C 
BRANCH   2   3
ATOM      3  C   UNL     1       7.018  -2.735  22.909  0.00  0.00    +0.266 C 
BRANCH   3   4
ATOM      4  O   UNL     1       8.297  -2.630  22.254  0.00  0.00    -0.461 OA
BRANCH   4   5
ATOM      5  C   UNL     1       9.372  -2.444  23.068  0.00  0.00    +0.324 C 
ATOM      6  O   UNL     1       9.668  -3.160  24.017  0.00  0.00    -0.249 OA
BRANCH   5   7
ATOM      7  C   UNL     1      10.164  -1.180  22.671  0.00  0.00    +0.163 C 
BRANCH   7   9
ATOM      8  C   UNL     1      10.450   0.140  24.836  0.00  0.00    +0.009 C 
ATOM      9  C   UNL     1       9.716   0.052  23.493  0.00  0.00    +0.010 C 
ATOM     10  C   UNL     1       9.935   1.363  22.724  0.00  0.00    +0.009 C 
ENDBRANCH   7   9
BRANCH   7  11
ATOM     11  N   UNL     1       9.934  -0.934  21.222  0.00  0.00    -0.318 NA
ATOM     12  H   UNL     1      10.817  -1.052  20.723  0.00  0.00    +0.119 HD
ATOM     13  H   UNL     1       9.343  -1.692  20.869  0.00  0.00    +0.119 HD
ENDBRANCH   7  11
ENDBRANCH   5   7
ENDBRANCH   4   5
ENDBRANCH   3   4
ENDBRANCH   2   3
BRANCH   2  14
ATOM     14  C   UNL     1       6.853  -5.062  21.947  0.00  0.00    +0.190 C 
BRANCH  14  15
ATOM     15  O   UNL     1       7.656  -5.362  23.088  0.00  0.00    -0.392 OA
ATOM     16  H   UNL     1       8.298  -4.632  23.167  0.00  0.00    +0.210 HD
ENDBRANCH  14  15
ENDBRANCH   2  14
ENDBRANCH   1   2
BRANCH   1  17
ATOM     17  C   UNL     1       4.826  -3.402  24.159  0.00  0.00    +0.288 C 
BRANCH  17  18
ATOM     18  N   UNL     1       4.736  -4.407  25.200  0.00  0.00    -0.291 N 
ATOM     19  C   UNL     1       5.788  -4.885  25.933  0.00  0.00    +0.171 A 
ATOM     20  N   UNL     1       7.090  -4.522  25.822  0.00  0.00    -0.196 NA
ATOM     21  C   UNL     1       7.868  -5.133  26.678  0.00  0.00    +0.195 A 
ATOM     22  N   UNL     1       9.198  -4.867  26.700  0.00  0.00    -0.329 N 
ATOM     23  H   UNL     1       9.824  -5.596  27.012  0.00  0.00    +0.145 HD
ATOM     24  H   UNL     1       9.525  -4.375  25.875  0.00  0.00    +0.145 HD
ATOM     25  N   UNL     1       7.423  -6.065  27.592  0.00  0.00    -0.293 N 
ATOM     26  H   UNL     1       8.063  -6.481  28.249  0.00  0.00    +0.172 HD
ATOM     27  C   UNL     1       6.099  -6.460  27.738  0.00  0.00    +0.280 A 
ATOM     28  O   UNL     1       5.761  -7.287  28.581  0.00  0.00    -0.265 OA
ATOM     29  C   UNL     1       5.223  -5.785  26.809  0.00  0.00    +0.172 A 
ATOM     30  N   UNL     1       3.865  -5.866  26.643  0.00  0.00    -0.229 NA
ATOM     31  C   UNL     1       3.603  -5.017  25.669  0.00  0.00    +0.203 A 
ENDBRANCH  17  18
ENDBRANCH   1  17
TORSDOF 11
ENDMDL
MODEL 3
REMARK VINA RESULT:      -6.5      1.566      1.967
REMARK  Name = 
REMARK  13 active torsions:
REMARK  status: ('A' for Active; 'I' for Inactive)
REMARK    1  A    between atoms: C_1  and  C_2
REMARK    2  A    between atoms: C_2  and  C_3
REMARK    3  A    between atoms: C_2  and  C_4
REMARK    4  A    between atoms: C_4  and  C_5
REMARK    5  A    between atoms: C_4  and  N_25
REMARK    6  A    between atoms: C_5  and  O_7
REMARK    7  A    between atoms: O_7  and  C_8
REMARK    8  A    between atoms: C_8  and  C_9
REMARK    9  A    between atoms: C_9  and  C_10
REMARK   10  A    between atoms: C_9  and  O_12
REMARK   11  A    between atoms: C_10  and  O_11
REMARK   12  A    between atoms: O_12  and  C_13
REMARK   13  A    between atoms: C_13  and  N_14
REMARK                            x       y       z     vdW  Elec       q    Type
REMARK                         _______ _______ _______ _____ _____    ______ ____
ROOT
ATOM      1  O   UNL     1       7.921  -1.848  22.618  0.00  0.00    -0.350 OA
ENDROOT
BRANCH   1   2
ATOM      2  C   UNL     1       9.218  -1.607  22.032  0.00  0.00    +0.183 C 
BRANCH   2   3
ATOM      3  C   UNL     1       9.339  -0.215  21.388  0.00  0.00    +0.266 C 
BRANCH   3   4
ATOM      4  O   UNL     1       9.544   0.790  22.400  0.00  0.00    -0.461 OA
BRANCH   4   5
ATOM      5  C   UNL     1       8.461   1.553  22.712  0.00  0.00    +0.324 C 
ATOM      6  O   UNL     1       7.550   1.829  21.942  0.00  0.00    -0.249 OA
BRANCH   5   7
ATOM      7  C   UNL     1       8.540   2.070  24.164  0.00  0.00    +0.163 C 
BRANCH   7   9
ATOM      8  C   UNL     1       8.081   4.139  25.586  0.00  0.00    +0.009 C 
ATOM      9  C   UNL     1       8.532   3.616  24.217  0.00  0.00    +0.010 C 
ATOM     10  C   UNL     1       9.912   4.206  23.895  0.00  0.00    +0.009 C 
ENDBRANCH   7   9
BRANCH   7  11
ATOM     11  N   UNL     1       9.796   1.547  24.767  0.00  0.00    -0.318 NA
ATOM     12  H   UNL     1      10.497   2.288  24.762  0.00  0.00    +0.119 HD
ATOM     13  H   UNL     1       9.615   1.378  25.760  0.00  0.00    +0.119 HD
ENDBRANCH   7  11
ENDBRANCH   5   7
ENDBRANCH   4   5
ENDBRANCH   3   4
ENDBRANCH   2   3
BRANCH   2  14
ATOM     14  C   UNL     1      10.258  -1.770  23.151  0.00  0.00    +0.190 C 
BRANCH  14  15
ATOM     15  O   UNL     1       9.646  -1.534  24.418  0.00  0.00    -0.392 OA
ATOM     16  H   UNL     1       8.687  -1.642  24.281  0.00  0.00    +0.210 HD
ENDBRANCH  14  15
ENDBRANCH   2  14
ENDBRANCH   1   2
BRANCH   1  17
ATOM     17  C   UNL     1       7.327  -3.075  22.184  0.00  0.00    +0.288 C 
BRANCH  17  18
ATOM     18  N   UNL     1       6.730  -3.759  23.314  0.00  0.00    -0.291 N 
ATOM     19  C   UNL     1       7.417  -4.439  24.282  0.00  0.00    +0.171 A 
ATOM     20  N   UNL     1       8.761  -4.606  24.362  0.00  0.00    -0.196 NA
ATOM     21  C   UNL     1       9.132  -5.285  25.417  0.00  0.00    +0.195 A 
ATOM     22  N   UNL     1      10.447  -5.525  25.645  0.00  0.00    -0.329 N 
ATOM     23  H   UNL     1      10.697  -6.360  26.158  0.00  0.00    +0.145 HD
ATOM     24  H   UNL     1      11.035  -5.355  24.835  0.00  0.00    +0.145 HD
ATOM     25  N   UNL     1       8.254  -5.797  26.351  0.00  0.00    -0.293 N 
ATOM     26  H   UNL     1       8.599  -6.284  27.161  0.00  0.00    +0.172 HD
ATOM     27  C   UNL     1       6.873  -5.643  26.305  0.00  0.00    +0.280 A 
ATOM     28  O   UNL     1       6.143  -6.112  27.173  0.00  0.00    -0.265 OA
ATOM     29  C   UNL     1       6.447  -4.885  25.152  0.00  0.00    +0.172 A 
ATOM     30  N   UNL     1       5.195  -4.493  24.755  0.00  0.00    -0.229 NA
ATOM     31  C   UNL     1       5.402  -3.809  23.646  0.00  0.00    +0.203 A 
ENDBRANCH  17  18
ENDBRANCH   1  17
TORSDOF 11
ENDMDL
MODEL 4
REMARK VINA RESULT:      -6.4      1.259      1.498
REMARK  Name = 
REMARK  13 active torsions:
REMARK  status: ('A' for Active; 'I' for Inactive)
REMARK    1  A    between atoms: C_1  and  C_2
REMARK    2  A    between atoms: C_2  and  C_3
REMARK    3  A    between atoms: C_2  and  C_4
REMARK    4  A    between atoms: C_4  and  C_5
REMARK    5  A    between atoms: C_4  and  N_25
REMARK    6  A    between atoms: C_5  and  O_7
REMARK    7  A    between atoms: O_7  and  C_8
REMARK    8  A    between atoms: C_8  and  C_9
REMARK    9  A    between atoms: C_9  and  C_10
REMARK   10  A    between atoms: C_9  and  O_12
REMARK   11  A    between atoms: C_10  and  O_11
REMARK   12  A    between atoms: O_12  and  C_13
REMARK   13  A    between atoms: C_13  and  N_14
REMARK                            x       y       z     vdW  Elec       q    Type
REMARK                         _______ _______ _______ _____ _____    ______ ____
ROOT
ATOM      1  O   UNL     1       7.080  -0.848  24.075  0.00  0.00    -0.350 OA
ENDROOT
BRANCH   1   2
ATOM      2  C   UNL     1       7.989  -1.081  22.977  0.00  0.00    +0.183 C 
BRANCH   2   3
ATOM      3  C   UNL     1       9.454  -1.211  23.426  0.00  0.00    +0.266 C 
BRANCH   3   4
ATOM      4  O   UNL     1      10.234  -0.109  22.922  0.00  0.00    -0.461 OA
BRANCH   4   5
ATOM      5  C   UNL     1      10.606   0.827  23.837  0.00  0.00    +0.324 C 
ATOM      6  O   UNL     1      11.005   0.584  24.969  0.00  0.00    -0.249 OA
BRANCH   5   7
ATOM      7  C   UNL     1      10.425   2.256  23.282  0.00  0.00    +0.163 C 
BRANCH   7   9
ATOM      8  C   UNL     1       9.473   4.534  23.928  0.00  0.00    +0.009 C 
ATOM      9  C   UNL     1       9.298   3.014  24.025  0.00  0.00    +0.010 C 
ATOM     10  C   UNL     1       7.909   2.642  23.489  0.00  0.00    +0.009 C 
ENDBRANCH   7   9
BRANCH   7  11
ATOM     11  N   UNL     1      10.094   2.145  21.836  0.00  0.00    -0.318 NA
ATOM     12  H   UNL     1      10.790   2.663  21.298  0.00  0.00    +0.119 HD
ATOM     13  H   UNL     1      10.237   1.170  21.560  0.00  0.00    +0.119 HD
ENDBRANCH   7  11
ENDBRANCH   5   7
ENDBRANCH   4   5
ENDBRANCH   3   4
ENDBRANCH   2   3
BRANCH   2  14
ATOM     14  C   UNL     1       7.529  -2.367  22.274  0.00  0.00    +0.190 C 
BRANCH  14  15
ATOM     15  O   UNL     1       8.163  -3.498  22.871  0.00  0.00    -0.392 OA
ATOM     16  H   UNL     1       7.477  -3.945  23.400  0.00  0.00    +0.210 HD
ENDBRANCH  14  15
ENDBRANCH   2  14
ENDBRANCH   1   2
BRANCH   1  17
ATOM     17  C   UNL     1       7.702  -0.980  25.356  0.00  0.00    +0.288 C 
BRANCH  17  18
ATOM     18  N   UNL     1       7.113  -2.091  26.076  0.00  0.00    -0.291 N 
ATOM     19  C   UNL     1       7.675  -3.330  26.220  0.00  0.00    +0.171 A 
ATOM     20  N   UNL     1       8.864  -3.748  25.719  0.00  0.00    -0.196 NA
ATOM     21  C   UNL     1       9.152  -4.982  26.042  0.00  0.00    +0.195 A 
ATOM     22  N   UNL     1      10.315  -5.542  25.626  0.00  0.00    -0.329 N 
ATOM     23  H   UNL     1      10.340  -6.544  25.492  0.00  0.00    +0.145 HD
ATOM     24  H   UNL     1      10.771  -5.021  24.884  0.00  0.00    +0.145 HD
ATOM     25  N   UNL     1       8.330  -5.791  26.802  0.00  0.00    -0.293 N 
ATOM     26  H   UNL     1       8.618  -6.723  27.047  0.00  0.00    +0.172 HD
ATOM     27  C   UNL     1       7.109  -5.397  27.335  0.00  0.00    +0.280 A 
ATOM     28  O   UNL     1       6.427  -6.159  28.015  0.00  0.00    -0.265 OA
ATOM     29  C   UNL     1       6.780  -4.032  26.998  0.00  0.00    +0.172 A 
ATOM     30  N   UNL     1       5.699  -3.264  27.341  0.00  0.00    -0.229 NA
ATOM     31  C   UNL     1       5.934  -2.095  26.775  0.00  0.00    +0.203 A 
ENDBRANCH  17  18
ENDBRANCH   1  17
TORSDOF 11
ENDMDL
MODEL 5
REMARK VINA RESULT:      -6.4      2.236      3.134
REMARK  Name = 
REMARK  13 active torsions:
REMARK  status: ('A' for Active; 'I' for Inactive)
REMARK    1  A    between atoms: C_1  and  C_2
REMARK    2  A    between atoms: C_2  and  C_3
REMARK    3  A    between atoms: C_2  and  C_4
REMARK    4  A    between atoms: C_4  and  C_5
REMARK    5  A    between atoms: C_4  and  N_25
REMARK    6  A    between atoms: C_5  and  O_7
REMARK    7  A    between atoms: O_7  and  C_8
REMARK    8  A    between atoms: C_8  and  C_9
REMARK    9  A    between atoms: C_9  and  C_10
REMARK   10  A    between atoms: C_9  and  O_12
REMARK   11  A    between atoms: C_10  and  O_11
REMARK   12  A    between atoms: O_12  and  C_13
REMARK   13  A    between atoms: C_13  and  N_14
REMARK                            x       y       z     vdW  Elec       q    Type
REMARK                         _______ _______ _______ _____ _____    ______ ____
ROOT
ATOM      1  O   UNL     1       8.099  -2.270  25.577  0.00  0.00    -0.350 OA
ENDROOT
BRANCH   1   2
ATOM      2  C   UNL     1       8.293  -1.320  24.507  0.00  0.00    +0.183 C 
BRANCH   2   3
ATOM      3  C   UNL     1       9.489  -1.667  23.604  0.00  0.00    +0.266 C 
BRANCH   3   4
ATOM      4  O   UNL     1      10.193  -0.470  23.220  0.00  0.00    -0.461 OA
BRANCH   4   5
ATOM      5  C   UNL     1       9.814   0.094  22.041  0.00  0.00    +0.324 C 
ATOM      6  O   UNL     1       9.397  -0.522  21.068  0.00  0.00    -0.249 OA
BRANCH   5   7
ATOM      7  C   UNL     1      10.012   1.625  22.063  0.00  0.00    +0.163 C 
BRANCH   7   9
ATOM      8  C   UNL     1      11.226   3.371  23.475  0.00  0.00    +0.009 C 
ATOM      9  C   UNL     1      10.315   2.137  23.492  0.00  0.00    +0.010 C 
ATOM     10  C   UNL     1       9.031   2.483  24.259  0.00  0.00    +0.009 C 
ENDBRANCH   7   9
BRANCH   7  11
ATOM     11  N   UNL     1       8.766   2.254  21.552  0.00  0.00    -0.318 NA
ATOM     12  H   UNL     1       8.525   3.045  22.151  0.00  0.00    +0.119 HD
ATOM     13  H   UNL     1       8.983   2.681  20.646  0.00  0.00    +0.119 HD
ENDBRANCH   7  11
ENDBRANCH   5   7
ENDBRANCH   4   5
ENDBRANCH   3   4
ENDBRANCH   2   3
BRANCH   2  14
ATOM     14  C   UNL     1       6.995  -1.292  23.686  0.00  0.00    +0.190 C 
BRANCH  14  15
ATOM     15  O   UNL     1       7.173  -2.023  22.473  0.00  0.00    -0.392 OA
ATOM     16  H   UNL     1       6.973  -2.953  22.686  0.00  0.00    +0.210 HD
ENDBRANCH  14  15
ENDBRANCH   2  14
ENDBRANCH   1   2
BRANCH   1  17
ATOM     17  C   UNL     1       8.571  -3.581  25.257  0.00  0.00    +0.288 C 
BRANCH  17  18
ATOM     18  N   UNL     1       7.499  -4.543  25.419  0.00  0.00    -0.291 N 
ATOM     19  C   UNL     1       6.781  -5.109  24.402  0.00  0.00    +0.171 A 
ATOM     20  N   UNL     1       6.927  -4.876  23.073  0.00  0.00    -0.196 NA
ATOM     21  C   UNL     1       6.113  -5.584  22.335  0.00  0.00    +0.195 A 
ATOM     22  N   UNL     1       6.146  -5.471  20.983  0.00  0.00    -0.329 N 
ATOM     23  H   UNL     1       5.294  -5.650  20.469  0.00  0.00    +0.145 HD
ATOM     24  H   UNL     1       6.653  -4.654  20.659  0.00  0.00    +0.145 HD
ATOM     25  N   UNL     1       5.184  -6.468  22.844  0.00  0.00    -0.293 N 
ATOM     26  H   UNL     1       4.605  -7.011  22.226  0.00  0.00    +0.172 HD
ATOM     27  C   UNL     1       5.007  -6.736  24.196  0.00  0.00    +0.280 A 
ATOM     28  O   UNL     1       4.171  -7.545  24.589  0.00  0.00    -0.265 OA
ATOM     29  C   UNL     1       5.908  -5.972  25.027  0.00  0.00    +0.172 A 
ATOM     30  N   UNL     1       6.074  -5.960  26.386  0.00  0.00    -0.229 NA
ATOM     31  C   UNL     1       7.047  -5.092  26.590  0.00  0.00    +0.203 A 
ENDBRANCH  17  18
ENDBRANCH   1  17
TORSDOF 11
ENDMDL
MODEL 6
REMARK VINA RESULT:      -6.3      1.611      2.338
REMARK  Name = 
REMARK  13 active torsions:
REMARK  status: ('A' for Active; 'I' for Inactive)
REMARK    1  A    between atoms: C_1  and  C_2
REMARK    2  A    between atoms: C_2  and  C_3
REMARK    3  A    between atoms: C_2  and  C_4
REMARK    4  A    between atoms: C_4  and  C_5
REMARK    5  A    between atoms: C_4  and  N_25
REMARK    6  A    between atoms: C_5  and  O_7
REMARK    7  A    between atoms: O_7  and  C_8
REMARK    8  A    between atoms: C_8  and  C_9
REMARK    9  A    between atoms: C_9  and  C_10
REMARK   10  A    between atoms: C_9  and  O_12
REMARK   11  A    between atoms: C_10  and  O_11
REMARK   12  A    between atoms: O_12  and  C_13
REMARK   13  A    between atoms: C_13  and  N_14
REMARK                            x       y       z     vdW  Elec       q    Type
REMARK                         _______ _______ _______ _____ _____    ______ ____
ROOT
ATOM      1  O   UNL     1       7.867  -2.397  23.613  0.00  0.00    -0.350 OA
ENDROOT
BRANCH   1   2
ATOM      2  C   UNL     1       8.695  -1.230  23.420  0.00  0.00    +0.183 C 
BRANCH   2   3
ATOM      3  C   UNL     1       9.210  -0.632  24.740  0.00  0.00    +0.266 C 
BRANCH   3   4
ATOM      4  O   UNL     1       9.146   0.807  24.699  0.00  0.00    -0.461 OA
BRANCH   4   5
ATOM      5  C   UNL     1      10.184   1.434  24.084  0.00  0.00    +0.324 C 
ATOM      6  O   UNL     1      11.369   1.237  24.326  0.00  0.00    -0.249 OA
BRANCH   5   7
ATOM      7  C   UNL     1       9.683   2.471  23.056  0.00  0.00    +0.163 C 
BRANCH   7   9
ATOM      8  C   UNL     1       7.660   4.020  23.197  0.00  0.00    +0.009 C 
ATOM      9  C   UNL     1       8.138   2.570  23.057  0.00  0.00    +0.010 C 
ATOM     10  C   UNL     1       7.526   1.970  21.784  0.00  0.00    +0.009 C 
ENDBRANCH   7   9
BRANCH   7  11
ATOM     11  N   UNL     1      10.164   2.050  21.712  0.00  0.00    -0.318 NA
ATOM     12  H   UNL     1      10.354   2.883  21.154  0.00  0.00    +0.119 HD
ATOM     13  H   UNL     1      11.082   1.614  21.835  0.00  0.00    +0.119 HD
ENDBRANCH   7  11
ENDBRANCH   5   7
ENDBRANCH   4   5
ENDBRANCH   3   4
ENDBRANCH   2   3
BRANCH   2  14
ATOM     14  C   UNL     1       9.874  -1.654  22.530  0.00  0.00    +0.190 C 
BRANCH  14  15
ATOM     15  O   UNL     1       9.817  -0.956  21.287  0.00  0.00    -0.392 OA
ATOM     16  H   UNL     1      10.387  -0.171  21.390  0.00  0.00    +0.210 HD
ENDBRANCH  14  15
ENDBRANCH   2  14
ENDBRANCH   1   2
BRANCH   1  17
ATOM     17  C   UNL     1       8.618  -3.575  23.918  0.00  0.00    +0.288 C 
BRANCH  17  18
ATOM     18  N   UNL     1       8.032  -4.250  25.059  0.00  0.00    -0.291 N 
ATOM     19  C   UNL     1       6.921  -5.048  25.023  0.00  0.00    +0.171 A 
ATOM     20  N   UNL     1       6.168  -5.348  23.935  0.00  0.00    -0.196 NA
ATOM     21  C   UNL     1       5.178  -6.159  24.204  0.00  0.00    +0.195 A 
ATOM     22  N   UNL     1       4.340  -6.563  23.216  0.00  0.00    -0.329 N 
ATOM     23  H   UNL     1       3.390  -6.800  23.465  0.00  0.00    +0.145 HD
ATOM     24  H   UNL     1       4.412  -6.003  22.372  0.00  0.00    +0.145 HD
ATOM     25  N   UNL     1       4.909  -6.654  25.464  0.00  0.00    -0.293 N 
ATOM     26  H   UNL     1       4.152  -7.302  25.605  0.00  0.00    +0.172 HD
ATOM     27  C   UNL     1       5.659  -6.374  26.600  0.00  0.00    +0.280 A 
ATOM     28  O   UNL     1       5.377  -6.855  27.693  0.00  0.00    -0.265 OA
ATOM     29  C   UNL     1       6.764  -5.488  26.319  0.00  0.00    +0.172 A 
ATOM     30  N   UNL     1       7.743  -4.995  27.141  0.00  0.00    -0.229 NA
ATOM     31  C   UNL     1       8.496  -4.257  26.347  0.00  0.00    +0.203 A 
ENDBRANCH  17  18
ENDBRANCH   1  17
TORSDOF 11
ENDMDL
MODEL 7
REMARK VINA RESULT:      -6.1      1.920      2.878
REMARK  Name = 
REMARK  13 active torsions:
REMARK  status: ('A' for Active; 'I' for Inactive)
REMARK    1  A    between atoms: C_1  and  C_2
REMARK    2  A    between atoms: C_2  and  C_3
REMARK    3  A    between atoms: C_2  and  C_4
REMARK    4  A    between atoms: C_4  and  C_5
REMARK    5  A    between atoms: C_4  and  N_25
REMARK    6  A    between atoms: C_5  and  O_7
REMARK    7  A    between atoms: O_7  and  C_8
REMARK    8  A    between atoms: C_8  and  C_9
REMARK    9  A    between atoms: C_9  and  C_10
REMARK   10  A    between atoms: C_9  and  O_12
REMARK   11  A    between atoms: C_10  and  O_11
REMARK   12  A    between atoms: O_12  and  C_13
REMARK   13  A    between atoms: C_13  and  N_14
REMARK                            x       y       z     vdW  Elec       q    Type
REMARK                         _______ _______ _______ _____ _____    ______ ____
ROOT
ATOM      1  O   UNL     1       8.811  -2.700  24.397  0.00  0.00    -0.350 OA
ENDROOT
BRANCH   1   2
ATOM      2  C   UNL     1       8.704  -2.246  23.031  0.00  0.00    +0.183 C 
BRANCH   2   3
ATOM      3  C   UNL     1       7.621  -1.170  22.837  0.00  0.00    +0.266 C 
BRANCH   3   4
ATOM      4  O   UNL     1       7.951   0.015  23.586  0.00  0.00    -0.461 OA
BRANCH   4   5
ATOM      5  C   UNL     1       7.878   1.192  22.905  0.00  0.00    +0.324 C 
ATOM      6  O   UNL     1       6.893   1.594  22.300  0.00  0.00    -0.249 OA
BRANCH   5   7
ATOM      7  C   UNL     1       9.221   1.952  22.955  0.00  0.00    +0.163 C 
BRANCH   7   9
ATOM      8  C   UNL     1       8.426   3.313  24.962  0.00  0.00    +0.009 C 
ATOM      9  C   UNL     1       9.051   3.365  23.563  0.00  0.00    +0.010 C 
ATOM     10  C   UNL     1      10.388   4.115  23.649  0.00  0.00    +0.009 C 
ENDBRANCH   7   9
BRANCH   7  11
ATOM     11  N   UNL     1       9.738   2.056  21.564  0.00  0.00    -0.318 NA
ATOM     12  H   UNL     1      10.534   2.695  21.555  0.00  0.00    +0.119 HD
ATOM     13  H   UNL     1      10.140   1.149  21.314  0.00  0.00    +0.119 HD
ENDBRANCH   7  11
ENDBRANCH   5   7
ENDBRANCH   4   5
ENDBRANCH   3   4
ENDBRANCH   2   3
BRANCH   2  14
ATOM     14  C   UNL     1      10.080  -1.696  22.627  0.00  0.00    +0.190 C 
BRANCH  14  15
ATOM     15  O   UNL     1       9.996  -1.074  21.346  0.00  0.00    -0.392 OA
ATOM     16  H   UNL     1      10.850  -1.243  20.906  0.00  0.00    +0.210 HD
ENDBRANCH  14  15
ENDBRANCH   2  14
ENDBRANCH   1   2
BRANCH   1  17
ATOM     17  C   UNL     1       9.092  -4.099  24.504  0.00  0.00    +0.288 C 
BRANCH  17  18
ATOM     18  N   UNL     1       8.179  -4.713  25.447  0.00  0.00    -0.291 N 
ATOM     19  C   UNL     1       6.978  -5.287  25.131  0.00  0.00    +0.171 A 
ATOM     20  N   UNL     1       6.420  -5.381  23.898  0.00  0.00    -0.196 NA
ATOM     21  C   UNL     1       5.272  -6.007  23.901  0.00  0.00    +0.195 A 
ATOM     22  N   UNL     1       4.595  -6.193  22.740  0.00  0.00    -0.329 N 
ATOM     23  H   UNL     1       3.587  -6.262  22.783  0.00  0.00    +0.145 HD
ATOM     24  H   UNL     1       4.931  -5.612  21.979  0.00  0.00    +0.145 HD
ATOM     25  N   UNL     1       4.672  -6.510  25.037  0.00  0.00    -0.293 N 
ATOM     26  H   UNL     1       3.802  -7.012  24.974  0.00  0.00    +0.172 HD
ATOM     27  C   UNL     1       5.214  -6.436  26.315  0.00  0.00    +0.280 A 
ATOM     28  O   UNL     1       4.638  -6.915  27.288  0.00  0.00    -0.265 OA
ATOM     29  C   UNL     1       6.489  -5.758  26.329  0.00  0.00    +0.172 A 
ATOM     30  N   UNL     1       7.352  -5.502  27.362  0.00  0.00    -0.229 NA
ATOM     31  C   UNL     1       8.365  -4.876  26.795  0.00  0.00    +0.203 A 
ENDBRANCH  17  18
ENDBRANCH   1  17
TORSDOF 11
ENDMDL
MODEL 8
REMARK VINA RESULT:      -6.1      2.047      2.689
REMARK  Name = 
REMARK  13 active torsions:
REMARK  status: ('A' for Active; 'I' for Inactive)
REMARK    1  A    between atoms: C_1  and  C_2
REMARK    2  A    between atoms: C_2  and  C_3
REMARK    3  A    between atoms: C_2  and  C_4
REMARK    4  A    between atoms: C_4  and  C_5
REMARK    5  A    between atoms: C_4  and  N_25
REMARK    6  A    between atoms: C_5  and  O_7
REMARK    7  A    between atoms: O_7  and  C_8
REMARK    8  A    between atoms: C_8  and  C_9
REMARK    9  A    between atoms: C_9  and  C_10
REMARK   10  A    between atoms: C_9  and  O_12
REMARK   11  A    between atoms: C_10  and  O_11
REMARK   12  A    between atoms: O_12  and  C_13
REMARK   13  A    between atoms: C_13  and  N_14
REMARK                            x       y       z     vdW  Elec       q    Type
REMARK                         _______ _______ _______ _____ _____    ______ ____
ROOT
ATOM      1  O   UNL     1       9.972  -0.684  23.336  0.00  0.00    -0.350 OA
ENDROOT
BRANCH   1   2
ATOM      2  C   UNL     1       9.377   0.630  23.264  0.00  0.00    +0.183 C 
BRANCH   2   3
ATOM      3  C   UNL     1      10.153   1.688  24.067  0.00  0.00    +0.266 C 
BRANCH   3   4
ATOM      4  O   UNL     1       9.276   2.760  24.465  0.00  0.00    -0.461 OA
BRANCH   4   5
ATOM      5  C   UNL     1       9.565   3.988  23.956  0.00  0.00    +0.324 C 
ATOM      6  O   UNL     1      10.682   4.368  23.626  0.00  0.00    -0.249 OA
BRANCH   5   7
ATOM      7  C   UNL     1       8.303   4.873  23.879  0.00  0.00    +0.163 C 
BRANCH   7   9
ATOM      8  C   UNL     1       6.354   3.931  22.528  0.00  0.00    +0.009 C 
ATOM      9  C   UNL     1       7.628   4.782  22.489  0.00  0.00    +0.010 C 
ATOM     10  C   UNL     1       7.278   6.169  21.932  0.00  0.00    +0.009 C 
ENDBRANCH   7   9
BRANCH   7  11
ATOM     11  N   UNL     1       8.713   6.277  24.154  0.00  0.00    -0.318 NA
ATOM     12  H   UNL     1       8.173   6.902  23.554  0.00  0.00    +0.119 HD
ATOM     13  H   UNL     1       8.404   6.509  25.102  0.00  0.00    +0.119 HD
ENDBRANCH   7  11
ENDBRANCH   5   7
ENDBRANCH   4   5
ENDBRANCH   3   4
ENDBRANCH   2   3
BRANCH   2  14
ATOM     14  C   UNL     1       9.322   1.021  21.780  0.00  0.00    +0.190 C 
BRANCH  14  15
ATOM     15  O   UNL     1      10.218   2.104  21.531  0.00  0.00    -0.392 OA
ATOM     16  H   UNL     1       9.689   2.799  21.098  0.00  0.00    +0.210 HD
ENDBRANCH  14  15
ENDBRANCH   2  14
ENDBRANCH   1   2
BRANCH   1  17
ATOM     17  C   UNL     1       9.465  -1.585  22.348  0.00  0.00    +0.288 C 
BRANCH  17  18
ATOM     18  N   UNL     1       8.335  -2.317  22.884  0.00  0.00    -0.291 N 
ATOM     19  C   UNL     1       8.412  -3.357  23.771  0.00  0.00    +0.171 A 
ATOM     20  N   UNL     1       9.540  -3.895  24.299  0.00  0.00    -0.196 NA
ATOM     21  C   UNL     1       9.300  -4.866  25.141  0.00  0.00    +0.195 A 
ATOM     22  N   UNL     1      10.326  -5.498  25.763  0.00  0.00    -0.329 N 
ATOM     23  H   UNL     1      10.195  -6.461  26.039  0.00  0.00    +0.145 HD
ATOM     24  H   UNL     1      11.229  -5.316  25.338  0.00  0.00    +0.145 HD
ATOM     25  N   UNL     1       8.034  -5.317  25.455  0.00  0.00    -0.293 N 
ATOM     26  H   UNL     1       7.907  -6.048  26.135  0.00  0.00    +0.172 HD
ATOM     27  C   UNL     1       6.856  -4.790  24.937  0.00  0.00    +0.280 A 
ATOM     28  O   UNL     1       5.756  -5.226  25.265  0.00  0.00    -0.265 OA
ATOM     29  C   UNL     1       7.103  -3.706  24.014  0.00  0.00    +0.172 A 
ATOM     30  N   UNL     1       6.230  -2.913  23.318  0.00  0.00    -0.229 NA
ATOM     31  C   UNL     1       7.007  -2.080  22.650  0.00  0.00    +0.203 A 
ENDBRANCH  17  18
ENDBRANCH   1  17
TORSDOF 11
ENDMDL
MODEL 9
REMARK VINA RESULT:      -6.0      2.593      8.167
REMARK  Name = 
REMARK  13 active torsions:
REMARK  status: ('A' for Active; 'I' for Inactive)
REMARK    1  A    between atoms: C_1  and  C_2
REMARK    2  A    between atoms: C_2  and  C_3
REMARK    3  A    between atoms: C_2  and  C_4
REMARK    4  A    between atoms: C_4  and  C_5
REMARK    5  A    between atoms: C_4  and  N_25
REMARK    6  A    between atoms: C_5  and  O_7
REMARK    7  A    between atoms: O_7  and  C_8
REMARK    8  A    between atoms: C_8  and  C_9
REMARK    9  A    between atoms: C_9  and  C_10
REMARK   10  A    between atoms: C_9  and  O_12
REMARK   11  A    between atoms: C_10  and  O_11
REMARK   12  A    between atoms: O_12  and  C_13
REMARK   13  A    between atoms: C_13  and  N_14
REMARK                            x       y       z     vdW  Elec       q    Type
REMARK                         _______ _______ _______ _____ _____    ______ ____
ROOT
ATOM      1  O   UNL     1       9.259   0.371  23.223  0.00  0.00    -0.350 OA
ENDROOT
BRANCH   1   2
ATOM      2  C   UNL     1      10.047  -0.731  23.722  0.00  0.00    +0.183 C 
BRANCH   2   3
ATOM      3  C   UNL     1       9.244  -1.689  24.618  0.00  0.00    +0.266 C 
BRANCH   3   4
ATOM      4  O   UNL     1       9.619  -3.055  24.356  0.00  0.00    -0.461 OA
BRANCH   4   5
ATOM      5  C   UNL     1       8.603  -3.905  24.045  0.00  0.00    +0.324 C 
ATOM      6  O   UNL     1       7.680  -3.649  23.281  0.00  0.00    -0.249 OA
BRANCH   5   7
ATOM      7  C   UNL     1       8.732  -5.238  24.813  0.00  0.00    +0.163 C 
BRANCH   7   9
ATOM      8  C   UNL     1       7.679  -4.030  26.800  0.00  0.00    +0.009 C 
ATOM      9  C   UNL     1       7.715  -5.323  25.977  0.00  0.00    +0.010 C 
ATOM     10  C   UNL     1       6.297  -5.628  25.475  0.00  0.00    +0.009 C 
ENDBRANCH   7   9
BRANCH   7  11
ATOM     11  N   UNL     1      10.119  -5.326  25.343  0.00  0.00    -0.318 NA
ATOM     12  H   UNL     1      10.704  -5.807  24.658  0.00  0.00    +0.119 HD
ATOM     13  H   UNL     1      10.499  -4.376  25.377  0.00  0.00    +0.119 HD
ENDBRANCH   7  11
ENDBRANCH   5   7
ENDBRANCH   4   5
ENDBRANCH   3   4
ENDBRANCH   2   3
BRANCH   2  14
ATOM     14  C   UNL     1      10.601  -1.481  22.501  0.00  0.00    +0.190 C 
BRANCH  14  15
ATOM     15  O   UNL     1       9.539  -1.787  21.599  0.00  0.00    -0.392 OA
ATOM     16  H   UNL     1       8.818  -1.166  21.808  0.00  0.00    +0.210 HD
ENDBRANCH  14  15
ENDBRANCH   2  14
ENDBRANCH   1   2
BRANCH   1  17
ATOM     17  C   UNL     1      10.052   1.421  22.663  0.00  0.00    +0.288 C 
BRANCH  17  18
ATOM     18  N   UNL     1       9.668   2.692  23.246  0.00  0.00    -0.291 N 
ATOM     19  C   UNL     1      10.502   3.758  23.443  0.00  0.00    +0.171 A 
ATOM     20  N   UNL     1      11.824   3.825  23.145  0.00  0.00    -0.196 NA
ATOM     21  C   UNL     1      12.355   4.986  23.425  0.00  0.00    +0.195 A 
ATOM     22  N   UNL     1      13.668   5.214  23.172  0.00  0.00    -0.329 N 
ATOM     23  H   UNL     1      14.155   5.884  23.751  0.00  0.00    +0.145 HD
ATOM     24  H   UNL     1      14.199   4.366  22.998  0.00  0.00    +0.145 HD
ATOM     25  N   UNL     1      11.656   6.038  23.982  0.00  0.00    -0.293 N 
ATOM     26  H   UNL     1      12.110   6.921  24.147  0.00  0.00    +0.172 HD
ATOM     27  C   UNL     1      10.303   6.009  24.298  0.00  0.00    +0.280 A 
ATOM     28  O   UNL     1       9.733   6.983  24.781  0.00  0.00    -0.265 OA
ATOM     29  C   UNL     1       9.697   4.736  23.983  0.00  0.00    +0.172 A 
ATOM     30  N   UNL     1       8.402   4.309  24.112  0.00  0.00    -0.229 NA
ATOM     31  C   UNL     1       8.417   3.073  23.651  0.00  0.00    +0.203 A 
ENDBRANCH  17  18
ENDBRANCH   1  17
TORSDOF 11
ENDMDL
