MODEL 1
REMARK VINA RESULT:      -8.4      0.000      0.000
REMARK  Name = 
REMARK  5 active torsions:
REMARK  status: ('A' for Active; 'I' for Inactive)
REMARK    1  A    between atoms: C_1  and  C_2
REMARK    2  A    between atoms: C_12  and  O_31
REMARK    3  A    between atoms: C_15  and  C_19
REMARK    4  A    between atoms: N_21  and  C_22
REMARK    5  A    between atoms: C_22  and  C_23
REMARK                            x       y       z     vdW  Elec       q    Type
REMARK                         _______ _______ _______ _____ _____    ______ ____
ROOT
ATOM      1  C   UNL     1       9.691  -5.647  25.245  0.00  0.00    +0.028 C 
ATOM      2  C   UNL     1       8.778  -4.592  25.892  0.00  0.00    +0.078 C 
ATOM      3  N   UNL     1       8.129  -3.669  24.953  0.00  0.00    -0.266 N 
ATOM      4  C   UNL     1       8.930  -2.889  24.127  0.00  0.00    +0.269 C 
ATOM      5  C   UNL     1       8.315  -1.651  23.525  0.00  0.00    +0.151 A 
ATOM      6  N   UNL     1       6.995  -1.283  23.835  0.00  0.00    -0.335 N 
ATOM      7  C   UNL     1       6.210  -2.099  24.774  0.00  0.00    +0.173 C 
ATOM      8  C   UNL     1       6.612   0.037  23.585  0.00  0.00    +0.103 A 
ATOM      9  C   UNL     1       7.327   0.924  22.871  0.00  0.00    +0.103 A 
ATOM     10  C   UNL     1       8.534   0.381  22.210  0.00  0.00    +0.236 A 
ATOM     11  O   UNL     1       9.052   0.939  21.246  0.00  0.00    -0.283 OA
ATOM     12  C   UNL     1       9.127  -0.876  22.768  0.00  0.00    +0.194 A 
ATOM     13  O   UNL     1      10.127  -3.116  23.944  0.00  0.00    -0.268 OA
ATOM     14  C   UNL     1       6.675  -3.567  24.826  0.00  0.00    +0.228 C 
ATOM     15  O   UNL     1       5.977  -4.135  25.932  0.00  0.00    -0.357 OA
ATOM     16  C   UNL     1       6.438  -5.406  26.336  0.00  0.00    +0.164 C 
ATOM     17  C   UNL     1       7.830  -5.249  26.891  0.00  0.00    +0.050 C 
ENDROOT
BRANCH   9  18
ATOM     18  C   UNL     1       6.844   2.331  22.807  0.00  0.00    +0.250 C 
ATOM     19  N   UNL     1       7.314   3.278  23.688  0.00  0.00    -0.307 N 
ATOM     20  H   UNL     1       6.960   4.203  23.515  0.00  0.00    +0.149 HD
ATOM     21  O   UNL     1       5.945   2.664  22.028  0.00  0.00    -0.270 OA
BRANCH  19  22
ATOM     22  C   UNL     1       8.432   3.137  24.607  0.00  0.00    +0.142 C 
BRANCH  22  23
ATOM     23  C   UNL     1       9.635   3.948  24.237  0.00  0.00    +0.005 A 
ATOM     24  C   UNL     1       9.593   5.351  24.274  0.00  0.00    +0.011 A 
ATOM     25  C   UNL     1      10.676   6.094  23.807  0.00  0.00    +0.039 A 
ATOM     26  C   UNL     1      11.803   5.432  23.318  0.00  0.00    +0.126 A 
ATOM     27  F   UNL     1      12.829   6.152  22.848  0.00  0.00    -0.205 F 
ATOM     28  C   UNL     1      11.866   4.048  23.287  0.00  0.00    +0.077 A 
ATOM     29  C   UNL     1      10.785   3.316  23.751  0.00  0.00    +0.131 A 
ATOM     30  F   UNL     1      10.828   1.978  23.678  0.00  0.00    -0.205 F 
ENDBRANCH  22  23
ENDBRANCH  19  22
ENDBRANCH   9  18
BRANCH  12  31
ATOM     31  O   UNL     1      10.459  -1.128  22.475  0.00  0.00    -0.502 OA
ATOM     32  H   UNL     1      10.921  -1.352  23.313  0.00  0.00    +0.292 HD
ENDBRANCH  12  31
TORSDOF 4
ENDMDL
MODEL 2
REMARK VINA RESULT:      -8.3      3.129      8.350
REMARK  Name = 
REMARK  5 active torsions:
REMARK  status: ('A' for Active; 'I' for Inactive)
REMARK    1  A    between atoms: C_1  and  C_2
REMARK    2  A    between atoms: C_12  and  O_31
REMARK    3  A    between atoms: C_15  and  C_19
REMARK    4  A    between atoms: N_21  and  C_22
REMARK    5  A    between atoms: C_22  and  C_23
REMARK                            x       y       z     vdW  Elec       q    Type
REMARK                         _______ _______ _______ _____ _____    ______ ____
ROOT
ATOM      1  C   UNL     1       7.530   3.298  22.196  0.00  0.00    +0.028 C 
ATOM      2  C   UNL     1       8.285   2.732  23.410  0.00  0.00    +0.078 C 
ATOM      3  N   UNL     1       8.778   1.359  23.252  0.00  0.00    -0.266 N 
ATOM      4  C   UNL     1       7.861   0.349  22.988  0.00  0.00    +0.269 C 
ATOM      5  C   UNL     1       8.279  -1.069  23.284  0.00  0.00    +0.151 A 
ATOM      6  N   UNL     1       9.534  -1.342  23.854  0.00  0.00    -0.335 N 
ATOM      7  C   UNL     1      10.443  -0.235  24.186  0.00  0.00    +0.173 C 
ATOM      8  C   UNL     1       9.715  -2.587  24.463  0.00  0.00    +0.103 A 
ATOM      9  C   UNL     1       8.868  -3.625  24.359  0.00  0.00    +0.103 A 
ATOM     10  C   UNL     1       7.746  -3.437  23.413  0.00  0.00    +0.236 A 
ATOM     11  O   UNL     1       7.138  -4.389  22.929  0.00  0.00    -0.283 OA
ATOM     12  C   UNL     1       7.352  -2.032  23.072  0.00  0.00    +0.194 A 
ATOM     13  O   UNL     1       6.708   0.571  22.613  0.00  0.00    -0.268 OA
ATOM     14  C   UNL     1      10.200   1.019  23.323  0.00  0.00    +0.228 C 
ATOM     15  O   UNL     1      10.988   2.041  23.929  0.00  0.00    -0.357 OA
ATOM     16  C   UNL     1      10.725   3.348  23.467  0.00  0.00    +0.164 C 
ATOM     17  C   UNL     1       9.332   3.729  23.897  0.00  0.00    +0.050 C 
ENDROOT
BRANCH   9  18
ATOM     18  C   UNL     1       9.137  -4.840  25.177  0.00  0.00    +0.250 C 
ATOM     19  N   UNL     1       8.477  -5.049  26.366  0.00  0.00    -0.307 N 
ATOM     20  H   UNL     1       8.698  -5.927  26.803  0.00  0.00    +0.149 HD
ATOM     21  O   UNL     1      10.022  -5.641  24.860  0.00  0.00    -0.270 OA
BRANCH  19  22
ATOM     22  C   UNL     1       7.339  -4.301  26.876  0.00  0.00    +0.142 C 
BRANCH  22  23
ATOM     23  C   UNL     1       6.032  -4.671  26.246  0.00  0.00    +0.005 A 
ATOM     24  C   UNL     1       5.692  -6.017  26.036  0.00  0.00    +0.011 A 
ATOM     25  C   UNL     1       4.531  -6.343  25.336  0.00  0.00    +0.039 A 
ATOM     26  C   UNL     1       3.707  -5.322  24.860  0.00  0.00    +0.126 A 
ATOM     27  F   UNL     1       2.607  -5.642  24.166  0.00  0.00    -0.205 F 
ATOM     28  C   UNL     1       4.021  -3.989  25.070  0.00  0.00    +0.077 A 
ATOM     29  C   UNL     1       5.177  -3.673  25.765  0.00  0.00    +0.131 A 
ATOM     30  F   UNL     1       5.504  -2.383  25.928  0.00  0.00    -0.205 F 
ENDBRANCH  22  23
ENDBRANCH  19  22
ENDBRANCH   9  18
BRANCH  12  31
ATOM     31  O   UNL     1       6.068  -1.839  22.584  0.00  0.00    -0.502 OA
ATOM     32  H   UNL     1       5.450  -2.381  23.122  0.00  0.00    +0.292 HD
ENDBRANCH  12  31
TORSDOF 4
ENDMDL
MODEL 3
REMARK VINA RESULT:      -8.3      3.130      7.807
REMARK  Name = 
REMARK  5 active torsions:
REMARK  status: ('A' for Active; 'I' for Inactive)
REMARK    1  A    between atoms: C_1  and  C_2
REMARK    2  A    between atoms: C_12  and  O_31
REMARK    3  A    between atoms: C_15  and  C_19
REMARK    4  A    between atoms: N_21  and  C_22
REMARK    5  A    between atoms: C_22  and  C_23
REMARK                            x       y       z     vdW  Elec       q    Type
REMARK                         _______ _______ _______ _____ _____    ______ ____
ROOT
ATOM      1  C   UNL     1      10.150   2.275  22.192  0.00  0.00    +0.028 C 
ATOM      2  C   UNL     1       8.854   1.951  22.953  0.00  0.00    +0.078 C 
ATOM      3  N   UNL     1       8.983   0.928  23.998  0.00  0.00    -0.266 N 
ATOM      4  C   UNL     1       9.428  -0.337  23.638  0.00  0.00    +0.269 C 
ATOM      5  C   UNL     1       9.124  -1.478  24.576  0.00  0.00    +0.151 A 
ATOM      6  N   UNL     1       8.373  -1.265  25.743  0.00  0.00    -0.335 N 
ATOM      7  C   UNL     1       7.857   0.079  26.046  0.00  0.00    +0.173 C 
ATOM      8  C   UNL     1       7.790  -2.378  26.355  0.00  0.00    +0.103 A 
ATOM      9  C   UNL     1       8.068  -3.657  26.050  0.00  0.00    +0.103 A 
ATOM     10  C   UNL     1       9.173  -3.854  25.086  0.00  0.00    +0.236 A 
ATOM     11  O   UNL     1       9.784  -4.917  25.007  0.00  0.00    -0.283 OA
ATOM     12  C   UNL     1       9.519  -2.711  24.181  0.00  0.00    +0.194 A 
ATOM     13  O   UNL     1       9.974  -0.575  22.559  0.00  0.00    -0.268 OA
ATOM     14  C   UNL     1       8.699   1.202  25.407  0.00  0.00    +0.228 C 
ATOM     15  O   UNL     1       7.936   2.390  25.603  0.00  0.00    -0.357 OA
ATOM     16  C   UNL     1       8.384   3.511  24.872  0.00  0.00    +0.164 C 
ATOM     17  C   UNL     1       8.167   3.236  23.406  0.00  0.00    +0.050 C 
ENDROOT
BRANCH   9  18
ATOM     18  C   UNL     1       7.265  -4.728  26.701  0.00  0.00    +0.250 C 
ATOM     19  N   UNL     1       5.907  -4.812  26.497  0.00  0.00    -0.307 N 
ATOM     20  H   UNL     1       5.479  -5.606  26.942  0.00  0.00    +0.149 HD
ATOM     21  O   UNL     1       7.776  -5.509  27.510  0.00  0.00    -0.270 OA
BRANCH  19  22
ATOM     22  C   UNL     1       5.123  -4.075  25.520  0.00  0.00    +0.142 C 
BRANCH  22  23
ATOM     23  C   UNL     1       5.350  -4.504  24.103  0.00  0.00    +0.005 A 
ATOM     24  C   UNL     1       5.238  -5.854  23.736  0.00  0.00    +0.011 A 
ATOM     25  C   UNL     1       5.574  -6.256  22.445  0.00  0.00    +0.039 A 
ATOM     26  C   UNL     1       6.008  -5.306  21.520  0.00  0.00    +0.126 A 
ATOM     27  F   UNL     1       6.355  -5.703  20.289  0.00  0.00    -0.205 F 
ATOM     28  C   UNL     1       6.113  -3.966  21.862  0.00  0.00    +0.077 A 
ATOM     29  C   UNL     1       5.778  -3.575  23.149  0.00  0.00    +0.131 A 
ATOM     30  F   UNL     1       5.923  -2.287  23.493  0.00  0.00    -0.205 F 
ENDBRANCH  22  23
ENDBRANCH  19  22
ENDBRANCH   9  18
BRANCH  12  31
ATOM     31  O   UNL     1      10.197  -3.018  23.011  0.00  0.00    -0.502 OA
ATOM     32  H   UNL     1      11.113  -2.668  23.085  0.00  0.00    +0.292 HD
ENDBRANCH  12  31
TORSDOF 4
ENDMDL
MODEL 4
REMARK VINA RESULT:      -8.1      3.845      5.719
REMARK  Name = 
REMARK  5 active torsions:
REMARK  status: ('A' for Active; 'I' for Inactive)
REMARK    1  A    between atoms: C_1  and  C_2
REMARK    2  A    between atoms: C_12  and  O_31
REMARK    3  A    between atoms: C_15  and  C_19
REMARK    4  A    between atoms: N_21  and  C_22
REMARK    5  A    between atoms: C_22  and  C_23
REMARK                            x       y       z     vdW  Elec       q    Type
REMARK                         _______ _______ _______ _____ _____    ______ ____
ROOT
ATOM      1  C   UNL     1       3.064  -7.328  26.113  0.00  0.00    +0.028 C 
ATOM      2  C   UNL     1       3.183  -5.912  25.526  0.00  0.00    +0.078 C 
ATOM      3  N   UNL     1       4.410  -5.654  24.763  0.00  0.00    -0.266 N 
ATOM      4  C   UNL     1       5.634  -5.803  25.402  0.00  0.00    +0.269 C 
ATOM      5  C   UNL     1       6.828  -5.112  24.794  0.00  0.00    +0.151 A 
ATOM      6  N   UNL     1       6.685  -4.307  23.652  0.00  0.00    -0.335 N 
ATOM      7  C   UNL     1       5.355  -4.116  23.052  0.00  0.00    +0.173 C 
ATOM      8  C   UNL     1       7.704  -3.393  23.367  0.00  0.00    +0.103 A 
ATOM      9  C   UNL     1       8.908  -3.372  23.966  0.00  0.00    +0.103 A 
ATOM     10  C   UNL     1       9.178  -4.497  24.889  0.00  0.00    +0.236 A 
ATOM     11  O   UNL     1      10.321  -4.824  25.196  0.00  0.00    -0.283 OA
ATOM     12  C   UNL     1       8.000  -5.225  25.461  0.00  0.00    +0.194 A 
ATOM     13  O   UNL     1       5.763  -6.394  26.475  0.00  0.00    -0.268 OA
ATOM     14  C   UNL     1       4.393  -5.284  23.347  0.00  0.00    +0.228 C 
ATOM     15  O   UNL     1       3.116  -4.830  22.903  0.00  0.00    -0.357 OA
ATOM     16  C   UNL     1       2.027  -5.630  23.307  0.00  0.00    +0.164 C 
ATOM     17  C   UNL     1       1.894  -5.525  24.805  0.00  0.00    +0.050 C 
ENDROOT
BRANCH   9  18
ATOM     18  C   UNL     1       9.835  -2.253  23.645  0.00  0.00    +0.250 C 
ATOM     19  N   UNL     1       9.818  -1.091  24.380  0.00  0.00    -0.307 N 
ATOM     20  H   UNL     1      10.524  -0.428  24.108  0.00  0.00    +0.149 HD
ATOM     21  O   UNL     1      10.577  -2.300  22.658  0.00  0.00    -0.270 OA
BRANCH  19  22
ATOM     22  C   UNL     1       9.111  -0.858  25.629  0.00  0.00    +0.142 C 
BRANCH  22  23
ATOM     23  C   UNL     1       7.803  -0.146  25.470  0.00  0.00    +0.005 A 
ATOM     24  C   UNL     1       7.764   1.202  25.079  0.00  0.00    +0.011 A 
ATOM     25  C   UNL     1       6.550   1.887  25.056  0.00  0.00    +0.039 A 
ATOM     26  C   UNL     1       5.378   1.218  25.410  0.00  0.00    +0.126 A 
ATOM     27  F   UNL     1       4.219   1.889  25.410  0.00  0.00    -0.205 F 
ATOM     28  C   UNL     1       5.397  -0.116  25.785  0.00  0.00    +0.077 A 
ATOM     29  C   UNL     1       6.608  -0.789  25.807  0.00  0.00    +0.131 A 
ATOM     30  F   UNL     1       6.632  -2.067  26.215  0.00  0.00    -0.205 F 
ENDBRANCH  22  23
ENDBRANCH  19  22
ENDBRANCH   9  18
BRANCH  12  31
ATOM     31  O   UNL     1       8.209  -5.937  26.633  0.00  0.00    -0.502 OA
ATOM     32  H   UNL     1       7.891  -5.391  27.386  0.00  0.00    +0.292 HD
ENDBRANCH  12  31
TORSDOF 4
ENDMDL
MODEL 5
REMARK VINA RESULT:      -7.8      3.120      5.548
REMARK  Name = 
REMARK  5 active torsions:
REMARK  status: ('A' for Active; 'I' for Inactive)
REMARK    1  A    between atoms: C_1  and  C_2
REMARK    2  A    between atoms: C_12  and  O_31
REMARK    3  A    between atoms: C_15  and  C_19
REMARK    4  A    between atoms: N_21  and  C_22
REMARK    5  A    between atoms: C_22  and  C_23
REMARK                            x       y       z     vdW  Elec       q    Type
REMARK                         _______ _______ _______ _____ _____    ______ ____
ROOT
ATOM      1  C   UNL     1       0.656  -4.613  24.930  0.00  0.00    +0.028 C 
ATOM      2  C   UNL     1       1.749  -5.216  24.032  0.00  0.00    +0.078 C 
ATOM      3  N   UNL     1       3.095  -5.237  24.616  0.00  0.00    -0.266 N 
ATOM      4  C   UNL     1       3.671  -4.032  25.000  0.00  0.00    +0.269 C 
ATOM      5  C   UNL     1       5.171  -3.993  25.153  0.00  0.00    +0.151 A 
ATOM      6  N   UNL     1       5.950  -5.126  24.865  0.00  0.00    -0.335 N 
ATOM      7  C   UNL     1       5.303  -6.357  24.389  0.00  0.00    +0.173 C 
ATOM      8  C   UNL     1       7.316  -4.936  24.638  0.00  0.00    +0.103 A 
ATOM      9  C   UNL     1       7.986  -3.797  24.887  0.00  0.00    +0.103 A 
ATOM     10  C   UNL     1       7.211  -2.742  25.576  0.00  0.00    +0.236 A 
ATOM     11  O   UNL     1       7.759  -1.836  26.200  0.00  0.00    -0.283 OA
ATOM     12  C   UNL     1       5.718  -2.797  25.474  0.00  0.00    +0.194 A 
ATOM     13  O   UNL     1       3.026  -2.991  25.131  0.00  0.00    -0.268 OA
ATOM     14  C   UNL     1       3.835  -6.478  24.846  0.00  0.00    +0.228 C 
ATOM     15  O   UNL     1       3.312  -7.584  24.113  0.00  0.00    -0.357 OA
ATOM     16  C   UNL     1       1.909  -7.725  24.171  0.00  0.00    +0.164 C 
ATOM     17  C   UNL     1       1.287  -6.552  23.457  0.00  0.00    +0.050 C 
ENDROOT
BRANCH   9  18
ATOM     18  C   UNL     1       9.412  -3.712  24.467  0.00  0.00    +0.250 C 
ATOM     19  N   UNL     1       9.808  -2.821  23.497  0.00  0.00    -0.307 N 
ATOM     20  H   UNL     1      10.800  -2.813  23.334  0.00  0.00    +0.149 HD
ATOM     21  O   UNL     1      10.257  -4.498  24.907  0.00  0.00    -0.270 OA
BRANCH  19  22
ATOM     22  C   UNL     1       9.015  -1.744  22.924  0.00  0.00    +0.142 C 
BRANCH  22  23
ATOM     23  C   UNL     1       9.633  -0.387  23.065  0.00  0.00    +0.005 A 
ATOM     24  C   UNL     1      10.151   0.040  24.298  0.00  0.00    +0.011 A 
ATOM     25  C   UNL     1      10.608   1.348  24.447  0.00  0.00    +0.039 A 
ATOM     26  C   UNL     1      10.558   2.221  23.359  0.00  0.00    +0.126 A 
ATOM     27  F   UNL     1      10.974   3.484  23.517  0.00  0.00    -0.205 F 
ATOM     28  C   UNL     1      10.061   1.812  22.132  0.00  0.00    +0.077 A 
ATOM     29  C   UNL     1       9.608   0.510  21.992  0.00  0.00    +0.131 A 
ATOM     30  F   UNL     1       9.085   0.128  20.818  0.00  0.00    -0.205 F 
ENDBRANCH  22  23
ENDBRANCH  19  22
ENDBRANCH   9  18
BRANCH  12  31
ATOM     31  O   UNL     1       5.027  -1.616  25.701  0.00  0.00    -0.502 OA
ATOM     32  H   UNL     1       4.141  -1.842  26.059  0.00  0.00    +0.292 HD
ENDBRANCH  12  31
TORSDOF 4
ENDMDL
MODEL 6
REMARK VINA RESULT:      -7.7      3.973      8.961
REMARK  Name = 
REMARK  5 active torsions:
REMARK  status: ('A' for Active; 'I' for Inactive)
REMARK    1  A    between atoms: C_1  and  C_2
REMARK    2  A    between atoms: C_12  and  O_31
REMARK    3  A    between atoms: C_15  and  C_19
REMARK    4  A    between atoms: N_21  and  C_22
REMARK    5  A    between atoms: C_22  and  C_23
REMARK                            x       y       z     vdW  Elec       q    Type
REMARK                         _______ _______ _______ _____ _____    ______ ____
ROOT
ATOM      1  C   UNL     1       9.537   2.294  22.794  0.00  0.00    +0.028 C 
ATOM      2  C   UNL     1       8.264   1.760  23.470  0.00  0.00    +0.078 C 
ATOM      3  N   UNL     1       8.479   0.682  24.443  0.00  0.00    -0.266 N 
ATOM      4  C   UNL     1       9.089  -0.490  24.012  0.00  0.00    +0.269 C 
ATOM      5  C   UNL     1       8.892  -1.727  24.851  0.00  0.00    +0.151 A 
ATOM      6  N   UNL     1       8.079  -1.697  25.995  0.00  0.00    -0.335 N 
ATOM      7  C   UNL     1       7.393  -0.451  26.371  0.00  0.00    +0.173 C 
ATOM      8  C   UNL     1       7.615  -2.915  26.498  0.00  0.00    +0.103 A 
ATOM      9  C   UNL     1       8.058  -4.125  26.113  0.00  0.00    +0.103 A 
ATOM     10  C   UNL     1       9.213  -4.114  25.188  0.00  0.00    +0.236 A 
ATOM     11  O   UNL     1       9.952  -5.086  25.060  0.00  0.00    -0.283 OA
ATOM     12  C   UNL     1       9.448  -2.871  24.385  0.00  0.00    +0.194 A 
ATOM     13  O   UNL     1       9.697  -0.577  22.944  0.00  0.00    -0.268 OA
ATOM     14  C   UNL     1       8.114   0.810  25.854  0.00  0.00    +0.228 C 
ATOM     15  O   UNL     1       7.205   1.880  26.101  0.00  0.00    -0.357 OA
ATOM     16  C   UNL     1       7.538   3.100  25.474  0.00  0.00    +0.164 C 
ATOM     17  C   UNL     1       7.410   2.916  23.984  0.00  0.00    +0.050 C 
ENDROOT
BRANCH   9  18
ATOM     18  C   UNL     1       7.369  -5.331  26.648  0.00  0.00    +0.250 C 
ATOM     19  N   UNL     1       6.310  -5.894  25.974  0.00  0.00    -0.307 N 
ATOM     20  H   UNL     1       5.960  -6.736  26.399  0.00  0.00    +0.149 HD
ATOM     21  O   UNL     1       7.665  -5.801  27.751  0.00  0.00    -0.270 OA
BRANCH  19  22
ATOM     22  C   UNL     1       5.863  -5.576  24.627  0.00  0.00    +0.142 C 
BRANCH  22  23
ATOM     23  C   UNL     1       4.458  -5.999  24.332  0.00  0.00    +0.005 A 
ATOM     24  C   UNL     1       3.963  -7.224  24.808  0.00  0.00    +0.011 A 
ATOM     25  C   UNL     1       2.698  -7.662  24.421  0.00  0.00    +0.039 A 
ATOM     26  C   UNL     1       1.925  -6.869  23.573  0.00  0.00    +0.126 A 
ATOM     27  F   UNL     1       0.721  -7.308  23.186  0.00  0.00    -0.205 F 
ATOM     28  C   UNL     1       2.392  -5.651  23.105  0.00  0.00    +0.077 A 
ATOM     29  C   UNL     1       3.652  -5.222  23.492  0.00  0.00    +0.131 A 
ATOM     30  F   UNL     1       4.123  -4.066  23.003  0.00  0.00    -0.205 F 
ENDBRANCH  22  23
ENDBRANCH  19  22
ENDBRANCH   9  18
BRANCH  12  31
ATOM     31  O   UNL     1      10.201  -3.003  23.228  0.00  0.00    -0.502 OA
ATOM     32  H   UNL     1       9.586  -3.138  22.474  0.00  0.00    +0.292 HD
ENDBRANCH  12  31
TORSDOF 4
ENDMDL
MODEL 7
REMARK VINA RESULT:      -7.7      3.091      4.123
REMARK  Name = 
REMARK  5 active torsions:
REMARK  status: ('A' for Active; 'I' for Inactive)
REMARK    1  A    between atoms: C_1  and  C_2
REMARK    2  A    between atoms: C_12  and  O_31
REMARK    3  A    between atoms: C_15  and  C_19
REMARK    4  A    between atoms: N_21  and  C_22
REMARK    5  A    between atoms: C_22  and  C_23
REMARK                            x       y       z     vdW  Elec       q    Type
REMARK                         _______ _______ _______ _____ _____    ______ ____
ROOT
ATOM      1  C   UNL     1       5.648  -6.411  27.639  0.00  0.00    +0.028 C 
ATOM      2  C   UNL     1       6.004  -4.995  28.121  0.00  0.00    +0.078 C 
ATOM      3  N   UNL     1       6.344  -4.041  27.059  0.00  0.00    -0.266 N 
ATOM      4  C   UNL     1       7.411  -4.335  26.219  0.00  0.00    +0.269 C 
ATOM      5  C   UNL     1       8.039  -3.192  25.464  0.00  0.00    +0.151 A 
ATOM      6  N   UNL     1       7.588  -1.875  25.650  0.00  0.00    -0.335 N 
ATOM      7  C   UNL     1       6.504  -1.601  26.607  0.00  0.00    +0.173 C 
ATOM      8  C   UNL     1       8.431  -0.834  25.252  0.00  0.00    +0.103 A 
ATOM      9  C   UNL     1       9.540  -0.985  24.507  0.00  0.00    +0.103 A 
ATOM     10  C   UNL     1       9.772  -2.348  23.981  0.00  0.00    +0.236 A 
ATOM     11  O   UNL     1      10.489  -2.555  23.005  0.00  0.00    -0.283 OA
ATOM     12  C   UNL     1       9.112  -3.490  24.693  0.00  0.00    +0.194 A 
ATOM     13  O   UNL     1       7.912  -5.457  26.138  0.00  0.00    -0.268 OA
ATOM     14  C   UNL     1       5.580  -2.815  26.827  0.00  0.00    +0.228 C 
ATOM     15  O   UNL     1       4.755  -2.453  27.932  0.00  0.00    -0.357 OA
ATOM     16  C   UNL     1       4.002  -3.511  28.484  0.00  0.00    +0.164 C 
ATOM     17  C   UNL     1       4.958  -4.493  29.113  0.00  0.00    +0.050 C 
ENDROOT
BRANCH   9  18
ATOM     18  C   UNL     1      10.404   0.206  24.279  0.00  0.00    +0.250 C 
ATOM     19  N   UNL     1      10.318   0.926  23.110  0.00  0.00    -0.307 N 
ATOM     20  H   UNL     1      10.908   1.740  23.090  0.00  0.00    +0.149 HD
ATOM     21  O   UNL     1      11.282   0.524  25.088  0.00  0.00    -0.270 OA
BRANCH  19  22
ATOM     22  C   UNL     1       9.301   0.796  22.078  0.00  0.00    +0.142 C 
BRANCH  22  23
ATOM     23  C   UNL     1       8.168   1.767  22.210  0.00  0.00    +0.005 A 
ATOM     24  C   UNL     1       8.394   3.150  22.124  0.00  0.00    +0.011 A 
ATOM     25  C   UNL     1       7.354   4.043  22.373  0.00  0.00    +0.039 A 
ATOM     26  C   UNL     1       6.089   3.552  22.694  0.00  0.00    +0.126 A 
ATOM     27  F   UNL     1       5.101   4.417  22.958  0.00  0.00    -0.205 F 
ATOM     28  C   UNL     1       5.845   2.190  22.771  0.00  0.00    +0.077 A 
ATOM     29  C   UNL     1       6.884   1.307  22.524  0.00  0.00    +0.131 A 
ATOM     30  F   UNL     1       6.660  -0.009  22.643  0.00  0.00    -0.205 F 
ENDBRANCH  22  23
ENDBRANCH  19  22
ENDBRANCH   9  18
BRANCH  12  31
ATOM     31  O   UNL     1       9.667  -4.748  24.514  0.00  0.00    -0.502 OA
ATOM     32  H   UNL     1       9.342  -5.333  25.234  0.00  0.00    +0.292 HD
ENDBRANCH  12  31
TORSDOF 4
ENDMDL
MODEL 8
REMARK VINA RESULT:      -7.7      3.687      8.733
REMARK  Name = 
REMARK  5 active torsions:
REMARK  status: ('A' for Active; 'I' for Inactive)
REMARK    1  A    between atoms: C_1  and  C_2
REMARK    2  A    between atoms: C_12  and  O_31
REMARK    3  A    between atoms: C_15  and  C_19
REMARK    4  A    between atoms: N_21  and  C_22
REMARK    5  A    between atoms: C_22  and  C_23
REMARK                            x       y       z     vdW  Elec       q    Type
REMARK                         _______ _______ _______ _____ _____    ______ ____
ROOT
ATOM      1  C   UNL     1       8.999   6.488  23.363  0.00  0.00    +0.028 C 
ATOM      2  C   UNL     1       9.904   5.522  24.146  0.00  0.00    +0.078 C 
ATOM      3  N   UNL     1       9.694   4.098  23.858  0.00  0.00    -0.266 N 
ATOM      4  C   UNL     1       8.435   3.555  24.080  0.00  0.00    +0.269 C 
ATOM      5  C   UNL     1       8.338   2.058  24.234  0.00  0.00    +0.151 A 
ATOM      6  N   UNL     1       9.492   1.258  24.204  0.00  0.00    -0.335 N 
ATOM      7  C   UNL     1      10.813   1.885  24.042  0.00  0.00    +0.173 C 
ATOM      8  C   UNL     1       9.405  -0.032  24.735  0.00  0.00    +0.103 A 
ATOM      9  C   UNL     1       8.259  -0.650  25.071  0.00  0.00    +0.103 A 
ATOM     10  C   UNL     1       7.019   0.072  24.710  0.00  0.00    +0.236 A 
ATOM     11  O   UNL     1       5.941  -0.506  24.594  0.00  0.00    -0.283 OA
ATOM     12  C   UNL     1       7.111   1.553  24.504  0.00  0.00    +0.194 A 
ATOM     13  O   UNL     1       7.426   4.243  24.242  0.00  0.00    -0.268 OA
ATOM     14  C   UNL     1      10.746   3.241  23.311  0.00  0.00    +0.228 C 
ATOM     15  O   UNL     1      12.051   3.799  23.452  0.00  0.00    -0.357 OA
ATOM     16  C   UNL     1      12.159   5.158  23.086  0.00  0.00    +0.164 C 
ATOM     17  C   UNL     1      11.360   5.976  24.067  0.00  0.00    +0.050 C 
ENDROOT
BRANCH   9  18
ATOM     18  C   UNL     1       8.344  -1.973  25.748  0.00  0.00    +0.250 C 
ATOM     19  N   UNL     1       8.034  -3.131  25.072  0.00  0.00    -0.307 N 
ATOM     20  H   UNL     1       8.180  -3.967  25.612  0.00  0.00    +0.149 HD
ATOM     21  O   UNL     1       8.602  -2.060  26.952  0.00  0.00    -0.270 OA
BRANCH  19  22
ATOM     22  C   UNL     1       7.808  -3.274  23.643  0.00  0.00    +0.142 C 
BRANCH  22  23
ATOM     23  C   UNL     1       6.575  -4.049  23.293  0.00  0.00    +0.005 A 
ATOM     24  C   UNL     1       5.301  -3.549  23.605  0.00  0.00    +0.011 A 
ATOM     25  C   UNL     1       4.171  -4.335  23.388  0.00  0.00    +0.039 A 
ATOM     26  C   UNL     1       4.317  -5.612  22.846  0.00  0.00    +0.126 A 
ATOM     27  F   UNL     1       3.229  -6.372  22.664  0.00  0.00    -0.205 F 
ATOM     28  C   UNL     1       5.566  -6.116  22.519  0.00  0.00    +0.077 A 
ATOM     29  C   UNL     1       6.685  -5.329  22.739  0.00  0.00    +0.131 A 
ATOM     30  F   UNL     1       7.897  -5.834  22.466  0.00  0.00    -0.205 F 
ENDBRANCH  22  23
ENDBRANCH  19  22
ENDBRANCH   9  18
BRANCH  12  31
ATOM     31  O   UNL     1       5.936   2.280  24.625  0.00  0.00    -0.502 OA
ATOM     32  H   UNL     1       5.182   1.650  24.615  0.00  0.00    +0.292 HD
ENDBRANCH  12  31
TORSDOF 4
ENDMDL
MODEL 9
REMARK VINA RESULT:      -7.4      4.305      9.331
REMARK  Name = 
REMARK  5 active torsions:
REMARK  status: ('A' for Active; 'I' for Inactive)
REMARK    1  A    between atoms: C_1  and  C_2
REMARK    2  A    between atoms: C_12  and  O_31
REMARK    3  A    between atoms: C_15  and  C_19
REMARK    4  A    between atoms: N_21  and  C_22
REMARK    5  A    between atoms: C_22  and  C_23
REMARK                            x       y       z     vdW  Elec       q    Type
REMARK                         _______ _______ _______ _____ _____    ______ ____
ROOT
ATOM      1  C   UNL     1      10.621  -1.609  22.685  0.00  0.00    +0.028 C 
ATOM      2  C   UNL     1       9.088  -1.505  22.753  0.00  0.00    +0.078 C 
ATOM      3  N   UNL     1       8.502  -1.775  24.071  0.00  0.00    -0.266 N 
ATOM      4  C   UNL     1       8.732  -3.012  24.660  0.00  0.00    +0.269 C 
ATOM      5  C   UNL     1       7.785  -3.454  25.747  0.00  0.00    +0.151 A 
ATOM      6  N   UNL     1       6.685  -2.659  26.107  0.00  0.00    -0.335 N 
ATOM      7  C   UNL     1       6.439  -1.390  25.404  0.00  0.00    +0.173 C 
ATOM      8  C   UNL     1       5.643  -3.268  26.810  0.00  0.00    +0.103 A 
ATOM      9  C   UNL     1       5.700  -4.493  27.362  0.00  0.00    +0.103 A 
ATOM     10  C   UNL     1       7.024  -5.150  27.313  0.00  0.00    +0.236 A 
ATOM     11  O   UNL     1       7.328  -6.057  28.084  0.00  0.00    -0.283 OA
ATOM     12  C   UNL     1       7.993  -4.686  26.269  0.00  0.00    +0.194 A 
ATOM     13  O   UNL     1       9.608  -3.787  24.273  0.00  0.00    -0.268 OA
ATOM     14  C   UNL     1       7.721  -0.779  24.805  0.00  0.00    +0.228 C 
ATOM     15  O   UNL     1       7.266   0.293  23.980  0.00  0.00    -0.357 OA
ATOM     16  C   UNL     1       8.244   0.839  23.122  0.00  0.00    +0.164 C 
ATOM     17  C   UNL     1       8.614  -0.208  22.102  0.00  0.00    +0.050 C 
ENDROOT
BRANCH   9  18
ATOM     18  C   UNL     1       4.459  -5.053  27.964  0.00  0.00    +0.250 C 
ATOM     19  N   UNL     1       3.789  -6.091  27.358  0.00  0.00    -0.307 N 
ATOM     20  H   UNL     1       2.997  -6.423  27.882  0.00  0.00    +0.149 HD
ATOM     21  O   UNL     1       3.948  -4.546  28.967  0.00  0.00    -0.270 OA
BRANCH  19  22
ATOM     22  C   UNL     1       4.255  -6.899  26.243  0.00  0.00    +0.142 C 
BRANCH  22  23
ATOM     23  C   UNL     1       3.292  -6.980  25.099  0.00  0.00    +0.005 A 
ATOM     24  C   UNL     1       2.556  -8.152  24.862  0.00  0.00    +0.011 A 
ATOM     25  C   UNL     1       1.759  -8.257  23.724  0.00  0.00    +0.039 A 
ATOM     26  C   UNL     1       1.688  -7.185  22.834  0.00  0.00    +0.126 A 
ATOM     27  F   UNL     1       0.941  -7.302  21.729  0.00  0.00    -0.205 F 
ATOM     28  C   UNL     1       2.397  -6.016  23.059  0.00  0.00    +0.077 A 
ATOM     29  C   UNL     1       3.190  -5.919  24.192  0.00  0.00    +0.131 A 
ATOM     30  F   UNL     1       3.912  -4.806  24.387  0.00  0.00    -0.205 F 
ENDBRANCH  22  23
ENDBRANCH  19  22
ENDBRANCH   9  18
BRANCH  12  31
ATOM     31  O   UNL     1       9.008  -5.563  25.917  0.00  0.00    -0.502 OA
ATOM     32  H   UNL     1       8.772  -6.457  26.250  0.00  0.00    +0.292 HD
ENDBRANCH  12  31
TORSDOF 4
ENDMDL
