MODEL 1
REMARK VINA RESULT:      -6.6      0.000      0.000
REMARK  Name = 
REMARK  13 active torsions:
REMARK  status: ('A' for Active; 'I' for Inactive)
REMARK    1  A    between atoms: C_1  and  C_2
REMARK    2  A    between atoms: C_3  and  O_54
REMARK    3  A    between atoms: C_9  and  C_46
REMARK    4  A    between atoms: C_11  and  O_12
REMARK    5  A    between atoms: O_12  and  C_13
REMARK    6  A    between atoms: N_22  and  C_45
REMARK    7  A    between atoms: C_32  and  C_36
REMARK    8  A    between atoms: N_38  and  S_39
REMARK    9  A    between atoms: S_39  and  C_42
REMARK   10  A    between atoms: C_48  and  C_51
REMARK   11  A    between atoms: C_51  and  C_52
REMARK   12  A    between atoms: C_51  and  C_53
REMARK   13  A    between atoms: O_54  and  C_55
REMARK                            x       y       z     vdW  Elec       q    Type
REMARK                         _______ _______ _______ _____ _____    ______ ____
ROOT
ATOM      1  C   UNL     1       4.938  -4.027  23.192  0.00  0.00    +0.175 C 
ATOM      2  C   UNL     1       5.716  -4.424  21.913  0.00  0.00    +0.058 C 
ATOM      3  C   UNL     1       7.178  -4.077  22.337  0.00  0.00    +0.091 C 
ATOM      4  C   UNL     1       7.624  -5.190  23.333  0.00  0.00    +0.219 C 
ATOM      5  N   UNL     1       7.972  -4.854  24.642  0.00  0.00    -0.304 N 
ATOM      6  C   UNL     1       9.310  -5.321  24.981  0.00  0.00    +0.132 C 
ATOM      7  C   UNL     1       7.016  -5.222  25.711  0.00  0.00    +0.107 C 
ATOM      8  C   UNL     1       7.101  -4.291  26.922  0.00  0.00    +0.019 C 
ATOM      9  C   UNL     1       5.719  -3.980  27.536  0.00  0.00    +0.006 C 
ATOM     10  C   UNL     1       5.568  -2.516  27.963  0.00  0.00    +0.027 C 
ATOM     11  C   UNL     1       5.443  -1.512  26.829  0.00  0.00    -0.031 C 
ATOM     12  C   UNL     1       6.472  -0.715  26.501  0.00  0.00    -0.025 C 
ATOM     13  C   UNL     1       6.543   0.474  25.623  0.00  0.00    +0.046 C 
ATOM     14  C   UNL     1       7.054   0.682  24.184  0.00  0.00    +0.119 C 
ATOM     15  N   UNL     1       7.028  -0.398  23.250  0.00  0.00    -0.301 N 
ATOM     16  H   UNL     1       6.175  -0.403  22.688  0.00  0.00    +0.150 HD
ATOM     17  C   UNL     1       7.776  -1.574  23.244  0.00  0.00    +0.218 C 
ATOM     18  O   UNL     1       8.932  -1.710  23.596  0.00  0.00    -0.275 OA
ATOM     19  C   UNL     1       8.003   0.799  25.328  0.00  0.00    +0.046 C 
ATOM     20  O   UNL     1       7.668  -6.364  22.953  0.00  0.00    -0.275 OA
ATOM     21  C   UNL     1       6.860  -2.650  22.728  0.00  0.00    +0.090 C 
ATOM     22  C   UNL     1       5.664  -2.787  23.667  0.00  0.00    +0.058 C 
ENDROOT
BRANCH  14  23
ATOM     23  C   UNL     1       6.616   1.992  23.533  0.00  0.00    +0.256 C 
ATOM     24  N   UNL     1       7.330   3.107  23.931  0.00  0.00    -0.188 N 
ATOM     25  H   UNL     1       8.162   3.022  24.509  0.00  0.00    +0.176 HD
ATOM     26  O   UNL     1       5.713   1.989  22.700  0.00  0.00    -0.272 OA
BRANCH  24  27
ATOM     27  S   UNL     1       7.007   4.654  23.427  0.00  0.00    +0.048 S 
ATOM     28  O   UNL     1       5.672   4.985  23.872  0.00  0.00    -0.155 OA
ATOM     29  O   UNL     1       7.340   4.671  22.015  0.00  0.00    -0.155 OA
BRANCH  27  30
ATOM     30  C   UNL     1       8.147   5.769  24.293  0.00  0.00    +0.151 C 
ATOM     31  C   UNL     1       9.196   6.447  23.457  0.00  0.00    +0.030 C 
ATOM     32  C   UNL     1       9.574   5.274  24.319  0.00  0.00    +0.030 C 
ENDBRANCH  27  30
ENDBRANCH  24  27
ENDBRANCH  14  23
BRANCH   1  33
ATOM     33  O   UNL     1       3.547  -3.715  23.167  0.00  0.00    -0.488 OA
BRANCH  33  40
ATOM     34  C   UNL     1       1.492  -7.852  27.235  0.00  0.00    +0.050 C 
ATOM     35  C   UNL     1       1.904  -7.410  25.850  0.00  0.00    +0.017 A 
ATOM     36  C   UNL     1       2.124  -6.040  25.648  0.00  0.00    +0.082 A 
ATOM     37  N   UNL     1       1.926  -5.185  26.684  0.00  0.00    -0.244 NA
ATOM     38  C   UNL     1       2.178  -3.877  26.501  0.00  0.00    +0.100 A 
ATOM     39  C   UNL     1       2.650  -3.393  25.311  0.00  0.00    +0.076 A 
ATOM     40  C   UNL     1       2.889  -4.242  24.254  0.00  0.00    +0.132 A 
ATOM     41  C   UNL     1       2.583  -5.607  24.379  0.00  0.00    +0.043 A 
ATOM     42  C   UNL     1       2.706  -6.539  23.326  0.00  0.00    +0.017 A 
ATOM     43  C   UNL     1       2.453  -7.898  23.540  0.00  0.00    +0.047 A 
ATOM     44  C   UNL     1       2.085  -8.346  24.808  0.00  0.00    +0.125 A 
BRANCH  38  45
ATOM     45  C   UNL     1       2.096  -2.900  27.592  0.00  0.00    +0.127 A 
ATOM     46  S   UNL     1       2.147  -3.328  29.245  0.00  0.00    -0.074 S 
ATOM     47  C   UNL     1       2.256  -1.661  29.659  0.00  0.00    +0.070 A 
ATOM     48  C   UNL     1       2.223  -0.875  28.525  0.00  0.00    +0.052 A 
ATOM     49  N   UNL     1       2.103  -1.595  27.359  0.00  0.00    -0.242 NA
BRANCH  48  50
ATOM     50  C   UNL     1       2.295   0.627  28.437  0.00  0.00    +0.032 C 
ATOM     51  C   UNL     1       1.950   1.118  27.028  0.00  0.00    +0.014 C 
ATOM     52  C   UNL     1       3.668   1.170  28.853  0.00  0.00    +0.014 C 
ENDBRANCH  48  50
ENDBRANCH  38  45
BRANCH  44  53
ATOM     53  O   UNL     1       1.873  -9.658  25.141  0.00  0.00    -0.495 OA
ATOM     54  C   UNL     1       0.640 -10.259  24.770  0.00  0.00    +0.277 C 
ENDBRANCH  44  53
ENDBRANCH  33  40
ENDBRANCH   1  33
TORSDOF 8
ENDMDL
MODEL 2
REMARK VINA RESULT:      -6.0      1.307      1.564
REMARK  Name = 
REMARK  13 active torsions:
REMARK  status: ('A' for Active; 'I' for Inactive)
REMARK    1  A    between atoms: C_1  and  C_2
REMARK    2  A    between atoms: C_3  and  O_54
REMARK    3  A    between atoms: C_9  and  C_46
REMARK    4  A    between atoms: C_11  and  O_12
REMARK    5  A    between atoms: O_12  and  C_13
REMARK    6  A    between atoms: N_22  and  C_45
REMARK    7  A    between atoms: C_32  and  C_36
REMARK    8  A    between atoms: N_38  and  S_39
REMARK    9  A    between atoms: S_39  and  C_42
REMARK   10  A    between atoms: C_48  and  C_51
REMARK   11  A    between atoms: C_51  and  C_52
REMARK   12  A    between atoms: C_51  and  C_53
REMARK   13  A    between atoms: O_54  and  C_55
REMARK                            x       y       z     vdW  Elec       q    Type
REMARK                         _______ _______ _______ _____ _____    ______ ____
ROOT
ATOM      1  C   UNL     1       4.951  -4.042  23.175  0.00  0.00    +0.175 C 
ATOM      2  C   UNL     1       5.742  -4.389  21.890  0.00  0.00    +0.058 C 
ATOM      3  C   UNL     1       7.201  -4.071  22.346  0.00  0.00    +0.091 C 
ATOM      4  C   UNL     1       7.628  -5.229  23.297  0.00  0.00    +0.219 C 
ATOM      5  N   UNL     1       7.962  -4.953  24.624  0.00  0.00    -0.304 N 
ATOM      6  C   UNL     1       9.292  -5.444  24.958  0.00  0.00    +0.132 C 
ATOM      7  C   UNL     1       6.991  -5.361  25.664  0.00  0.00    +0.107 C 
ATOM      8  C   UNL     1       7.067  -4.483  26.915  0.00  0.00    +0.019 C 
ATOM      9  C   UNL     1       5.680  -4.189  27.526  0.00  0.00    +0.006 C 
ATOM     10  C   UNL     1       5.533  -2.744  28.015  0.00  0.00    +0.027 C 
ATOM     11  C   UNL     1       5.429  -1.691  26.924  0.00  0.00    -0.031 C 
ATOM     12  C   UNL     1       6.467  -0.888  26.643  0.00  0.00    -0.025 C 
ATOM     13  C   UNL     1       6.557   0.338  25.818  0.00  0.00    +0.046 C 
ATOM     14  C   UNL     1       7.087   0.604  24.396  0.00  0.00    +0.119 C 
ATOM     15  N   UNL     1       7.064  -0.434  23.415  0.00  0.00    -0.301 N 
ATOM     16  H   UNL     1       6.219  -0.409  22.844  0.00  0.00    +0.150 HD
ATOM     17  C   UNL     1       7.804  -1.614  23.367  0.00  0.00    +0.218 C 
ATOM     18  O   UNL     1       8.956  -1.774  23.727  0.00  0.00    -0.275 OA
ATOM     19  C   UNL     1       8.023   0.665  25.554  0.00  0.00    +0.046 C 
ATOM     20  O   UNL     1       7.668  -6.386  22.867  0.00  0.00    -0.275 OA
ATOM     21  C   UNL     1       6.887  -2.660  22.794  0.00  0.00    +0.090 C 
ATOM     22  C   UNL     1       5.680  -2.829  23.713  0.00  0.00    +0.058 C 
ENDROOT
BRANCH  14  23
ATOM     23  C   UNL     1       6.666   1.944  23.797  0.00  0.00    +0.256 C 
ATOM     24  N   UNL     1       5.303   2.104  23.627  0.00  0.00    -0.188 N 
ATOM     25  H   UNL     1       4.642   1.427  24.000  0.00  0.00    +0.176 HD
ATOM     26  O   UNL     1       7.516   2.792  23.537  0.00  0.00    -0.272 OA
BRANCH  24  27
ATOM     27  S   UNL     1       4.596   3.435  22.935  0.00  0.00    +0.048 S 
ATOM     28  O   UNL     1       3.364   2.999  22.316  0.00  0.00    -0.155 OA
ATOM     29  O   UNL     1       5.642   4.051  22.141  0.00  0.00    -0.155 OA
BRANCH  27  30
ATOM     30  C   UNL     1       4.145   4.580  24.268  0.00  0.00    +0.151 C 
ATOM     31  C   UNL     1       4.497   4.161  25.668  0.00  0.00    +0.030 C 
ATOM     32  C   UNL     1       3.075   4.044  25.190  0.00  0.00    +0.030 C 
ENDBRANCH  27  30
ENDBRANCH  24  27
ENDBRANCH  14  23
BRANCH   1  33
ATOM     33  O   UNL     1       3.563  -3.719  23.147  0.00  0.00    -0.488 OA
BRANCH  33  40
ATOM     34  C   UNL     1       1.471  -7.876  27.177  0.00  0.00    +0.050 C 
ATOM     35  C   UNL     1       1.894  -7.426  25.797  0.00  0.00    +0.017 A 
ATOM     36  C   UNL     1       2.118  -6.056  25.605  0.00  0.00    +0.082 A 
ATOM     37  N   UNL     1       1.914  -5.206  26.644  0.00  0.00    -0.244 NA
ATOM     38  C   UNL     1       2.170  -3.898  26.471  0.00  0.00    +0.100 A 
ATOM     39  C   UNL     1       2.651  -3.408  25.287  0.00  0.00    +0.076 A 
ATOM     40  C   UNL     1       2.896  -4.251  24.227  0.00  0.00    +0.132 A 
ATOM     41  C   UNL     1       2.587  -5.616  24.342  0.00  0.00    +0.043 A 
ATOM     42  C   UNL     1       2.715  -6.543  23.284  0.00  0.00    +0.017 A 
ATOM     43  C   UNL     1       2.458  -7.902  23.489  0.00  0.00    +0.047 A 
ATOM     44  C   UNL     1       2.080  -8.357  24.751  0.00  0.00    +0.125 A 
BRANCH  38  45
ATOM     45  C   UNL     1       2.082  -2.927  27.567  0.00  0.00    +0.127 A 
ATOM     46  S   UNL     1       2.099  -3.367  29.218  0.00  0.00    -0.074 S 
ATOM     47  C   UNL     1       2.224  -1.704  29.644  0.00  0.00    +0.070 A 
ATOM     48  C   UNL     1       2.220  -0.910  28.515  0.00  0.00    +0.052 A 
ATOM     49  N   UNL     1       2.110  -1.621  27.343  0.00  0.00    -0.242 NA
BRANCH  48  50
ATOM     50  C   UNL     1       2.313   0.592  28.439  0.00  0.00    +0.032 C 
ATOM     51  C   UNL     1       1.974   1.098  27.034  0.00  0.00    +0.014 C 
ATOM     52  C   UNL     1       3.693   1.112  28.858  0.00  0.00    +0.014 C 
ENDBRANCH  48  50
ENDBRANCH  38  45
BRANCH  44  53
ATOM     53  O   UNL     1       1.864  -9.670  25.076  0.00  0.00    -0.495 OA
ATOM     54  C   UNL     1       0.633 -10.266  24.692  0.00  0.00    +0.277 C 
ENDBRANCH  44  53
ENDBRANCH  33  40
ENDBRANCH   1  33
TORSDOF 8
ENDMDL
MODEL 3
REMARK VINA RESULT:      -5.9      3.188      4.475
REMARK  Name = 
REMARK  13 active torsions:
REMARK  status: ('A' for Active; 'I' for Inactive)
REMARK    1  A    between atoms: C_1  and  C_2
REMARK    2  A    between atoms: C_3  and  O_54
REMARK    3  A    between atoms: C_9  and  C_46
REMARK    4  A    between atoms: C_11  and  O_12
REMARK    5  A    between atoms: O_12  and  C_13
REMARK    6  A    between atoms: N_22  and  C_45
REMARK    7  A    between atoms: C_32  and  C_36
REMARK    8  A    between atoms: N_38  and  S_39
REMARK    9  A    between atoms: S_39  and  C_42
REMARK   10  A    between atoms: C_48  and  C_51
REMARK   11  A    between atoms: C_51  and  C_52
REMARK   12  A    between atoms: C_51  and  C_53
REMARK   13  A    between atoms: O_54  and  C_55
REMARK                            x       y       z     vdW  Elec       q    Type
REMARK                         _______ _______ _______ _____ _____    ______ ____
ROOT
ATOM      1  C   UNL     1       6.078  -1.950  23.891  0.00  0.00    +0.175 C 
ATOM      2  C   UNL     1       7.012  -2.145  22.670  0.00  0.00    +0.058 C 
ATOM      3  C   UNL     1       7.949  -0.906  22.815  0.00  0.00    +0.091 C 
ATOM      4  C   UNL     1       8.913  -1.218  23.999  0.00  0.00    +0.219 C 
ATOM      5  N   UNL     1       8.916  -0.399  25.130  0.00  0.00    -0.304 N 
ATOM      6  C   UNL     1      10.245   0.125  25.413  0.00  0.00    +0.132 C 
ATOM      7  C   UNL     1       8.309  -0.949  26.363  0.00  0.00    +0.107 C 
ATOM      8  C   UNL     1       7.750   0.142  27.280  0.00  0.00    +0.019 C 
ATOM      9  C   UNL     1       6.424  -0.265  27.955  0.00  0.00    +0.006 C 
ATOM     10  C   UNL     1       5.404   0.877  28.013  0.00  0.00    +0.027 C 
ATOM     11  C   UNL     1       4.770   1.257  26.685  0.00  0.00    -0.031 C 
ATOM     12  C   UNL     1       5.137   2.379  26.045  0.00  0.00    -0.025 C 
ATOM     13  C   UNL     1       4.535   3.086  24.893  0.00  0.00    +0.046 C 
ATOM     14  C   UNL     1       4.903   3.150  23.398  0.00  0.00    +0.119 C 
ATOM     15  N   UNL     1       5.580   2.057  22.777  0.00  0.00    -0.301 N 
ATOM     16  H   UNL     1       4.934   1.398  22.342  0.00  0.00    +0.150 HD
ATOM     17  C   UNL     1       6.881   1.599  22.980  0.00  0.00    +0.218 C 
ATOM     18  O   UNL     1       7.868   2.272  23.215  0.00  0.00    -0.275 OA
ATOM     19  C   UNL     1       5.526   4.111  24.353  0.00  0.00    +0.046 C 
ATOM     20  O   UNL     1       9.671  -2.190  23.926  0.00  0.00    -0.275 OA
ATOM     21  C   UNL     1       6.820   0.101  22.866  0.00  0.00    +0.090 C 
ATOM     22  C   UNL     1       5.891  -0.449  23.946  0.00  0.00    +0.058 C 
ENDROOT
BRANCH  14  23
ATOM     23  C   UNL     1       3.808   3.712  22.494  0.00  0.00    +0.256 C 
ATOM     24  N   UNL     1       2.908   2.776  22.018  0.00  0.00    -0.188 N 
ATOM     25  H   UNL     1       2.912   1.819  22.361  0.00  0.00    +0.176 HD
ATOM     26  O   UNL     1       3.761   4.919  22.268  0.00  0.00    -0.272 OA
BRANCH  24  27
ATOM     27  S   UNL     1       1.673   3.117  20.966  0.00  0.00    +0.048 S 
ATOM     28  O   UNL     1       0.724   3.952  21.667  0.00  0.00    -0.155 OA
ATOM     29  O   UNL     1       1.268   1.833  20.426  0.00  0.00    -0.155 OA
BRANCH  27  30
ATOM     30  C   UNL     1       2.356   4.112  19.611  0.00  0.00    +0.151 C 
ATOM     31  C   UNL     1       1.638   5.391  19.282  0.00  0.00    +0.030 C 
ATOM     32  C   UNL     1       1.455   4.186  18.401  0.00  0.00    +0.030 C 
ENDBRANCH  27  30
ENDBRANCH  24  27
ENDBRANCH  14  23
BRANCH   1  33
ATOM     33  O   UNL     1       4.780  -2.537  23.953  0.00  0.00    -0.488 OA
BRANCH  33  40
ATOM     34  C   UNL     1       5.178  -4.639  29.725  0.00  0.00    +0.050 C 
ATOM     35  C   UNL     1       5.488  -4.686  28.247  0.00  0.00    +0.017 A 
ATOM     36  C   UNL     1       4.771  -3.821  27.409  0.00  0.00    +0.082 A 
ATOM     37  N   UNL     1       3.819  -3.020  27.953  0.00  0.00    -0.244 NA
ATOM     38  C   UNL     1       3.161  -2.161  27.156  0.00  0.00    +0.100 A 
ATOM     39  C   UNL     1       3.441  -2.059  25.820  0.00  0.00    +0.076 A 
ATOM     40  C   UNL     1       4.421  -2.837  25.247  0.00  0.00    +0.132 A 
ATOM     41  C   UNL     1       5.093  -3.791  26.029  0.00  0.00    +0.043 A 
ATOM     42  C   UNL     1       6.047  -4.697  25.515  0.00  0.00    +0.017 A 
ATOM     43  C   UNL     1       6.732  -5.572  26.365  0.00  0.00    +0.047 A 
ATOM     44  C   UNL     1       6.482  -5.549  27.736  0.00  0.00    +0.125 A 
BRANCH  38  45
ATOM     45  C   UNL     1       2.197  -1.185  27.676  0.00  0.00    +0.127 A 
ATOM     46  S   UNL     1       1.441  -1.329  29.201  0.00  0.00    -0.074 S 
ATOM     47  C   UNL     1       0.800   0.258  29.016  0.00  0.00    +0.070 A 
ATOM     48  C   UNL     1       1.174   0.796  27.802  0.00  0.00    +0.052 A 
ATOM     49  N   UNL     1       1.946  -0.050  27.040  0.00  0.00    -0.242 NA
BRANCH  48  50
ATOM     50  C   UNL     1       0.833   2.154  27.246  0.00  0.00    +0.032 C 
ATOM     51  C   UNL     1       0.888   2.157  25.716  0.00  0.00    +0.014 C 
ATOM     52  C   UNL     1       1.745   3.256  27.800  0.00  0.00    +0.014 C 
ENDBRANCH  48  50
ENDBRANCH  38  45
BRANCH  44  53
ATOM     53  O   UNL     1       7.138  -6.317  28.661  0.00  0.00    -0.495 OA
ATOM     54  C   UNL     1       6.403  -7.323  29.346  0.00  0.00    +0.277 C 
ENDBRANCH  44  53
ENDBRANCH  33  40
ENDBRANCH   1  33
TORSDOF 8
ENDMDL
MODEL 4
REMARK VINA RESULT:      -5.5      4.427      7.546
REMARK  Name = 
REMARK  13 active torsions:
REMARK  status: ('A' for Active; 'I' for Inactive)
REMARK    1  A    between atoms: C_1  and  C_2
REMARK    2  A    between atoms: C_3  and  O_54
REMARK    3  A    between atoms: C_9  and  C_46
REMARK    4  A    between atoms: C_11  and  O_12
REMARK    5  A    between atoms: O_12  and  C_13
REMARK    6  A    between atoms: N_22  and  C_45
REMARK    7  A    between atoms: C_32  and  C_36
REMARK    8  A    between atoms: N_38  and  S_39
REMARK    9  A    between atoms: S_39  and  C_42
REMARK   10  A    between atoms: C_48  and  C_51
REMARK   11  A    between atoms: C_51  and  C_52
REMARK   12  A    between atoms: C_51  and  C_53
REMARK   13  A    between atoms: O_54  and  C_55
REMARK                            x       y       z     vdW  Elec       q    Type
REMARK                         _______ _______ _______ _____ _____    ______ ____
ROOT
ATOM      1  C   UNL     1       7.503  -0.400  26.803  0.00  0.00    +0.175 C 
ATOM      2  C   UNL     1       6.446  -1.530  26.724  0.00  0.00    +0.058 C 
ATOM      3  C   UNL     1       6.431  -1.813  25.189  0.00  0.00    +0.091 C 
ATOM      4  C   UNL     1       7.744  -2.590  24.870  0.00  0.00    +0.219 C 
ATOM      5  N   UNL     1       8.680  -2.043  23.990  0.00  0.00    -0.304 N 
ATOM      6  C   UNL     1       8.984  -2.952  22.893  0.00  0.00    +0.132 C 
ATOM      7  C   UNL     1       9.932  -1.516  24.579  0.00  0.00    +0.107 C 
ATOM      8  C   UNL     1      10.550  -0.395  23.741  0.00  0.00    +0.019 C 
ATOM      9  C   UNL     1      11.158   0.732  24.603  0.00  0.00    +0.006 C 
ATOM     10  C   UNL     1      10.882   2.131  24.043  0.00  0.00    +0.027 C 
ATOM     11  C   UNL     1       9.448   2.618  24.173  0.00  0.00    -0.031 C 
ATOM     12  C   UNL     1       8.635   2.652  23.106  0.00  0.00    -0.025 C 
ATOM     13  C   UNL     1       7.309   3.281  22.910  0.00  0.00    +0.046 C 
ATOM     14  C   UNL     1       5.876   2.714  22.893  0.00  0.00    +0.119 C 
ATOM     15  N   UNL     1       5.560   1.539  23.640  0.00  0.00    -0.301 N 
ATOM     16  H   UNL     1       5.204   1.756  24.571  0.00  0.00    +0.150 HD
ATOM     17  C   UNL     1       5.980   0.226  23.432  0.00  0.00    +0.218 C 
ATOM     18  O   UNL     1       6.171  -0.324  22.364  0.00  0.00    -0.275 OA
ATOM     19  C   UNL     1       6.675   2.738  21.634  0.00  0.00    +0.046 C 
ATOM     20  O   UNL     1       7.945  -3.687  25.398  0.00  0.00    -0.275 OA
ATOM     21  C   UNL     1       6.165  -0.375  24.799  0.00  0.00    +0.090 C 
ATOM     22  C   UNL     1       7.235   0.411  25.553  0.00  0.00    +0.058 C 
ENDROOT
BRANCH  14  23
ATOM     23  C   UNL     1       4.773   3.762  23.011  0.00  0.00    +0.256 C 
ATOM     24  N   UNL     1       3.758   3.649  22.079  0.00  0.00    -0.188 N 
ATOM     25  H   UNL     1       3.700   2.845  21.458  0.00  0.00    +0.176 HD
ATOM     26  O   UNL     1       4.819   4.601  23.909  0.00  0.00    -0.272 OA
BRANCH  24  27
ATOM     27  S   UNL     1       2.483   4.701  21.950  0.00  0.00    +0.048 S 
ATOM     28  O   UNL     1       2.997   5.940  21.411  0.00  0.00    -0.155 OA
ATOM     29  O   UNL     1       1.835   4.674  23.248  0.00  0.00    -0.155 OA
BRANCH  27  30
ATOM     30  C   UNL     1       1.328   4.027  20.724  0.00  0.00    +0.151 C 
ATOM     31  C   UNL     1       1.583   2.621  20.255  0.00  0.00    +0.030 C 
ATOM     32  C   UNL     1       1.957   3.780  19.372  0.00  0.00    +0.030 C 
ENDBRANCH  27  30
ENDBRANCH  24  27
ENDBRANCH  14  23
BRANCH   1  33
ATOM     33  O   UNL     1       7.553   0.515  27.894  0.00  0.00    -0.488 OA
BRANCH  33  40
ATOM     34  C   UNL     1       2.620   4.139  28.545  0.00  0.00    +0.050 C 
ATOM     35  C   UNL     1       3.314   2.798  28.510  0.00  0.00    +0.017 A 
ATOM     36  C   UNL     1       4.639   2.767  28.052  0.00  0.00    +0.082 A 
ATOM     37  N   UNL     1       5.214   3.924  27.634  0.00  0.00    -0.244 NA
ATOM     38  C   UNL     1       6.498   3.902  27.234  0.00  0.00    +0.100 A 
ATOM     39  C   UNL     1       7.241   2.753  27.261  0.00  0.00    +0.076 A 
ATOM     40  C   UNL     1       6.693   1.573  27.709  0.00  0.00    +0.132 A 
ATOM     41  C   UNL     1       5.338   1.535  28.079  0.00  0.00    +0.043 A 
ATOM     42  C   UNL     1       4.661   0.357  28.463  0.00  0.00    +0.017 A 
ATOM     43  C   UNL     1       3.330   0.404  28.890  0.00  0.00    +0.047 A 
ATOM     44  C   UNL     1       2.660   1.625  28.949  0.00  0.00    +0.125 A 
BRANCH  38  45
ATOM     45  C   UNL     1       7.230   5.120  26.871  0.00  0.00    +0.127 A 
ATOM     46  S   UNL     1       7.612   6.357  27.986  0.00  0.00    -0.074 S 
ATOM     47  C   UNL     1       8.599   7.108  26.792  0.00  0.00    +0.070 A 
ATOM     48  C   UNL     1       8.563   6.394  25.611  0.00  0.00    +0.052 A 
ATOM     49  N   UNL     1       7.756   5.281  25.665  0.00  0.00    -0.242 NA
BRANCH  48  50
ATOM     50  C   UNL     1       9.281   6.699  24.322  0.00  0.00    +0.032 C 
ATOM     51  C   UNL     1       8.386   6.423  23.110  0.00  0.00    +0.014 C 
ATOM     52  C   UNL     1      10.593   5.917  24.187  0.00  0.00    +0.014 C 
ENDBRANCH  48  50
ENDBRANCH  38  45
BRANCH  44  53
ATOM     53  O   UNL     1       1.380   1.792  29.407  0.00  0.00    -0.495 OA
ATOM     54  C   UNL     1       0.486   0.691  29.329  0.00  0.00    +0.277 C 
ENDBRANCH  44  53
ENDBRANCH  33  40
ENDBRANCH   1  33
TORSDOF 8
ENDMDL
MODEL 5
REMARK VINA RESULT:      -5.4      2.634      7.203
REMARK  Name = 
REMARK  13 active torsions:
REMARK  status: ('A' for Active; 'I' for Inactive)
REMARK    1  A    between atoms: C_1  and  C_2
REMARK    2  A    between atoms: C_3  and  O_54
REMARK    3  A    between atoms: C_9  and  C_46
REMARK    4  A    between atoms: C_11  and  O_12
REMARK    5  A    between atoms: O_12  and  C_13
REMARK    6  A    between atoms: N_22  and  C_45
REMARK    7  A    between atoms: C_32  and  C_36
REMARK    8  A    between atoms: N_38  and  S_39
REMARK    9  A    between atoms: S_39  and  C_42
REMARK   10  A    between atoms: C_48  and  C_51
REMARK   11  A    between atoms: C_51  and  C_52
REMARK   12  A    between atoms: C_51  and  C_53
REMARK   13  A    between atoms: O_54  and  C_55
REMARK                            x       y       z     vdW  Elec       q    Type
REMARK                         _______ _______ _______ _____ _____    ______ ____
ROOT
ATOM      1  C   UNL     1       3.517  -2.564  27.292  0.00  0.00    +0.175 C 
ATOM      2  C   UNL     1       2.295  -2.237  26.399  0.00  0.00    +0.058 C 
ATOM      3  C   UNL     1       2.274  -3.482  25.458  0.00  0.00    +0.091 C 
ATOM      4  C   UNL     1       1.730  -4.669  26.309  0.00  0.00    +0.219 C 
ATOM      5  N   UNL     1       2.528  -5.794  26.526  0.00  0.00    -0.304 N 
ATOM      6  C   UNL     1       1.860  -7.017  26.103  0.00  0.00    +0.132 C 
ATOM      7  C   UNL     1       3.098  -5.966  27.881  0.00  0.00    +0.107 C 
ATOM      8  C   UNL     1       4.412  -6.750  27.870  0.00  0.00    +0.019 C 
ATOM      9  C   UNL     1       5.445  -6.203  28.879  0.00  0.00    +0.006 C 
ATOM     10  C   UNL     1       6.873  -6.185  28.325  0.00  0.00    +0.027 C 
ATOM     11  C   UNL     1       7.150  -5.134  27.263  0.00  0.00    -0.031 C 
ATOM     12  C   UNL     1       7.263  -5.478  25.970  0.00  0.00    -0.025 C 
ATOM     13  C   UNL     1       7.747  -4.716  24.797  0.00  0.00    +0.046 C 
ATOM     14  C   UNL     1       7.018  -4.000  23.643  0.00  0.00    +0.119 C 
ATOM     15  N   UNL     1       5.704  -3.476  23.838  0.00  0.00    -0.301 N 
ATOM     16  H   UNL     1       5.716  -2.495  24.118  0.00  0.00    +0.150 HD
ATOM     17  C   UNL     1       4.506  -4.159  24.044  0.00  0.00    +0.218 C 
ATOM     18  O   UNL     1       4.172  -5.219  23.549  0.00  0.00    -0.275 OA
ATOM     19  C   UNL     1       7.351  -5.448  23.519  0.00  0.00    +0.046 C 
ATOM     20  O   UNL     1       0.592  -4.604  26.786  0.00  0.00    -0.275 OA
ATOM     21  C   UNL     1       3.713  -3.329  25.015  0.00  0.00    +0.090 C 
ATOM     22  C   UNL     1       4.487  -3.211  26.326  0.00  0.00    +0.058 C 
ENDROOT
BRANCH  14  23
ATOM     23  C   UNL     1       7.887  -3.037  22.838  0.00  0.00    +0.256 C 
ATOM     24  N   UNL     1       8.796  -2.310  23.585  0.00  0.00    -0.188 N 
ATOM     25  H   UNL     1       8.950  -2.511  24.570  0.00  0.00    +0.176 HD
ATOM     26  O   UNL     1       7.767  -2.979  21.617  0.00  0.00    -0.272 OA
BRANCH  24  27
ATOM     27  S   UNL     1       9.804  -1.150  22.961  0.00  0.00    +0.048 S 
ATOM     28  O   UNL     1       8.988  -0.226  22.207  0.00  0.00    -0.155 OA
ATOM     29  O   UNL     1      10.875  -1.885  22.315  0.00  0.00    -0.155 OA
BRANCH  27  30
ATOM     30  C   UNL     1      10.510  -0.222  24.352  0.00  0.00    +0.151 C 
ATOM     31  C   UNL     1       9.628   0.813  24.992  0.00  0.00    +0.030 C 
ATOM     32  C   UNL     1      10.724   1.243  24.055  0.00  0.00    +0.030 C 
ENDBRANCH  27  30
ENDBRANCH  24  27
ENDBRANCH  14  23
BRANCH   1  33
ATOM     33  O   UNL     1       4.235  -1.553  27.994  0.00  0.00    -0.488 OA
BRANCH  33  40
ATOM     34  C   UNL     1       2.198   4.250  27.732  0.00  0.00    +0.050 C 
ATOM     35  C   UNL     1       2.122   2.812  28.189  0.00  0.00    +0.017 A 
ATOM     36  C   UNL     1       2.998   1.896  27.590  0.00  0.00    +0.082 A 
ATOM     37  N   UNL     1       3.836   2.333  26.615  0.00  0.00    -0.244 NA
ATOM     38  C   UNL     1       4.705   1.464  26.070  0.00  0.00    +0.100 A 
ATOM     39  C   UNL     1       4.780   0.162  26.488  0.00  0.00    +0.076 A 
ATOM     40  C   UNL     1       3.964  -0.299  27.495  0.00  0.00    +0.132 A 
ATOM     41  C   UNL     1       3.000   0.556  28.052  0.00  0.00    +0.043 A 
ATOM     42  C   UNL     1       2.057   0.152  29.023  0.00  0.00    +0.017 A 
ATOM     43  C   UNL     1       1.171   1.076  29.588  0.00  0.00    +0.047 A 
ATOM     44  C   UNL     1       1.221   2.414  29.201  0.00  0.00    +0.125 A 
BRANCH  38  45
ATOM     45  C   UNL     1       5.718   1.873  25.091  0.00  0.00    +0.127 A 
ATOM     46  S   UNL     1       6.099   0.967  23.694  0.00  0.00    -0.074 S 
ATOM     47  C   UNL     1       7.073   2.269  23.132  0.00  0.00    +0.070 A 
ATOM     48  C   UNL     1       7.075   3.305  24.044  0.00  0.00    +0.052 A 
ATOM     49  N   UNL     1       6.321   3.051  25.167  0.00  0.00    -0.242 NA
BRANCH  48  50
ATOM     50  C   UNL     1       7.792   4.626  23.945  0.00  0.00    +0.032 C 
ATOM     51  C   UNL     1       8.730   4.839  25.136  0.00  0.00    +0.014 C 
ATOM     52  C   UNL     1       6.822   5.808  23.831  0.00  0.00    +0.014 C 
ENDBRANCH  48  50
ENDBRANCH  38  45
BRANCH  44  53
ATOM     53  O   UNL     1       0.444   3.409  29.733  0.00  0.00    -0.495 OA
ATOM     54  C   UNL     1       1.083   4.445  30.466  0.00  0.00    +0.277 C 
ENDBRANCH  44  53
ENDBRANCH  33  40
ENDBRANCH   1  33
TORSDOF 8
ENDMDL
MODEL 6
REMARK VINA RESULT:      -5.4      2.869      6.722
REMARK  Name = 
REMARK  13 active torsions:
REMARK  status: ('A' for Active; 'I' for Inactive)
REMARK    1  A    between atoms: C_1  and  C_2
REMARK    2  A    between atoms: C_3  and  O_54
REMARK    3  A    between atoms: C_9  and  C_46
REMARK    4  A    between atoms: C_11  and  O_12
REMARK    5  A    between atoms: O_12  and  C_13
REMARK    6  A    between atoms: N_22  and  C_45
REMARK    7  A    between atoms: C_32  and  C_36
REMARK    8  A    between atoms: N_38  and  S_39
REMARK    9  A    between atoms: S_39  and  C_42
REMARK   10  A    between atoms: C_48  and  C_51
REMARK   11  A    between atoms: C_51  and  C_52
REMARK   12  A    between atoms: C_51  and  C_53
REMARK   13  A    between atoms: O_54  and  C_55
REMARK                            x       y       z     vdW  Elec       q    Type
REMARK                         _______ _______ _______ _____ _____    ______ ____
ROOT
ATOM      1  C   UNL     1       4.433  -0.132  26.942  0.00  0.00    +0.175 C 
ATOM      2  C   UNL     1       5.435  -0.624  28.015  0.00  0.00    +0.058 C 
ATOM      3  C   UNL     1       5.867   0.731  28.659  0.00  0.00    +0.091 C 
ATOM      4  C   UNL     1       4.671   1.202  29.540  0.00  0.00    +0.219 C 
ATOM      5  N   UNL     1       4.032   2.411  29.259  0.00  0.00    -0.304 N 
ATOM      6  C   UNL     1       4.017   3.295  30.416  0.00  0.00    +0.132 C 
ATOM      7  C   UNL     1       2.682   2.336  28.655  0.00  0.00    +0.107 C 
ATOM      8  C   UNL     1       2.355   3.558  27.794  0.00  0.00    +0.019 C 
ATOM      9  C   UNL     1       1.566   3.197  26.517  0.00  0.00    +0.006 C 
ATOM     10  C   UNL     1       2.029   3.981  25.284  0.00  0.00    +0.027 C 
ATOM     11  C   UNL     1       3.384   3.582  24.725  0.00  0.00    -0.031 C 
ATOM     12  C   UNL     1       4.462   4.358  24.917  0.00  0.00    -0.025 C 
ATOM     13  C   UNL     1       5.808   4.327  24.303  0.00  0.00    +0.046 C 
ATOM     14  C   UNL     1       7.172   3.810  24.801  0.00  0.00    +0.119 C 
ATOM     15  N   UNL     1       7.233   2.744  25.748  0.00  0.00    -0.301 N 
ATOM     16  H   UNL     1       7.324   1.832  25.299  0.00  0.00    +0.150 HD
ATOM     17  C   UNL     1       6.848   2.734  27.088  0.00  0.00    +0.218 C 
ATOM     18  O   UNL     1       6.944   3.648  27.886  0.00  0.00    -0.275 OA
ATOM     19  C   UNL     1       6.755   5.207  25.112  0.00  0.00    +0.046 C 
ATOM     20  O   UNL     1       4.298   0.500  30.485  0.00  0.00    -0.275 OA
ATOM     21  C   UNL     1       6.273   1.369  27.348  0.00  0.00    +0.090 C 
ATOM     22  C   UNL     1       5.060   1.153  26.446  0.00  0.00    +0.058 C 
ENDROOT
BRANCH  14  23
ATOM     23  C   UNL     1       8.230   3.650  23.712  0.00  0.00    +0.256 C 
ATOM     24  N   UNL     1       9.392   3.018  24.117  0.00  0.00    -0.188 N 
ATOM     25  H   UNL     1       9.463   2.583  25.033  0.00  0.00    +0.176 HD
ATOM     26  O   UNL     1       7.999   4.043  22.571  0.00  0.00    -0.272 OA
BRANCH  24  27
ATOM     27  S   UNL     1      10.717   2.784  23.147  0.00  0.00    +0.048 S 
ATOM     28  O   UNL     1      10.250   2.202  21.909  0.00  0.00    -0.155 OA
ATOM     29  O   UNL     1      11.676   2.080  23.978  0.00  0.00    -0.155 OA
BRANCH  27  30
ATOM     30  C   UNL     1      11.403   4.414  22.744  0.00  0.00    +0.151 C 
ATOM     31  C   UNL     1      12.729   4.761  23.361  0.00  0.00    +0.030 C 
ATOM     32  C   UNL     1      11.467   5.353  23.925  0.00  0.00    +0.030 C 
ENDBRANCH  27  30
ENDBRANCH  24  27
ENDBRANCH  14  23
BRANCH   1  33
ATOM     33  O   UNL     1       4.110  -0.912  25.793  0.00  0.00    -0.488 OA
BRANCH  33  40
ATOM     34  C   UNL     1       8.994  -4.590  25.083  0.00  0.00    +0.050 C 
ATOM     35  C   UNL     1       8.169  -3.365  24.763  0.00  0.00    +0.017 A 
ATOM     36  C   UNL     1       6.878  -3.297  25.306  0.00  0.00    +0.082 A 
ATOM     37  N   UNL     1       6.424  -4.337  26.052  0.00  0.00    -0.244 NA
ATOM     38  C   UNL     1       5.202  -4.253  26.606  0.00  0.00    +0.100 A 
ATOM     39  C   UNL     1       4.418  -3.141  26.456  0.00  0.00    +0.076 A 
ATOM     40  C   UNL     1       4.864  -2.060  25.731  0.00  0.00    +0.132 A 
ATOM     41  C   UNL     1       6.109  -2.127  25.083  0.00  0.00    +0.043 A 
ATOM     42  C   UNL     1       6.613  -1.111  24.243  0.00  0.00    +0.017 A 
ATOM     43  C   UNL     1       7.893  -1.211  23.688  0.00  0.00    +0.047 A 
ATOM     44  C   UNL     1       8.690  -2.319  23.971  0.00  0.00    +0.125 A 
BRANCH  38  45
ATOM     45  C   UNL     1       4.678  -5.279  27.514  0.00  0.00    +0.127 A 
ATOM     46  S   UNL     1       5.377  -5.641  29.030  0.00  0.00    -0.074 S 
ATOM     47  C   UNL     1       4.030  -6.649  29.395  0.00  0.00    +0.070 A 
ATOM     48  C   UNL     1       3.141  -6.673  28.339  0.00  0.00    +0.052 A 
ATOM     49  N   UNL     1       3.539  -5.910  27.266  0.00  0.00    -0.242 NA
BRANCH  48  50
ATOM     50  C   UNL     1       1.838  -7.423  28.243  0.00  0.00    +0.032 C 
ATOM     51  C   UNL     1       1.435  -7.651  26.784  0.00  0.00    +0.014 C 
ATOM     52  C   UNL     1       0.701  -6.714  28.990  0.00  0.00    +0.014 C 
ENDBRANCH  48  50
ENDBRANCH  38  45
BRANCH  44  53
ATOM     53  O   UNL     1       9.976  -2.488  23.531  0.00  0.00    -0.495 OA
ATOM     54  C   UNL     1      10.506  -1.542  22.612  0.00  0.00    +0.277 C 
ENDBRANCH  44  53
ENDBRANCH  33  40
ENDBRANCH   1  33
TORSDOF 8
ENDMDL
MODEL 7
REMARK VINA RESULT:      -5.4      4.285      7.301
REMARK  Name = 
REMARK  13 active torsions:
REMARK  status: ('A' for Active; 'I' for Inactive)
REMARK    1  A    between atoms: C_1  and  C_2
REMARK    2  A    between atoms: C_3  and  O_54
REMARK    3  A    between atoms: C_9  and  C_46
REMARK    4  A    between atoms: C_11  and  O_12
REMARK    5  A    between atoms: O_12  and  C_13
REMARK    6  A    between atoms: N_22  and  C_45
REMARK    7  A    between atoms: C_32  and  C_36
REMARK    8  A    between atoms: N_38  and  S_39
REMARK    9  A    between atoms: S_39  and  C_42
REMARK   10  A    between atoms: C_48  and  C_51
REMARK   11  A    between atoms: C_51  and  C_52
REMARK   12  A    between atoms: C_51  and  C_53
REMARK   13  A    between atoms: O_54  and  C_55
REMARK                            x       y       z     vdW  Elec       q    Type
REMARK                         _______ _______ _______ _____ _____    ______ ____
ROOT
ATOM      1  C   UNL     1       7.287  -0.601  26.390  0.00  0.00    +0.175 C 
ATOM      2  C   UNL     1       6.014  -1.430  26.087  0.00  0.00    +0.058 C 
ATOM      3  C   UNL     1       6.016  -1.413  24.526  0.00  0.00    +0.091 C 
ATOM      4  C   UNL     1       7.141  -2.393  24.075  0.00  0.00    +0.219 C 
ATOM      5  N   UNL     1       8.218  -1.918  23.325  0.00  0.00    -0.304 N 
ATOM      6  C   UNL     1       8.372  -2.653  22.077  0.00  0.00    +0.132 C 
ATOM      7  C   UNL     1       9.524  -1.804  24.015  0.00  0.00    +0.107 C 
ATOM      8  C   UNL     1      10.414  -0.715  23.412  0.00  0.00    +0.019 C 
ATOM      9  C   UNL     1      11.209   0.067  24.479  0.00  0.00    +0.006 C 
ATOM     10  C   UNL     1      11.275   1.571  24.195  0.00  0.00    +0.027 C 
ATOM     11  C   UNL     1       9.978   2.335  24.404  0.00  0.00    -0.031 C 
ATOM     12  C   UNL     1       9.248   2.748  23.356  0.00  0.00    -0.025 C 
ATOM     13  C   UNL     1       8.104   3.684  23.272  0.00  0.00    +0.046 C 
ATOM     14  C   UNL     1       6.584   3.466  23.135  0.00  0.00    +0.119 C 
ATOM     15  N   UNL     1       5.980   2.275  23.640  0.00  0.00    -0.301 N 
ATOM     16  H   UNL     1       5.634   2.391  24.592  0.00  0.00    +0.150 HD
ATOM     17  C   UNL     1       6.113   0.962  23.189  0.00  0.00    +0.218 C 
ATOM     18  O   UNL     1       6.233   0.591  22.036  0.00  0.00    -0.275 OA
ATOM     19  C   UNL     1       7.432   3.542  21.910  0.00  0.00    +0.046 C 
ATOM     20  O   UNL     1       7.069  -3.586  24.386  0.00  0.00    -0.275 OA
ATOM     21  C   UNL     1       6.092   0.094  24.416  0.00  0.00    +0.090 C 
ATOM     22  C   UNL     1       7.268   0.466  25.316  0.00  0.00    +0.058 C 
ENDROOT
BRANCH  14  23
ATOM     23  C   UNL     1       5.733   4.695  23.442  0.00  0.00    +0.256 C 
ATOM     24  N   UNL     1       4.945   4.591  24.574  0.00  0.00    -0.188 N 
ATOM     25  H   UNL     1       5.040   3.803  25.211  0.00  0.00    +0.176 HD
ATOM     26  O   UNL     1       5.808   5.688  22.721  0.00  0.00    -0.272 OA
BRANCH  24  27
ATOM     27  S   UNL     1       3.881   5.755  25.085  0.00  0.00    +0.048 S 
ATOM     28  O   UNL     1       2.971   6.020  23.993  0.00  0.00    -0.155 OA
ATOM     29  O   UNL     1       4.710   6.815  25.628  0.00  0.00    -0.155 OA
BRANCH  27  30
ATOM     30  C   UNL     1       2.897   5.053  26.438  0.00  0.00    +0.151 C 
ATOM     31  C   UNL     1       1.408   5.246  26.363  0.00  0.00    +0.030 C 
ATOM     32  C   UNL     1       2.223   6.095  27.299  0.00  0.00    +0.030 C 
ENDBRANCH  27  30
ENDBRANCH  24  27
ENDBRANCH  14  23
BRANCH   1  33
ATOM     33  O   UNL     1       7.480   0.062  27.637  0.00  0.00    -0.488 OA
BRANCH  33  40
ATOM     34  C   UNL     1       2.841   3.504  29.764  0.00  0.00    +0.050 C 
ATOM     35  C   UNL     1       3.487   2.189  29.395  0.00  0.00    +0.017 A 
ATOM     36  C   UNL     1       4.699   2.240  28.691  0.00  0.00    +0.082 A 
ATOM     37  N   UNL     1       5.208   3.451  28.349  0.00  0.00    -0.244 NA
ATOM     38  C   UNL     1       6.390   3.501  27.711  0.00  0.00    +0.100 A 
ATOM     39  C   UNL     1       7.100   2.367  27.421  0.00  0.00    +0.076 A 
ATOM     40  C   UNL     1       6.623   1.128  27.783  0.00  0.00    +0.132 A 
ATOM     41  C   UNL     1       5.364   1.023  28.396  0.00  0.00    +0.043 A 
ATOM     42  C   UNL     1       4.748  -0.205  28.721  0.00  0.00    +0.017 A 
ATOM     43  C   UNL     1       3.524  -0.234  29.398  0.00  0.00    +0.047 A 
ATOM     44  C   UNL     1       2.905   0.958  29.768  0.00  0.00    +0.125 A 
BRANCH  38  45
ATOM     45  C   UNL     1       7.065   4.766  27.402  0.00  0.00    +0.127 A 
ATOM     46  S   UNL     1       6.933   6.165  28.373  0.00  0.00    -0.074 S 
ATOM     47  C   UNL     1       8.165   6.915  27.434  0.00  0.00    +0.070 A 
ATOM     48  C   UNL     1       8.588   6.074  26.424  0.00  0.00    +0.052 A 
ATOM     49  N   UNL     1       7.932   4.866  26.404  0.00  0.00    -0.242 NA
BRANCH  48  50
ATOM     50  C   UNL     1       9.646   6.335  25.383  0.00  0.00    +0.032 C 
ATOM     51  C   UNL     1      10.828   7.108  25.975  0.00  0.00    +0.014 C 
ATOM     52  C   UNL     1       9.092   7.086  24.166  0.00  0.00    +0.014 C 
ENDBRANCH  48  50
ENDBRANCH  38  45
BRANCH  44  53
ATOM     53  O   UNL     1       1.740   1.043  30.485  0.00  0.00    -0.495 OA
ATOM     54  C   UNL     1       0.592   0.366  29.990  0.00  0.00    +0.277 C 
ENDBRANCH  44  53
ENDBRANCH  33  40
ENDBRANCH   1  33
TORSDOF 8
ENDMDL
MODEL 8
REMARK VINA RESULT:      -5.3      3.225      6.864
REMARK  Name = 
REMARK  13 active torsions:
REMARK  status: ('A' for Active; 'I' for Inactive)
REMARK    1  A    between atoms: C_1  and  C_2
REMARK    2  A    between atoms: C_3  and  O_54
REMARK    3  A    between atoms: C_9  and  C_46
REMARK    4  A    between atoms: C_11  and  O_12
REMARK    5  A    between atoms: O_12  and  C_13
REMARK    6  A    between atoms: N_22  and  C_45
REMARK    7  A    between atoms: C_32  and  C_36
REMARK    8  A    between atoms: N_38  and  S_39
REMARK    9  A    between atoms: S_39  and  C_42
REMARK   10  A    between atoms: C_48  and  C_51
REMARK   11  A    between atoms: C_51  and  C_52
REMARK   12  A    between atoms: C_51  and  C_53
REMARK   13  A    between atoms: O_54  and  C_55
REMARK                            x       y       z     vdW  Elec       q    Type
REMARK                         _______ _______ _______ _____ _____    ______ ____
ROOT
ATOM      1  C   UNL     1       4.293   0.654  27.073  0.00  0.00    +0.175 C 
ATOM      2  C   UNL     1       5.053   0.190  28.341  0.00  0.00    +0.058 C 
ATOM      3  C   UNL     1       5.447   1.564  28.967  0.00  0.00    +0.091 C 
ATOM      4  C   UNL     1       4.144   2.159  29.583  0.00  0.00    +0.219 C 
ATOM      5  N   UNL     1       3.644   3.375  29.114  0.00  0.00    -0.304 N 
ATOM      6  C   UNL     1       3.478   4.340  30.193  0.00  0.00    +0.132 C 
ATOM      7  C   UNL     1       2.423   3.326  28.279  0.00  0.00    +0.107 C 
ATOM      8  C   UNL     1       2.336   4.497  27.298  0.00  0.00    +0.019 C 
ATOM      9  C   UNL     1       1.768   4.086  25.923  0.00  0.00    +0.006 C 
ATOM     10  C   UNL     1       2.494   4.753  24.750  0.00  0.00    +0.027 C 
ATOM     11  C   UNL     1       3.900   4.246  24.475  0.00  0.00    -0.031 C 
ATOM     12  C   UNL     1       4.973   4.978  24.813  0.00  0.00    -0.025 C 
ATOM     13  C   UNL     1       6.403   4.833  24.461  0.00  0.00    +0.046 C 
ATOM     14  C   UNL     1       7.619   4.285  25.232  0.00  0.00    +0.119 C 
ATOM     15  N   UNL     1       7.441   3.287  26.239  0.00  0.00    -0.301 N 
ATOM     16  H   UNL     1       7.552   2.342  25.871  0.00  0.00    +0.150 HD
ATOM     17  C   UNL     1       6.821   3.395  27.483  0.00  0.00    +0.218 C 
ATOM     18  O   UNL     1       6.829   4.358  28.227  0.00  0.00    -0.275 OA
ATOM     19  C   UNL     1       7.242   5.720  25.374  0.00  0.00    +0.046 C 
ATOM     20  O   UNL     1       3.564   1.547  30.485  0.00  0.00    -0.275 OA
ATOM     21  C   UNL     1       6.123   2.083  27.717  0.00  0.00    +0.090 C 
ATOM     22  C   UNL     1       5.080   1.865  26.622  0.00  0.00    +0.058 C 
ENDROOT
BRANCH  14  23
ATOM     23  C   UNL     1       8.843   3.991  24.369  0.00  0.00    +0.256 C 
ATOM     24  N   UNL     1       9.277   2.678  24.398  0.00  0.00    -0.188 N 
ATOM     25  H   UNL     1       8.731   1.954  24.858  0.00  0.00    +0.176 HD
ATOM     26  O   UNL     1       9.345   4.887  23.693  0.00  0.00    -0.272 OA
BRANCH  24  27
ATOM     27  S   UNL     1      10.622   2.119  23.607  0.00  0.00    +0.048 S 
ATOM     28  O   UNL     1      11.032   0.896  24.259  0.00  0.00    -0.155 OA
ATOM     29  O   UNL     1      11.521   3.255  23.536  0.00  0.00    -0.155 OA
BRANCH  27  30
ATOM     30  C   UNL     1      10.128   1.679  21.917  0.00  0.00    +0.151 C 
ATOM     31  C   UNL     1       8.653   1.643  21.630  0.00  0.00    +0.030 C 
ATOM     32  C   UNL     1       9.406   0.356  21.822  0.00  0.00    +0.030 C 
ENDBRANCH  27  30
ENDBRANCH  24  27
ENDBRANCH  14  23
BRANCH   1  33
ATOM     33  O   UNL     1       4.133  -0.190  25.935  0.00  0.00    -0.488 OA
BRANCH  33  40
ATOM     34  C   UNL     1       7.353  -5.265  27.263  0.00  0.00    +0.050 C 
ATOM     35  C   UNL     1       7.153  -3.935  26.575  0.00  0.00    +0.017 A 
ATOM     36  C   UNL     1       5.875  -3.363  26.634  0.00  0.00    +0.082 A 
ATOM     37  N   UNL     1       4.882  -4.040  27.267  0.00  0.00    -0.244 NA
ATOM     38  C   UNL     1       3.667  -3.472  27.358  0.00  0.00    +0.100 A 
ATOM     39  C   UNL     1       3.414  -2.226  26.853  0.00  0.00    +0.076 A 
ATOM     40  C   UNL     1       4.409  -1.504  26.235  0.00  0.00    +0.132 A 
ATOM     41  C   UNL     1       5.677  -2.081  26.061  0.00  0.00    +0.043 A 
ATOM     42  C   UNL     1       6.735  -1.460  25.360  0.00  0.00    +0.017 A 
ATOM     43  C   UNL     1       7.996  -2.061  25.289  0.00  0.00    +0.047 A 
ATOM     44  C   UNL     1       8.222  -3.282  25.923  0.00  0.00    +0.125 A 
BRANCH  38  45
ATOM     45  C   UNL     1       2.569  -4.082  28.116  0.00  0.00    +0.127 A 
ATOM     46  S   UNL     1       1.053  -3.330  28.349  0.00  0.00    -0.074 S 
ATOM     47  C   UNL     1       0.449  -4.790  29.031  0.00  0.00    +0.070 A 
ATOM     48  C   UNL     1       1.436  -5.755  29.067  0.00  0.00    +0.052 A 
ATOM     49  N   UNL     1       2.644  -5.326  28.568  0.00  0.00    -0.242 NA
BRANCH  48  50
ATOM     50  C   UNL     1       1.331  -7.168  29.580  0.00  0.00    +0.032 C 
ATOM     51  C   UNL     1       2.597  -7.577  30.339  0.00  0.00    +0.014 C 
ATOM     52  C   UNL     1       1.050  -8.176  28.459  0.00  0.00    +0.014 C 
ENDBRANCH  48  50
ENDBRANCH  38  45
BRANCH  44  53
ATOM     53  O   UNL     1       9.431  -3.926  25.967  0.00  0.00    -0.495 OA
ATOM     54  C   UNL     1       9.611  -5.079  25.156  0.00  0.00    +0.277 C 
ENDBRANCH  44  53
ENDBRANCH  33  40
ENDBRANCH   1  33
TORSDOF 8
ENDMDL
MODEL 9
REMARK VINA RESULT:      -5.3      2.393      5.277
REMARK  Name = 
REMARK  13 active torsions:
REMARK  status: ('A' for Active; 'I' for Inactive)
REMARK    1  A    between atoms: C_1  and  C_2
REMARK    2  A    between atoms: C_3  and  O_54
REMARK    3  A    between atoms: C_9  and  C_46
REMARK    4  A    between atoms: C_11  and  O_12
REMARK    5  A    between atoms: O_12  and  C_13
REMARK    6  A    between atoms: N_22  and  C_45
REMARK    7  A    between atoms: C_32  and  C_36
REMARK    8  A    between atoms: N_38  and  S_39
REMARK    9  A    between atoms: S_39  and  C_42
REMARK   10  A    between atoms: C_48  and  C_51
REMARK   11  A    between atoms: C_51  and  C_52
REMARK   12  A    between atoms: C_51  and  C_53
REMARK   13  A    between atoms: O_54  and  C_55
REMARK                            x       y       z     vdW  Elec       q    Type
REMARK                         _______ _______ _______ _____ _____    ______ ____
ROOT
ATOM      1  C   UNL     1       5.144  -3.101  23.790  0.00  0.00    +0.175 C 
ATOM      2  C   UNL     1       4.924  -3.552  22.325  0.00  0.00    +0.058 C 
ATOM      3  C   UNL     1       6.391  -3.853  21.885  0.00  0.00    +0.091 C 
ATOM      4  C   UNL     1       6.791  -5.195  22.570  0.00  0.00    +0.219 C 
ATOM      5  N   UNL     1       7.858  -5.227  23.468  0.00  0.00    -0.304 N 
ATOM      6  C   UNL     1       8.860  -6.211  23.080  0.00  0.00    +0.132 C 
ATOM      7  C   UNL     1       7.528  -5.374  24.904  0.00  0.00    +0.107 C 
ATOM      8  C   UNL     1       8.584  -4.748  25.817  0.00  0.00    +0.019 C 
ATOM      9  C   UNL     1       7.972  -4.042  27.045  0.00  0.00    +0.006 C 
ATOM     10  C   UNL     1       8.664  -2.717  27.383  0.00  0.00    +0.027 C 
ATOM     11  C   UNL     1       8.394  -1.573  26.419  0.00  0.00    -0.031 C 
ATOM     12  C   UNL     1       9.330  -1.181  25.540  0.00  0.00    -0.025 C 
ATOM     13  C   UNL     1       9.414   0.018  24.676  0.00  0.00    +0.046 C 
ATOM     14  C   UNL     1       9.153   0.244  23.174  0.00  0.00    +0.119 C 
ATOM     15  N   UNL     1       8.222  -0.583  22.475  0.00  0.00    -0.301 N 
ATOM     16  H   UNL     1       7.285  -0.179  22.452  0.00  0.00    +0.150 HD
ATOM     17  C   UNL     1       8.314  -1.937  22.157  0.00  0.00    +0.218 C 
ATOM     18  O   UNL     1       9.319  -2.553  21.853  0.00  0.00    -0.275 OA
ATOM     19  C   UNL     1      10.505  -0.188  23.630  0.00  0.00    +0.046 C 
ATOM     20  O   UNL     1       6.158  -6.223  22.308  0.00  0.00    -0.275 OA
ATOM     21  C   UNL     1       6.922  -2.493  22.282  0.00  0.00    +0.090 C 
ATOM     22  C   UNL     1       6.437  -2.317  23.720  0.00  0.00    +0.058 C 
ENDROOT
BRANCH  14  23
ATOM     23  C   UNL     1       9.015   1.707  22.763  0.00  0.00    +0.256 C 
ATOM     24  N   UNL     1       8.061   2.422  23.463  0.00  0.00    -0.188 N 
ATOM     25  H   UNL     1       7.593   2.024  24.273  0.00  0.00    +0.176 HD
ATOM     26  O   UNL     1       9.747   2.170  21.891  0.00  0.00    -0.272 OA
BRANCH  24  27
ATOM     27  S   UNL     1       7.669   4.005  23.161  0.00  0.00    +0.048 S 
ATOM     28  O   UNL     1       7.060   4.059  21.852  0.00  0.00    -0.155 OA
ATOM     29  O   UNL     1       8.878   4.756  23.445  0.00  0.00    -0.155 OA
BRANCH  27  30
ATOM     30  C   UNL     1       6.399   4.501  24.359  0.00  0.00    +0.151 C 
ATOM     31  C   UNL     1       4.987   4.586  23.852  0.00  0.00    +0.030 C 
ATOM     32  C   UNL     1       5.780   5.846  24.063  0.00  0.00    +0.030 C 
ENDBRANCH  27  30
ENDBRANCH  24  27
ENDBRANCH  14  23
BRANCH   1  33
ATOM     33  O   UNL     1       4.199  -2.288  24.483  0.00  0.00    -0.488 OA
BRANCH  33  40
ATOM     34  C   UNL     1       4.972   0.106  30.101  0.00  0.00    +0.050 C 
ATOM     35  C   UNL     1       5.018   0.162  28.592  0.00  0.00    +0.017 A 
ATOM     36  C   UNL     1       4.823  -1.039  27.895  0.00  0.00    +0.082 A 
ATOM     37  N   UNL     1       4.639  -2.184  28.600  0.00  0.00    -0.244 NA
ATOM     38  C   UNL     1       4.410  -3.328  27.932  0.00  0.00    +0.100 A 
ATOM     39  C   UNL     1       4.334  -3.361  26.566  0.00  0.00    +0.076 A 
ATOM     40  C   UNL     1       4.486  -2.210  25.826  0.00  0.00    +0.132 A 
ATOM     41  C   UNL     1       4.787  -1.003  26.478  0.00  0.00    +0.043 A 
ATOM     42  C   UNL     1       5.051   0.210  25.804  0.00  0.00    +0.017 A 
ATOM     43  C   UNL     1       5.273   1.391  26.519  0.00  0.00    +0.047 A 
ATOM     44  C   UNL     1       5.224   1.382  27.912  0.00  0.00    +0.125 A 
BRANCH  38  45
ATOM     45  C   UNL     1       4.093  -4.588  28.613  0.00  0.00    +0.127 A 
ATOM     46  S   UNL     1       4.995  -5.199  29.929  0.00  0.00    -0.074 S 
ATOM     47  C   UNL     1       3.800  -6.415  30.164  0.00  0.00    +0.070 A 
ATOM     48  C   UNL     1       2.800  -6.305  29.219  0.00  0.00    +0.052 A 
ATOM     49  N   UNL     1       2.998  -5.277  28.327  0.00  0.00    -0.242 NA
BRANCH  48  50
ATOM     50  C   UNL     1       1.571  -7.162  29.066  0.00  0.00    +0.032 C 
ATOM     51  C   UNL     1       1.676  -8.438  29.906  0.00  0.00    +0.014 C 
ATOM     52  C   UNL     1       1.293  -7.526  27.602  0.00  0.00    +0.014 C 
ENDBRANCH  48  50
ENDBRANCH  38  45
BRANCH  44  53
ATOM     53  O   UNL     1       5.365   2.490  28.705  0.00  0.00    -0.495 OA
ATOM     54  C   UNL     1       6.583   3.219  28.635  0.00  0.00    +0.277 C 
ENDBRANCH  44  53
ENDBRANCH  33  40
ENDBRANCH   1  33
TORSDOF 8
ENDMDL
