MODEL 1
REMARK VINA RESULT:      -5.8      0.000      0.000
REMARK  Name = 
REMARK  13 active torsions:
REMARK  status: ('A' for Active; 'I' for Inactive)
REMARK    1  A    between atoms: C_1  and  C_2
REMARK    2  A    between atoms: C_2  and  C_3
REMARK    3  A    between atoms: C_3  and  C_4
REMARK    4  A    between atoms: C_3  and  O_6
REMARK    5  A    between atoms: C_4  and  C_5
REMARK    6  A    between atoms: O_6  and  C_7
REMARK    7  A    between atoms: C_9  and  C_18
REMARK    8  A    between atoms: C_11  and  N_17
REMARK    9  A    between atoms: C_12  and  N_13
REMARK   10  A    between atoms: C_14  and  C_16
REMARK   11  A    between atoms: C_18  and  O_20
REMARK   12  A    between atoms: O_20  and  C_21
REMARK   13  A    between atoms: C_21  and  C_22
REMARK                            x       y       z     vdW  Elec       q    Type
REMARK                         _______ _______ _______ _____ _____    ______ ____
ROOT
ATOM      1  C   UNL     1       8.759  -3.835  25.308  0.00  0.00    +0.164 C 
ATOM      2  C   UNL     1       8.098  -2.984  26.440  0.00  0.00    +0.122 C 
ATOM      3  C   UNL     1       8.189  -1.429  26.314  0.00  0.00    +0.078 C 
ATOM      4  C   UNL     1       8.599  -0.866  24.945  0.00  0.00    +0.062 C 
ATOM      5  C   UNL     1       9.445  -1.753  24.094  0.00  0.00    +0.037 C 
ATOM      6  C   UNL     1       9.552  -3.073  24.299  0.00  0.00    +0.016 C 
ENDROOT
BRANCH   2   7
ATOM      7  N   UNL     1       6.721  -3.411  26.715  0.00  0.00    -0.308 N 
ATOM      8  H   UNL     1       5.985  -2.831  26.325  0.00  0.00    +0.149 HD
ATOM      9  C   UNL     1       6.435  -4.528  27.464  0.00  0.00    +0.210 C 
ATOM     10  C   UNL     1       4.968  -4.752  27.709  0.00  0.00    +0.109 C 
ATOM     11  O   UNL     1       7.297  -5.262  27.935  0.00  0.00    -0.276 OA
ENDBRANCH   2   7
BRANCH   3  12
ATOM     12  N   UNL     1       9.041  -0.850  27.379  0.00  0.00    -0.325 NA
ATOM     13  H   UNL     1       8.748   0.128  27.497  0.00  0.00    +0.119 HD
ATOM     14  H   UNL     1       8.858  -1.303  28.270  0.00  0.00    +0.119 HD
ENDBRANCH   3  12
BRANCH   5  15
ATOM     15  C   UNL     1      10.013  -1.104  22.874  0.00  0.00    +0.335 C 
ATOM     16  O   UNL     1      10.468  -1.728  21.930  0.00  0.00    -0.245 OA
BRANCH  15  17
ATOM     17  O   UNL     1      10.143   0.232  23.079  0.00  0.00    -0.462 OA
BRANCH  17  18
ATOM     18  C   UNL     1       9.960   1.050  21.916  0.00  0.00    +0.229 C 
ATOM     19  C   UNL     1       8.465   1.251  21.727  0.00  0.00    +0.048 C 
ENDBRANCH  17  18
ENDBRANCH  15  17
ENDBRANCH   5  15
BRANCH   1  20
ATOM     20  O   UNL     1       7.727  -4.594  24.630  0.00  0.00    -0.367 OA
BRANCH  20  21
ATOM     21  C   UNL     1       7.497  -4.330  23.228  0.00  0.00    +0.119 C 
BRANCH  21  23
ATOM     22  C   UNL     1       6.399  -5.829  21.437  0.00  0.00    +0.006 C 
ATOM     23  C   UNL     1       7.561  -5.627  22.398  0.00  0.00    +0.028 C 
ENDBRANCH  21  23
BRANCH  21  24
ATOM     24  C   UNL     1       6.112  -3.662  23.122  0.00  0.00    +0.028 C 
ATOM     25  C   UNL     1       6.160  -2.239  22.575  0.00  0.00    +0.006 C 
ENDBRANCH  21  24
ENDBRANCH  20  21
ENDBRANCH   1  20
TORSDOF 9
ENDMDL
MODEL 2
REMARK VINA RESULT:      -5.7      1.763      2.319
REMARK  Name = 
REMARK  13 active torsions:
REMARK  status: ('A' for Active; 'I' for Inactive)
REMARK    1  A    between atoms: C_1  and  C_2
REMARK    2  A    between atoms: C_2  and  C_3
REMARK    3  A    between atoms: C_3  and  C_4
REMARK    4  A    between atoms: C_3  and  O_6
REMARK    5  A    between atoms: C_4  and  C_5
REMARK    6  A    between atoms: O_6  and  C_7
REMARK    7  A    between atoms: C_9  and  C_18
REMARK    8  A    between atoms: C_11  and  N_17
REMARK    9  A    between atoms: C_12  and  N_13
REMARK   10  A    between atoms: C_14  and  C_16
REMARK   11  A    between atoms: C_18  and  O_20
REMARK   12  A    between atoms: O_20  and  C_21
REMARK   13  A    between atoms: C_21  and  C_22
REMARK                            x       y       z     vdW  Elec       q    Type
REMARK                         _______ _______ _______ _____ _____    ______ ____
ROOT
ATOM      1  C   UNL     1       7.204  -4.674  24.114  0.00  0.00    +0.164 C 
ATOM      2  C   UNL     1       7.486  -4.905  25.634  0.00  0.00    +0.122 C 
ATOM      3  C   UNL     1       8.610  -4.042  26.293  0.00  0.00    +0.078 C 
ATOM      4  C   UNL     1       9.098  -2.818  25.506  0.00  0.00    +0.062 C 
ATOM      5  C   UNL     1       8.962  -2.890  24.022  0.00  0.00    +0.037 C 
ATOM      6  C   UNL     1       8.151  -3.763  23.407  0.00  0.00    +0.016 C 
ENDROOT
BRANCH   2   7
ATOM      7  N   UNL     1       6.255  -4.865  26.433  0.00  0.00    -0.308 N 
ATOM      8  H   UNL     1       5.467  -4.374  26.020  0.00  0.00    +0.149 HD
ATOM      9  C   UNL     1       6.167  -5.449  27.674  0.00  0.00    +0.210 C 
ATOM     10  C   UNL     1       4.854  -5.227  28.373  0.00  0.00    +0.109 C 
ATOM     11  O   UNL     1       7.089  -6.065  28.195  0.00  0.00    -0.276 OA
ENDBRANCH   2   7
BRANCH   3  12
ATOM     12  N   UNL     1       9.763  -4.879  26.700  0.00  0.00    -0.325 NA
ATOM     13  H   UNL     1       9.849  -5.629  26.002  0.00  0.00    +0.119 HD
ATOM     14  H   UNL     1      10.629  -4.349  26.644  0.00  0.00    +0.119 HD
ENDBRANCH   3  12
BRANCH   5  15
ATOM     15  C   UNL     1       9.642  -1.793  23.270  0.00  0.00    +0.335 C 
ATOM     16  O   UNL     1      10.544  -1.984  22.471  0.00  0.00    -0.245 OA
BRANCH  15  17
ATOM     17  O   UNL     1       9.265  -0.588  23.769  0.00  0.00    -0.462 OA
BRANCH  17  18
ATOM     18  C   UNL     1      10.090   0.519  23.384  0.00  0.00    +0.229 C 
ATOM     19  C   UNL     1      11.024   0.823  24.544  0.00  0.00    +0.048 C 
ENDBRANCH  17  18
ENDBRANCH  15  17
ENDBRANCH   5  15
BRANCH   1  20
ATOM     20  O   UNL     1       5.854  -4.171  23.959  0.00  0.00    -0.367 OA
BRANCH  20  21
ATOM     21  C   UNL     1       5.014  -4.772  22.949  0.00  0.00    +0.119 C 
BRANCH  21  23
ATOM     22  C   UNL     1       6.212  -5.776  20.895  0.00  0.00    +0.006 C 
ATOM     23  C   UNL     1       5.699  -5.996  22.310  0.00  0.00    +0.028 C 
ENDBRANCH  21  23
BRANCH  21  24
ATOM     24  C   UNL     1       3.694  -5.164  23.641  0.00  0.00    +0.028 C 
ATOM     25  C   UNL     1       3.656  -6.618  24.103  0.00  0.00    +0.006 C 
ENDBRANCH  21  24
ENDBRANCH  20  21
ENDBRANCH   1  20
TORSDOF 9
ENDMDL
MODEL 3
REMARK VINA RESULT:      -5.4      2.455      4.353
REMARK  Name = 
REMARK  13 active torsions:
REMARK  status: ('A' for Active; 'I' for Inactive)
REMARK    1  A    between atoms: C_1  and  C_2
REMARK    2  A    between atoms: C_2  and  C_3
REMARK    3  A    between atoms: C_3  and  C_4
REMARK    4  A    between atoms: C_3  and  O_6
REMARK    5  A    between atoms: C_4  and  C_5
REMARK    6  A    between atoms: O_6  and  C_7
REMARK    7  A    between atoms: C_9  and  C_18
REMARK    8  A    between atoms: C_11  and  N_17
REMARK    9  A    between atoms: C_12  and  N_13
REMARK   10  A    between atoms: C_14  and  C_16
REMARK   11  A    between atoms: C_18  and  O_20
REMARK   12  A    between atoms: O_20  and  C_21
REMARK   13  A    between atoms: C_21  and  C_22
REMARK                            x       y       z     vdW  Elec       q    Type
REMARK                         _______ _______ _______ _____ _____    ______ ____
ROOT
ATOM      1  C   UNL     1       6.802  -2.168  23.774  0.00  0.00    +0.164 C 
ATOM      2  C   UNL     1       7.580  -2.665  22.512  0.00  0.00    +0.122 C 
ATOM      3  C   UNL     1       9.075  -2.230  22.375  0.00  0.00    +0.078 C 
ATOM      4  C   UNL     1       9.750  -1.659  23.630  0.00  0.00    +0.062 C 
ATOM      5  C   UNL     1       8.851  -0.999  24.621  0.00  0.00    +0.037 C 
ATOM      6  C   UNL     1       7.524  -1.193  24.642  0.00  0.00    +0.016 C 
ENDROOT
BRANCH   2   7
ATOM      7  N   UNL     1       7.431  -4.110  22.310  0.00  0.00    -0.308 N 
ATOM      8  H   UNL     1       8.121  -4.701  22.764  0.00  0.00    +0.149 HD
ATOM      9  C   UNL     1       6.422  -4.643  21.544  0.00  0.00    +0.210 C 
ATOM     10  C   UNL     1       6.487  -6.138  21.383  0.00  0.00    +0.109 C 
ATOM     11  O   UNL     1       5.561  -3.964  20.996  0.00  0.00    -0.276 OA
ENDBRANCH   2   7
BRANCH   3  12
ATOM     12  N   UNL     1       9.266  -1.309  21.230  0.00  0.00    -0.325 NA
ATOM     13  H   UNL     1       8.545  -1.543  20.535  0.00  0.00    +0.119 HD
ATOM     14  H   UNL     1       9.081  -0.349  21.507  0.00  0.00    +0.119 HD
ENDBRANCH   3  12
BRANCH   5  15
ATOM     15  C   UNL     1       9.549  -0.260  25.716  0.00  0.00    +0.335 C 
ATOM     16  O   UNL     1       9.274  -0.389  26.897  0.00  0.00    -0.245 OA
BRANCH  15  17
ATOM     17  O   UNL     1      10.346   0.704  25.188  0.00  0.00    -0.462 OA
BRANCH  17  18
ATOM     18  C   UNL     1       9.657   1.783  24.544  0.00  0.00    +0.229 C 
ATOM     19  C   UNL     1      10.464   2.176  23.316  0.00  0.00    +0.048 C 
ENDBRANCH  17  18
ENDBRANCH  15  17
ENDBRANCH   5  15
BRANCH   1  20
ATOM     20  O   UNL     1       6.415  -3.317  24.568  0.00  0.00    -0.367 OA
BRANCH  20  21
ATOM     21  C   UNL     1       7.128  -3.565  25.800  0.00  0.00    +0.119 C 
BRANCH  21  23
ATOM     22  C   UNL     1       6.100  -4.908  27.750  0.00  0.00    +0.006 C 
ATOM     23  C   UNL     1       6.168  -3.583  27.006  0.00  0.00    +0.028 C 
ENDBRANCH  21  23
BRANCH  21  24
ATOM     24  C   UNL     1       7.846  -4.919  25.633  0.00  0.00    +0.028 C 
ATOM     25  C   UNL     1       9.365  -4.798  25.559  0.00  0.00    +0.006 C 
ENDBRANCH  21  24
ENDBRANCH  20  21
ENDBRANCH   1  20
TORSDOF 9
ENDMDL
MODEL 4
REMARK VINA RESULT:      -5.4      2.550      5.892
REMARK  Name = 
REMARK  13 active torsions:
REMARK  status: ('A' for Active; 'I' for Inactive)
REMARK    1  A    between atoms: C_1  and  C_2
REMARK    2  A    between atoms: C_2  and  C_3
REMARK    3  A    between atoms: C_3  and  C_4
REMARK    4  A    between atoms: C_3  and  O_6
REMARK    5  A    between atoms: C_4  and  C_5
REMARK    6  A    between atoms: O_6  and  C_7
REMARK    7  A    between atoms: C_9  and  C_18
REMARK    8  A    between atoms: C_11  and  N_17
REMARK    9  A    between atoms: C_12  and  N_13
REMARK   10  A    between atoms: C_14  and  C_16
REMARK   11  A    between atoms: C_18  and  O_20
REMARK   12  A    between atoms: O_20  and  C_21
REMARK   13  A    between atoms: C_21  and  C_22
REMARK                            x       y       z     vdW  Elec       q    Type
REMARK                         _______ _______ _______ _____ _____    ______ ____
ROOT
ATOM      1  C   UNL     1       6.090  -2.559  22.705  0.00  0.00    +0.164 C 
ATOM      2  C   UNL     1       6.621  -1.183  23.222  0.00  0.00    +0.122 C 
ATOM      3  C   UNL     1       6.175  -0.735  24.652  0.00  0.00    +0.078 C 
ATOM      4  C   UNL     1       5.555  -1.810  25.555  0.00  0.00    +0.062 C 
ATOM      5  C   UNL     1       4.872  -2.941  24.861  0.00  0.00    +0.037 C 
ATOM      6  C   UNL     1       5.079  -3.234  23.570  0.00  0.00    +0.016 C 
ENDROOT
BRANCH   2   7
ATOM      7  N   UNL     1       8.075  -1.060  23.061  0.00  0.00    -0.308 N 
ATOM      8  H   UNL     1       8.633  -1.833  23.410  0.00  0.00    +0.149 HD
ATOM      9  C   UNL     1       8.657   0.040  22.478  0.00  0.00    +0.210 C 
ATOM     10  C   UNL     1      10.161   0.022  22.482  0.00  0.00    +0.109 C 
ATOM     11  O   UNL     1       8.016   0.983  22.029  0.00  0.00    -0.276 OA
ENDBRANCH   2   7
BRANCH   3  12
ATOM     12  N   UNL     1       5.293   0.453  24.593  0.00  0.00    -0.325 NA
ATOM     13  H   UNL     1       5.525   1.039  25.405  0.00  0.00    +0.119 HD
ATOM     14  H   UNL     1       5.505   1.018  23.775  0.00  0.00    +0.119 HD
ENDBRANCH   3  12
BRANCH   5  15
ATOM     15  C   UNL     1       4.089  -3.849  25.753  0.00  0.00    +0.335 C 
ATOM     16  O   UNL     1       4.246  -3.905  26.961  0.00  0.00    -0.245 OA
BRANCH  15  17
ATOM     17  O   UNL     1       3.370  -4.724  25.004  0.00  0.00    -0.462 OA
BRANCH  17  18
ATOM     18  C   UNL     1       3.369  -6.077  25.477  0.00  0.00    +0.229 C 
ATOM     19  C   UNL     1       4.507  -6.808  24.782  0.00  0.00    +0.048 C 
ENDBRANCH  17  18
ENDBRANCH  15  17
ENDBRANCH   5  15
BRANCH   1  20
ATOM     20  O   UNL     1       7.216  -3.450  22.505  0.00  0.00    -0.367 OA
BRANCH  20  21
ATOM     21  C   UNL     1       7.151  -4.772  23.084  0.00  0.00    +0.119 C 
BRANCH  21  23
ATOM     22  C   UNL     1       6.186  -5.830  20.937  0.00  0.00    +0.006 C 
ATOM     23  C   UNL     1       7.271  -5.863  22.002  0.00  0.00    +0.028 C 
ENDBRANCH  21  23
BRANCH  21  24
ATOM     24  C   UNL     1       8.299  -4.867  24.108  0.00  0.00    +0.028 C 
ATOM     25  C   UNL     1       7.824  -5.104  25.538  0.00  0.00    +0.006 C 
ENDBRANCH  21  24
ENDBRANCH  20  21
ENDBRANCH   1  20
TORSDOF 9
ENDMDL
MODEL 5
REMARK VINA RESULT:      -5.3      3.112      6.373
REMARK  Name = 
REMARK  13 active torsions:
REMARK  status: ('A' for Active; 'I' for Inactive)
REMARK    1  A    between atoms: C_1  and  C_2
REMARK    2  A    between atoms: C_2  and  C_3
REMARK    3  A    between atoms: C_3  and  C_4
REMARK    4  A    between atoms: C_3  and  O_6
REMARK    5  A    between atoms: C_4  and  C_5
REMARK    6  A    between atoms: O_6  and  C_7
REMARK    7  A    between atoms: C_9  and  C_18
REMARK    8  A    between atoms: C_11  and  N_17
REMARK    9  A    between atoms: C_12  and  N_13
REMARK   10  A    between atoms: C_14  and  C_16
REMARK   11  A    between atoms: C_18  and  O_20
REMARK   12  A    between atoms: O_20  and  C_21
REMARK   13  A    between atoms: C_21  and  C_22
REMARK                            x       y       z     vdW  Elec       q    Type
REMARK                         _______ _______ _______ _____ _____    ______ ____
ROOT
ATOM      1  C   UNL     1       7.135  -0.467  23.992  0.00  0.00    +0.164 C 
ATOM      2  C   UNL     1       8.660  -0.611  23.680  0.00  0.00    +0.122 C 
ATOM      3  C   UNL     1       9.111  -1.875  22.878  0.00  0.00    +0.078 C 
ATOM      4  C   UNL     1       8.010  -2.677  22.170  0.00  0.00    +0.062 C 
ATOM      5  C   UNL     1       6.647  -2.601  22.771  0.00  0.00    +0.037 C 
ATOM      6  C   UNL     1       6.282  -1.637  23.628  0.00  0.00    +0.016 C 
ENDROOT
BRANCH   2   7
ATOM      7  N   UNL     1       9.217   0.613  23.093  0.00  0.00    -0.308 N 
ATOM      8  H   UNL     1       8.873   0.867  22.172  0.00  0.00    +0.149 HD
ATOM      9  C   UNL     1      10.161   1.373  23.742  0.00  0.00    +0.210 C 
ATOM     10  C   UNL     1      10.675   2.540  22.943  0.00  0.00    +0.109 C 
ATOM     11  O   UNL     1      10.587   1.108  24.860  0.00  0.00    -0.276 OA
ENDBRANCH   2   7
BRANCH   3  12
ATOM     12  N   UNL     1       9.941  -2.774  23.712  0.00  0.00    -0.325 NA
ATOM     13  H   UNL     1      10.398  -2.187  24.422  0.00  0.00    +0.119 HD
ATOM     14  H   UNL     1       9.357  -3.426  24.229  0.00  0.00    +0.119 HD
ENDBRANCH   3  12
BRANCH   5  15
ATOM     15  C   UNL     1       5.650  -3.558  22.203  0.00  0.00    +0.335 C 
ATOM     16  O   UNL     1       4.614  -3.866  22.769  0.00  0.00    -0.245 OA
BRANCH  15  17
ATOM     17  O   UNL     1       6.172  -4.176  21.112  0.00  0.00    -0.462 OA
BRANCH  17  18
ATOM     18  C   UNL     1       6.068  -5.605  21.109  0.00  0.00    +0.229 C 
ATOM     19  C   UNL     1       7.193  -6.149  21.975  0.00  0.00    +0.048 C 
ENDBRANCH  17  18
ENDBRANCH  15  17
ENDBRANCH   5  15
BRANCH   1  20
ATOM     20  O   UNL     1       6.630   0.716  23.324  0.00  0.00    -0.367 OA
BRANCH  20  21
ATOM     21  C   UNL     1       6.022   1.748  24.132  0.00  0.00    +0.119 C 
BRANCH  21  23
ATOM     22  C   UNL     1       7.552   3.209  25.610  0.00  0.00    +0.006 C 
ATOM     23  C   UNL     1       6.763   1.916  25.473  0.00  0.00    +0.028 C 
ENDBRANCH  21  23
BRANCH  21  24
ATOM     24  C   UNL     1       6.062   3.045  23.301  0.00  0.00    +0.028 C 
ATOM     25  C   UNL     1       6.818   2.903  21.983  0.00  0.00    +0.006 C 
ENDBRANCH  21  24
ENDBRANCH  20  21
ENDBRANCH   1  20
TORSDOF 9
ENDMDL
MODEL 6
REMARK VINA RESULT:      -5.3      2.367      5.370
REMARK  Name = 
REMARK  13 active torsions:
REMARK  status: ('A' for Active; 'I' for Inactive)
REMARK    1  A    between atoms: C_1  and  C_2
REMARK    2  A    between atoms: C_2  and  C_3
REMARK    3  A    between atoms: C_3  and  C_4
REMARK    4  A    between atoms: C_3  and  O_6
REMARK    5  A    between atoms: C_4  and  C_5
REMARK    6  A    between atoms: O_6  and  C_7
REMARK    7  A    between atoms: C_9  and  C_18
REMARK    8  A    between atoms: C_11  and  N_17
REMARK    9  A    between atoms: C_12  and  N_13
REMARK   10  A    between atoms: C_14  and  C_16
REMARK   11  A    between atoms: C_18  and  O_20
REMARK   12  A    between atoms: O_20  and  C_21
REMARK   13  A    between atoms: C_21  and  C_22
REMARK                            x       y       z     vdW  Elec       q    Type
REMARK                         _______ _______ _______ _____ _____    ______ ____
ROOT
ATOM      1  C   UNL     1       8.635  -3.593  24.606  0.00  0.00    +0.164 C 
ATOM      2  C   UNL     1       8.861  -2.210  23.912  0.00  0.00    +0.122 C 
ATOM      3  C   UNL     1       8.327  -2.046  22.452  0.00  0.00    +0.078 C 
ATOM      4  C   UNL     1       7.335  -3.105  21.952  0.00  0.00    +0.062 C 
ATOM      5  C   UNL     1       7.438  -4.454  22.579  0.00  0.00    +0.037 C 
ATOM      6  C   UNL     1       8.070  -4.670  23.742  0.00  0.00    +0.016 C 
ENDROOT
BRANCH   2   7
ATOM      7  N   UNL     1       8.431  -1.093  24.760  0.00  0.00    -0.308 N 
ATOM      8  H   UNL     1       7.718  -1.303  25.453  0.00  0.00    +0.149 HD
ATOM      9  C   UNL     1       8.950   0.172  24.625  0.00  0.00    +0.210 C 
ATOM     10  C   UNL     1       8.320   1.201  25.524  0.00  0.00    +0.109 C 
ATOM     11  O   UNL     1       9.822   0.460  23.814  0.00  0.00    -0.276 OA
ENDBRANCH   2   7
BRANCH   3  12
ATOM     12  N   UNL     1       9.439  -1.892  21.485  0.00  0.00    -0.325 NA
ATOM     13  H   UNL     1      10.243  -2.405  21.870  0.00  0.00    +0.119 HD
ATOM     14  H   UNL     1       9.215  -2.348  20.605  0.00  0.00    +0.119 HD
ENDBRANCH   3  12
BRANCH   5  15
ATOM     15  C   UNL     1       6.621  -5.520  21.925  0.00  0.00    +0.335 C 
ATOM     16  O   UNL     1       6.355  -5.528  20.734  0.00  0.00    -0.245 OA
BRANCH  15  17
ATOM     17  O   UNL     1       6.058  -6.317  22.870  0.00  0.00    -0.462 OA
BRANCH  17  18
ATOM     18  C   UNL     1       4.694  -6.015  23.191  0.00  0.00    +0.229 C 
ATOM     19  C   UNL     1       4.344  -6.768  24.465  0.00  0.00    +0.048 C 
ENDBRANCH  17  18
ENDBRANCH  15  17
ENDBRANCH   5  15
BRANCH   1  20
ATOM     20  O   UNL     1       7.773  -3.403  25.756  0.00  0.00    -0.367 OA
BRANCH  20  21
ATOM     21  C   UNL     1       6.729  -4.372  25.992  0.00  0.00    +0.119 C 
BRANCH  21  23
ATOM     22  C   UNL     1       5.844  -6.002  27.788  0.00  0.00    +0.006 C 
ATOM     23  C   UNL     1       7.032  -5.227  27.239  0.00  0.00    +0.028 C 
ENDBRANCH  21  23
BRANCH  21  24
ATOM     24  C   UNL     1       5.416  -3.581  26.160  0.00  0.00    +0.028 C 
ATOM     25  C   UNL     1       5.066  -2.717  24.952  0.00  0.00    +0.006 C 
ENDBRANCH  21  24
ENDBRANCH  20  21
ENDBRANCH   1  20
TORSDOF 9
ENDMDL
MODEL 7
REMARK VINA RESULT:      -5.3      2.177      4.040
REMARK  Name = 
REMARK  13 active torsions:
REMARK  status: ('A' for Active; 'I' for Inactive)
REMARK    1  A    between atoms: C_1  and  C_2
REMARK    2  A    between atoms: C_2  and  C_3
REMARK    3  A    between atoms: C_3  and  C_4
REMARK    4  A    between atoms: C_3  and  O_6
REMARK    5  A    between atoms: C_4  and  C_5
REMARK    6  A    between atoms: O_6  and  C_7
REMARK    7  A    between atoms: C_9  and  C_18
REMARK    8  A    between atoms: C_11  and  N_17
REMARK    9  A    between atoms: C_12  and  N_13
REMARK   10  A    between atoms: C_14  and  C_16
REMARK   11  A    between atoms: C_18  and  O_20
REMARK   12  A    between atoms: O_20  and  C_21
REMARK   13  A    between atoms: C_21  and  C_22
REMARK                            x       y       z     vdW  Elec       q    Type
REMARK                         _______ _______ _______ _____ _____    ______ ____
ROOT
ATOM      1  C   UNL     1       6.353  -2.083  24.268  0.00  0.00    +0.164 C 
ATOM      2  C   UNL     1       5.806  -3.435  23.704  0.00  0.00    +0.122 C 
ATOM      3  C   UNL     1       6.533  -4.037  22.458  0.00  0.00    +0.078 C 
ATOM      4  C   UNL     1       7.910  -3.456  22.109  0.00  0.00    +0.062 C 
ATOM      5  C   UNL     1       8.156  -2.046  22.528  0.00  0.00    +0.037 C 
ATOM      6  C   UNL     1       7.418  -1.423  23.458  0.00  0.00    +0.016 C 
ENDROOT
BRANCH   2   7
ATOM      7  N   UNL     1       5.642  -4.443  24.758  0.00  0.00    -0.308 N 
ATOM      8  H   UNL     1       6.202  -4.313  25.595  0.00  0.00    +0.149 HD
ATOM      9  C   UNL     1       4.788  -5.511  24.624  0.00  0.00    +0.210 C 
ATOM     10  C   UNL     1       4.823  -6.482  25.772  0.00  0.00    +0.109 C 
ATOM     11  O   UNL     1       4.083  -5.691  23.637  0.00  0.00    -0.276 OA
ENDBRANCH   2   7
BRANCH   3  12
ATOM     12  N   UNL     1       5.655  -4.024  21.264  0.00  0.00    -0.325 NA
ATOM     13  H   UNL     1       5.780  -4.929  20.792  0.00  0.00    +0.119 HD
ATOM     14  H   UNL     1       4.677  -3.987  21.538  0.00  0.00    +0.119 HD
ENDBRANCH   3  12
BRANCH   5  15
ATOM     15  C   UNL     1       9.407  -1.434  21.985  0.00  0.00    +0.335 C 
ATOM     16  O   UNL     1      10.527  -1.815  22.284  0.00  0.00    -0.245 OA
BRANCH  15  17
ATOM     17  O   UNL     1       9.109  -0.290  21.316  0.00  0.00    -0.462 OA
BRANCH  17  18
ATOM     18  C   UNL     1       9.753   0.892  21.808  0.00  0.00    +0.229 C 
ATOM     19  C   UNL     1       8.717   2.005  21.827  0.00  0.00    +0.048 C 
ENDBRANCH  17  18
ENDBRANCH  15  17
ENDBRANCH   5  15
BRANCH   1  20
ATOM     20  O   UNL     1       6.845  -2.302  25.614  0.00  0.00    -0.367 OA
BRANCH  20  21
ATOM     21  C   UNL     1       8.271  -2.257  25.834  0.00  0.00    +0.119 C 
BRANCH  21  23
ATOM     22  C   UNL     1       7.524  -0.173  27.161  0.00  0.00    +0.006 C 
ATOM     23  C   UNL     1       8.647  -1.145  26.833  0.00  0.00    +0.028 C 
ENDBRANCH  21  23
BRANCH  21  24
ATOM     24  C   UNL     1       8.686  -3.646  26.358  0.00  0.00    +0.028 C 
ATOM     25  C   UNL     1       9.314  -4.538  25.291  0.00  0.00    +0.006 C 
ENDBRANCH  21  24
ENDBRANCH  20  21
ENDBRANCH   1  20
TORSDOF 9
ENDMDL
MODEL 8
REMARK VINA RESULT:      -5.3      2.163      6.054
REMARK  Name = 
REMARK  13 active torsions:
REMARK  status: ('A' for Active; 'I' for Inactive)
REMARK    1  A    between atoms: C_1  and  C_2
REMARK    2  A    between atoms: C_2  and  C_3
REMARK    3  A    between atoms: C_3  and  C_4
REMARK    4  A    between atoms: C_3  and  O_6
REMARK    5  A    between atoms: C_4  and  C_5
REMARK    6  A    between atoms: O_6  and  C_7
REMARK    7  A    between atoms: C_9  and  C_18
REMARK    8  A    between atoms: C_11  and  N_17
REMARK    9  A    between atoms: C_12  and  N_13
REMARK   10  A    between atoms: C_14  and  C_16
REMARK   11  A    between atoms: C_18  and  O_20
REMARK   12  A    between atoms: O_20  and  C_21
REMARK   13  A    between atoms: C_21  and  C_22
REMARK                            x       y       z     vdW  Elec       q    Type
REMARK                         _______ _______ _______ _____ _____    ______ ____
ROOT
ATOM      1  C   UNL     1       8.188  -2.545  25.894  0.00  0.00    +0.164 C 
ATOM      2  C   UNL     1       9.109  -3.213  24.823  0.00  0.00    +0.122 C 
ATOM      3  C   UNL     1       9.146  -4.775  24.784  0.00  0.00    +0.078 C 
ATOM      4  C   UNL     1       8.037  -5.516  25.544  0.00  0.00    +0.062 C 
ATOM      5  C   UNL     1       7.437  -4.795  26.704  0.00  0.00    +0.037 C 
ATOM      6  C   UNL     1       7.557  -3.471  26.880  0.00  0.00    +0.016 C 
ENDROOT
BRANCH   2   7
ATOM      7  N   UNL     1       8.884  -2.658  23.483  0.00  0.00    -0.308 N 
ATOM      8  H   UNL     1       8.188  -3.128  22.912  0.00  0.00    +0.149 HD
ATOM      9  C   UNL     1       9.581  -1.569  23.015  0.00  0.00    +0.210 C 
ATOM     10  C   UNL     1       9.274  -1.203  21.588  0.00  0.00    +0.109 C 
ATOM     11  O   UNL     1      10.415  -0.966  23.680  0.00  0.00    -0.276 OA
ENDBRANCH   2   7
BRANCH   3  12
ATOM     12  N   UNL     1      10.474  -5.293  25.189  0.00  0.00    -0.325 NA
ATOM     13  H   UNL     1      10.557  -5.145  26.203  0.00  0.00    +0.119 HD
ATOM     14  H   UNL     1      10.524  -6.299  25.051  0.00  0.00    +0.119 HD
ENDBRANCH   3  12
BRANCH   5  15
ATOM     15  C   UNL     1       6.526  -5.616  27.557  0.00  0.00    +0.335 C 
ATOM     16  O   UNL     1       6.526  -5.574  28.776  0.00  0.00    -0.245 OA
BRANCH  15  17
ATOM     17  O   UNL     1       5.888  -6.541  26.795  0.00  0.00    -0.462 OA
BRANCH  17  18
ATOM     18  C   UNL     1       4.489  -6.698  27.066  0.00  0.00    +0.229 C 
ATOM     19  C   UNL     1       3.777  -5.464  26.534  0.00  0.00    +0.048 C 
ENDBRANCH  17  18
ENDBRANCH  15  17
ENDBRANCH   5  15
BRANCH   1  20
ATOM     20  O   UNL     1       7.150  -1.793  25.216  0.00  0.00    -0.367 OA
BRANCH  20  21
ATOM     21  C   UNL     1       5.793  -2.281  25.293  0.00  0.00    +0.119 C 
BRANCH  21  23
ATOM     22  C   UNL     1       4.139  -1.767  27.206  0.00  0.00    +0.006 C 
ATOM     23  C   UNL     1       4.868  -1.254  25.975  0.00  0.00    +0.028 C 
ENDBRANCH  21  23
BRANCH  21  24
ATOM     24  C   UNL     1       5.341  -2.572  23.849  0.00  0.00    +0.028 C 
ATOM     25  C   UNL     1       5.368  -4.055  23.488  0.00  0.00    +0.006 C 
ENDBRANCH  21  24
ENDBRANCH  20  21
ENDBRANCH   1  20
TORSDOF 9
ENDMDL
MODEL 9
REMARK VINA RESULT:      -5.2      3.884      7.304
REMARK  Name = 
REMARK  13 active torsions:
REMARK  status: ('A' for Active; 'I' for Inactive)
REMARK    1  A    between atoms: C_1  and  C_2
REMARK    2  A    between atoms: C_2  and  C_3
REMARK    3  A    between atoms: C_3  and  C_4
REMARK    4  A    between atoms: C_3  and  O_6
REMARK    5  A    between atoms: C_4  and  C_5
REMARK    6  A    between atoms: O_6  and  C_7
REMARK    7  A    between atoms: C_9  and  C_18
REMARK    8  A    between atoms: C_11  and  N_17
REMARK    9  A    between atoms: C_12  and  N_13
REMARK   10  A    between atoms: C_14  and  C_16
REMARK   11  A    between atoms: C_18  and  O_20
REMARK   12  A    between atoms: O_20  and  C_21
REMARK   13  A    between atoms: C_21  and  C_22
REMARK                            x       y       z     vdW  Elec       q    Type
REMARK                         _______ _______ _______ _____ _____    ______ ____
ROOT
ATOM      1  C   UNL     1       8.110   2.915  22.481  0.00  0.00    +0.164 C 
ATOM      2  C   UNL     1       8.476   4.128  23.396  0.00  0.00    +0.122 C 
ATOM      3  C   UNL     1       7.858   4.155  24.831  0.00  0.00    +0.078 C 
ATOM      4  C   UNL     1       7.240   2.847  25.346  0.00  0.00    +0.062 C 
ATOM      5  C   UNL     1       6.720   1.910  24.308  0.00  0.00    +0.037 C 
ATOM      6  C   UNL     1       7.075   1.983  23.017  0.00  0.00    +0.016 C 
ENDROOT
BRANCH   2   7
ATOM      7  N   UNL     1       9.924   4.364  23.441  0.00  0.00    -0.308 N 
ATOM      8  H   UNL     1      10.516   3.547  23.326  0.00  0.00    +0.149 HD
ATOM      9  C   UNL     1      10.457   5.616  23.637  0.00  0.00    +0.210 C 
ATOM     10  C   UNL     1      11.958   5.642  23.740  0.00  0.00    +0.109 C 
ATOM     11  O   UNL     1       9.775   6.626  23.761  0.00  0.00    -0.276 OA
ENDBRANCH   2   7
BRANCH   3  12
ATOM     12  N   UNL     1       6.893   5.269  24.982  0.00  0.00    -0.325 NA
ATOM     13  H   UNL     1       6.015   4.966  24.540  0.00  0.00    +0.119 HD
ATOM     14  H   UNL     1       6.671   5.422  25.962  0.00  0.00    +0.119 HD
ENDBRANCH   3  12
BRANCH   5  15
ATOM     15  C   UNL     1       5.929   0.758  24.835  0.00  0.00    +0.335 C 
ATOM     16  O   UNL     1       4.773   0.853  25.214  0.00  0.00    -0.245 OA
BRANCH  15  17
ATOM     17  O   UNL     1       6.742  -0.312  25.029  0.00  0.00    -0.462 OA
BRANCH  17  18
ATOM     18  C   UNL     1       6.089  -1.588  25.015  0.00  0.00    +0.229 C 
ATOM     19  C   UNL     1       6.052  -2.069  23.574  0.00  0.00    +0.048 C 
ENDBRANCH  17  18
ENDBRANCH  15  17
ENDBRANCH   5  15
BRANCH   1  20
ATOM     20  O   UNL     1       9.317   2.169  22.187  0.00  0.00    -0.367 OA
BRANCH  20  21
ATOM     21  C   UNL     1       9.425   0.820  22.694  0.00  0.00    +0.119 C 
BRANCH  21  23
ATOM     22  C   UNL     1       9.251  -1.609  21.840  0.00  0.00    +0.006 C 
ATOM     23  C   UNL     1       9.701  -0.183  21.557  0.00  0.00    +0.028 C 
ENDBRANCH  21  23
BRANCH  21  24
ATOM     24  C   UNL     1      10.567   0.824  23.729  0.00  0.00    +0.028 C 
ATOM     25  C   UNL     1      10.181   0.200  25.067  0.00  0.00    +0.006 C 
ENDBRANCH  21  24
ENDBRANCH  20  21
ENDBRANCH   1  20
TORSDOF 9
ENDMDL
