MODEL 1
REMARK VINA RESULT:      -6.3      0.000      0.000
REMARK  Name = 
REMARK  5 active torsions:
REMARK  status: ('A' for Active; 'I' for Inactive)
REMARK    1  A    between atoms: C_1  and  C_2
REMARK    2  A    between atoms: N_4  and  C_10
REMARK    3  A    between atoms: C_12  and  N_17
REMARK    4  A    between atoms: C_13  and  C_15
REMARK    5  A    between atoms: C_15  and  O_16
REMARK                            x       y       z     vdW  Elec       q    Type
REMARK                         _______ _______ _______ _____ _____    ______ ____
ROOT
ATOM      1  C   UNL     1       7.381  -2.759  23.510  0.00  0.00    +0.226 C 
ATOM      2  O   UNL     1       7.905  -3.765  22.630  0.00  0.00    -0.349 OA
ATOM      3  C   UNL     1       6.805  -4.300  21.867  0.00  0.00    +0.177 C 
ATOM      4  C   UNL     1       5.516  -3.615  22.351  0.00  0.00    +0.226 C 
ATOM      5  C   UNL     1       6.056  -2.313  22.906  0.00  0.00    +0.091 C 
ENDROOT
BRANCH   1  14
ATOM      6  C   UNL     1       9.831   1.240  21.801  0.00  0.00    +0.051 C 
ATOM      7  C   UNL     1       9.482   0.239  22.854  0.00  0.00    +0.030 A 
ATOM      8  C   UNL     1      10.117   0.404  24.181  0.00  0.00    +0.257 A 
ATOM      9  O   UNL     1      10.885   1.326  24.423  0.00  0.00    -0.267 OA
ATOM     10  N   UNL     1       9.780  -0.522  25.123  0.00  0.00    -0.275 N 
ATOM     11  H   UNL     1      10.182  -0.410  26.040  0.00  0.00    +0.173 HD
ATOM     12  C   UNL     1       8.862  -1.526  24.973  0.00  0.00    +0.331 A 
ATOM     13  O   UNL     1       8.545  -2.224  25.935  0.00  0.00    -0.246 OA
ATOM     14  N   UNL     1       8.329  -1.671  23.700  0.00  0.00    -0.274 N 
ATOM     15  C   UNL     1       8.635  -0.785  22.684  0.00  0.00    +0.101 A 
ENDBRANCH   1  14
BRANCH   4  16
ATOM     16  N   UNL     1       4.859  -4.379  23.431  0.00  0.00    +0.082 NA
ATOM     17  N   UNL     1       3.760  -4.892  23.149  0.00  0.00    -0.014 NA
ATOM     18  N   UNL     1       2.761  -5.369  22.882  0.00  0.00    -0.328 NA
ENDBRANCH   4  16
BRANCH   3  19
ATOM     19  C   UNL     1       6.817  -5.826  21.937  0.00  0.00    +0.189 C 
BRANCH  19  20
ATOM     20  O   UNL     1       5.579  -6.373  21.499  0.00  0.00    -0.392 OA
ATOM     21  H   UNL     1       5.382  -5.968  20.637  0.00  0.00    +0.210 HD
ENDBRANCH  19  20
ENDBRANCH   3  19
TORSDOF 4
ENDMDL
MODEL 2
REMARK VINA RESULT:      -6.2      3.692      4.116
REMARK  Name = 
REMARK  5 active torsions:
REMARK  status: ('A' for Active; 'I' for Inactive)
REMARK    1  A    between atoms: C_1  and  C_2
REMARK    2  A    between atoms: N_4  and  C_10
REMARK    3  A    between atoms: C_12  and  N_17
REMARK    4  A    between atoms: C_13  and  C_15
REMARK    5  A    between atoms: C_15  and  O_16
REMARK                            x       y       z     vdW  Elec       q    Type
REMARK                         _______ _______ _______ _____ _____    ______ ____
ROOT
ATOM      1  C   UNL     1       7.613  -4.204  25.418  0.00  0.00    +0.226 C 
ATOM      2  O   UNL     1       6.403  -4.778  24.901  0.00  0.00    -0.349 OA
ATOM      3  C   UNL     1       5.570  -5.136  26.023  0.00  0.00    +0.177 C 
ATOM      4  C   UNL     1       6.343  -4.807  27.310  0.00  0.00    +0.226 C 
ATOM      5  C   UNL     1       7.288  -3.727  26.828  0.00  0.00    +0.091 C 
ENDROOT
BRANCH   1  14
ATOM      6  C   UNL     1       7.003   0.122  23.003  0.00  0.00    +0.051 C 
ATOM      7  C   UNL     1       7.794  -1.079  23.410  0.00  0.00    +0.030 A 
ATOM      8  C   UNL     1       9.190  -1.166  22.923  0.00  0.00    +0.257 A 
ATOM      9  O   UNL     1       9.692  -0.291  22.229  0.00  0.00    -0.267 OA
ATOM     10  N   UNL     1       9.888  -2.272  23.309  0.00  0.00    -0.275 N 
ATOM     11  H   UNL     1      10.848  -2.335  23.009  0.00  0.00    +0.173 HD
ATOM     12  C   UNL     1       9.444  -3.250  24.157  0.00  0.00    +0.331 A 
ATOM     13  O   UNL     1      10.208  -4.135  24.536  0.00  0.00    -0.246 OA
ATOM     14  N   UNL     1       8.116  -3.151  24.549  0.00  0.00    -0.274 N 
ATOM     15  C   UNL     1       7.334  -2.071  24.183  0.00  0.00    +0.101 A 
ENDBRANCH   1  14
BRANCH   4  16
ATOM     16  N   UNL     1       7.122  -5.966  27.794  0.00  0.00    +0.082 NA
ATOM     17  N   UNL     1       6.722  -6.493  28.850  0.00  0.00    -0.014 NA
ATOM     18  N   UNL     1       6.345  -6.977  29.808  0.00  0.00    -0.328 NA
ENDBRANCH   4  16
BRANCH   3  19
ATOM     19  C   UNL     1       5.094  -6.580  25.878  0.00  0.00    +0.189 C 
BRANCH  19  20
ATOM     20  O   UNL     1       4.560  -7.073  27.101  0.00  0.00    -0.392 OA
ATOM     21  H   UNL     1       5.068  -6.656  27.818  0.00  0.00    +0.210 HD
ENDBRANCH  19  20
ENDBRANCH   3  19
TORSDOF 4
ENDMDL
MODEL 3
REMARK VINA RESULT:      -6.2      3.081      4.275
REMARK  Name = 
REMARK  5 active torsions:
REMARK  status: ('A' for Active; 'I' for Inactive)
REMARK    1  A    between atoms: C_1  and  C_2
REMARK    2  A    between atoms: N_4  and  C_10
REMARK    3  A    between atoms: C_12  and  N_17
REMARK    4  A    between atoms: C_13  and  C_15
REMARK    5  A    between atoms: C_15  and  O_16
REMARK                            x       y       z     vdW  Elec       q    Type
REMARK                         _______ _______ _______ _____ _____    ______ ____
ROOT
ATOM      1  C   UNL     1       8.378  -0.793  22.895  0.00  0.00    +0.226 C 
ATOM      2  O   UNL     1       7.381  -1.691  22.385  0.00  0.00    -0.349 OA
ATOM      3  C   UNL     1       7.302  -2.818  23.282  0.00  0.00    +0.177 C 
ATOM      4  C   UNL     1       8.357  -2.620  24.384  0.00  0.00    +0.226 C 
ATOM      5  C   UNL     1       8.522  -1.114  24.377  0.00  0.00    +0.091 C 
ENDROOT
BRANCH   1  14
ATOM      6  C   UNL     1       5.153   3.011  23.131  0.00  0.00    +0.051 C 
ATOM      7  C   UNL     1       6.464   2.394  22.765  0.00  0.00    +0.030 A 
ATOM      8  C   UNL     1       7.474   3.275  22.134  0.00  0.00    +0.257 A 
ATOM      9  O   UNL     1       7.262   4.464  21.931  0.00  0.00    -0.267 OA
ATOM     10  N   UNL     1       8.660   2.686  21.811  0.00  0.00    -0.275 N 
ATOM     11  H   UNL     1       9.369   3.277  21.406  0.00  0.00    +0.173 HD
ATOM     12  C   UNL     1       9.020   1.395  22.086  0.00  0.00    +0.331 A 
ATOM     13  O   UNL     1      10.167   1.010  21.861  0.00  0.00    -0.246 OA
ATOM     14  N   UNL     1       8.027   0.595  22.633  0.00  0.00    -0.274 N 
ATOM     15  C   UNL     1       6.789   1.112  22.971  0.00  0.00    +0.101 A 
ENDBRANCH   1  14
BRANCH   4  16
ATOM     16  N   UNL     1       9.642  -3.261  24.035  0.00  0.00    +0.082 NA
ATOM     17  N   UNL     1       9.932  -4.290  24.674  0.00  0.00    -0.014 NA
ATOM     18  N   UNL     1      10.185  -5.237  25.253  0.00  0.00    -0.328 NA
ENDBRANCH   4  16
BRANCH   3  19
ATOM     19  C   UNL     1       7.398  -4.121  22.491  0.00  0.00    +0.189 C 
BRANCH  19  20
ATOM     20  O   UNL     1       7.589  -5.236  23.354  0.00  0.00    -0.392 OA
ATOM     21  H   UNL     1       7.050  -5.073  24.147  0.00  0.00    +0.210 HD
ENDBRANCH  19  20
ENDBRANCH   3  19
TORSDOF 4
ENDMDL
MODEL 4
REMARK VINA RESULT:      -6.1      2.265      2.459
REMARK  Name = 
REMARK  5 active torsions:
REMARK  status: ('A' for Active; 'I' for Inactive)
REMARK    1  A    between atoms: C_1  and  C_2
REMARK    2  A    between atoms: N_4  and  C_10
REMARK    3  A    between atoms: C_12  and  N_17
REMARK    4  A    between atoms: C_13  and  C_15
REMARK    5  A    between atoms: C_15  and  O_16
REMARK                            x       y       z     vdW  Elec       q    Type
REMARK                         _______ _______ _______ _____ _____    ______ ____
ROOT
ATOM      1  C   UNL     1       7.915  -3.025  23.394  0.00  0.00    +0.226 C 
ATOM      2  O   UNL     1       7.230  -3.705  22.331  0.00  0.00    -0.349 OA
ATOM      3  C   UNL     1       6.132  -4.437  22.912  0.00  0.00    +0.177 C 
ATOM      4  C   UNL     1       6.180  -4.234  24.435  0.00  0.00    +0.226 C 
ATOM      5  C   UNL     1       6.918  -2.916  24.541  0.00  0.00    +0.091 C 
ENDROOT
BRANCH   1  14
ATOM      6  C   UNL     1       7.253   1.778  22.204  0.00  0.00    +0.051 C 
ATOM      7  C   UNL     1       8.088   0.554  22.395  0.00  0.00    +0.030 A 
ATOM      8  C   UNL     1       9.544   0.684  22.158  0.00  0.00    +0.257 A 
ATOM      9  O   UNL     1      10.056   1.748  21.834  0.00  0.00    -0.267 OA
ATOM     10  N   UNL     1      10.282  -0.448  22.339  0.00  0.00    -0.275 N 
ATOM     11  H   UNL     1      11.278  -0.370  22.208  0.00  0.00    +0.173 HD
ATOM     12  C   UNL     1       9.813  -1.652  22.791  0.00  0.00    +0.331 A 
ATOM     13  O   UNL     1      10.595  -2.567  23.038  0.00  0.00    -0.246 OA
ATOM     14  N   UNL     1       8.438  -1.740  22.954  0.00  0.00    -0.274 N 
ATOM     15  C   UNL     1       7.617  -0.642  22.770  0.00  0.00    +0.101 A 
ENDBRANCH   1  14
BRANCH   4  16
ATOM     16  N   UNL     1       6.961  -5.294  25.107  0.00  0.00    +0.082 NA
ATOM     17  N   UNL     1       6.372  -5.920  26.009  0.00  0.00    -0.014 NA
ATOM     18  N   UNL     1       5.826  -6.496  26.824  0.00  0.00    -0.328 NA
ENDBRANCH   4  16
BRANCH   3  19
ATOM     19  C   UNL     1       6.160  -5.887  22.430  0.00  0.00    +0.189 C 
BRANCH  19  20
ATOM     20  O   UNL     1       5.252  -6.695  23.169  0.00  0.00    -0.392 OA
ATOM     21  H   UNL     1       5.773  -7.416  23.561  0.00  0.00    +0.210 HD
ENDBRANCH  19  20
ENDBRANCH   3  19
TORSDOF 4
ENDMDL
MODEL 5
REMARK VINA RESULT:      -6.0      3.154      6.486
REMARK  Name = 
REMARK  5 active torsions:
REMARK  status: ('A' for Active; 'I' for Inactive)
REMARK    1  A    between atoms: C_1  and  C_2
REMARK    2  A    between atoms: N_4  and  C_10
REMARK    3  A    between atoms: C_12  and  N_17
REMARK    4  A    between atoms: C_13  and  C_15
REMARK    5  A    between atoms: C_15  and  O_16
REMARK                            x       y       z     vdW  Elec       q    Type
REMARK                         _______ _______ _______ _____ _____    ______ ____
ROOT
ATOM      1  C   UNL     1       8.745  -0.727  24.371  0.00  0.00    +0.226 C 
ATOM      2  O   UNL     1       8.004  -0.386  23.190  0.00  0.00    -0.349 OA
ATOM      3  C   UNL     1       8.831   0.478  22.385  0.00  0.00    +0.177 C 
ATOM      4  C   UNL     1      10.143   0.723  23.148  0.00  0.00    +0.226 C 
ATOM      5  C   UNL     1      10.213  -0.506  24.031  0.00  0.00    +0.091 C 
ENDROOT
BRANCH   1  14
ATOM      6  C   UNL     1       7.774  -5.523  23.382  0.00  0.00    +0.051 C 
ATOM      7  C   UNL     1       7.991  -4.369  24.306  0.00  0.00    +0.030 A 
ATOM      8  C   UNL     1       7.939  -4.647  25.760  0.00  0.00    +0.257 A 
ATOM      9  O   UNL     1       7.744  -5.774  26.199  0.00  0.00    -0.267 OA
ATOM     10  N   UNL     1       8.141  -3.577  26.580  0.00  0.00    -0.275 N 
ATOM     11  H   UNL     1       8.135  -3.753  27.571  0.00  0.00    +0.173 HD
ATOM     12  C   UNL     1       8.459  -2.306  26.182  0.00  0.00    +0.331 A 
ATOM     13  O   UNL     1       8.744  -1.449  27.017  0.00  0.00    -0.246 OA
ATOM     14  N   UNL     1       8.449  -2.083  24.813  0.00  0.00    -0.274 N 
ATOM     15  C   UNL     1       8.233  -3.112  23.914  0.00  0.00    +0.101 A 
ENDBRANCH   1  14
BRANCH   4  16
ATOM     16  N   UNL     1      10.071   1.935  23.990  0.00  0.00    +0.082 NA
ATOM     17  N   UNL     1      10.802   2.884  23.648  0.00  0.00    -0.014 NA
ATOM     18  N   UNL     1      11.462   3.752  23.324  0.00  0.00    -0.328 NA
ENDBRANCH   4  16
BRANCH   3  19
ATOM     19  C   UNL     1       8.047   1.726  21.986  0.00  0.00    +0.189 C 
BRANCH  19  20
ATOM     20  O   UNL     1       8.917   2.773  21.572  0.00  0.00    -0.392 OA
ATOM     21  H   UNL     1       9.247   2.531  20.690  0.00  0.00    +0.210 HD
ENDBRANCH  19  20
ENDBRANCH   3  19
TORSDOF 4
ENDMDL
MODEL 6
REMARK VINA RESULT:      -5.9      2.487      6.430
REMARK  Name = 
REMARK  5 active torsions:
REMARK  status: ('A' for Active; 'I' for Inactive)
REMARK    1  A    between atoms: C_1  and  C_2
REMARK    2  A    between atoms: N_4  and  C_10
REMARK    3  A    between atoms: C_12  and  N_17
REMARK    4  A    between atoms: C_13  and  C_15
REMARK    5  A    between atoms: C_15  and  O_16
REMARK                            x       y       z     vdW  Elec       q    Type
REMARK                         _______ _______ _______ _____ _____    ______ ____
ROOT
ATOM      1  C   UNL     1       7.128  -3.026  23.074  0.00  0.00    +0.226 C 
ATOM      2  O   UNL     1       8.543  -3.214  23.226  0.00  0.00    -0.349 OA
ATOM      3  C   UNL     1       9.110  -1.963  23.664  0.00  0.00    +0.177 C 
ATOM      4  C   UNL     1       7.975  -0.928  23.735  0.00  0.00    +0.226 C 
ATOM      5  C   UNL     1       6.765  -1.819  23.929  0.00  0.00    +0.091 C 
ENDROOT
BRANCH   1  14
ATOM      6  C   UNL     1       5.398  -6.244  26.476  0.00  0.00    +0.051 C 
ATOM      7  C   UNL     1       5.575  -5.748  25.077  0.00  0.00    +0.030 A 
ATOM      8  C   UNL     1       4.916  -6.518  23.998  0.00  0.00    +0.257 A 
ATOM      9  O   UNL     1       4.239  -7.512  24.229  0.00  0.00    -0.267 OA
ATOM     10  N   UNL     1       5.093  -6.043  22.732  0.00  0.00    -0.275 N 
ATOM     11  H   UNL     1       4.631  -6.540  21.988  0.00  0.00    +0.173 HD
ATOM     12  C   UNL     1       5.750  -4.892  22.388  0.00  0.00    +0.331 A 
ATOM     13  O   UNL     1       5.736  -4.496  21.224  0.00  0.00    -0.246 OA
ATOM     14  N   UNL     1       6.390  -4.230  23.426  0.00  0.00    -0.274 N 
ATOM     15  C   UNL     1       6.276  -4.660  24.736  0.00  0.00    +0.101 A 
ENDBRANCH   1  14
BRANCH   4  16
ATOM     16  N   UNL     1       7.837  -0.176  22.470  0.00  0.00    +0.082 NA
ATOM     17  N   UNL     1       8.309   0.977  22.464  0.00  0.00    -0.014 NA
ATOM     18  N   UNL     1       8.752   2.026  22.461  0.00  0.00    -0.328 NA
ENDBRANCH   4  16
BRANCH   3  19
ATOM     19  C   UNL     1      10.299  -1.591  22.780  0.00  0.00    +0.189 C 
BRANCH  19  20
ATOM     20  O   UNL     1       9.957  -1.656  21.401  0.00  0.00    -0.392 OA
ATOM     21  H   UNL     1       9.364  -2.419  21.294  0.00  0.00    +0.210 HD
ENDBRANCH  19  20
ENDBRANCH   3  19
TORSDOF 4
ENDMDL
MODEL 7
REMARK VINA RESULT:      -5.7      3.214      4.740
REMARK  Name = 
REMARK  5 active torsions:
REMARK  status: ('A' for Active; 'I' for Inactive)
REMARK    1  A    between atoms: C_1  and  C_2
REMARK    2  A    between atoms: N_4  and  C_10
REMARK    3  A    between atoms: C_12  and  N_17
REMARK    4  A    between atoms: C_13  and  C_15
REMARK    5  A    between atoms: C_15  and  O_16
REMARK                            x       y       z     vdW  Elec       q    Type
REMARK                         _______ _______ _______ _____ _____    ______ ____
ROOT
ATOM      1  C   UNL     1       8.946   0.214  23.826  0.00  0.00    +0.226 C 
ATOM      2  O   UNL     1       7.614  -0.292  23.650  0.00  0.00    -0.349 OA
ATOM      3  C   UNL     1       7.508  -1.523  24.392  0.00  0.00    +0.177 C 
ATOM      4  C   UNL     1       8.881  -1.817  25.020  0.00  0.00    +0.226 C 
ATOM      5  C   UNL     1       9.480  -0.428  25.100  0.00  0.00    +0.091 C 
ENDROOT
BRANCH   1  14
ATOM      6  C   UNL     1       7.848   4.542  26.058  0.00  0.00    +0.051 C 
ATOM      7  C   UNL     1       8.427   3.721  24.952  0.00  0.00    +0.030 A 
ATOM      8  C   UNL     1       9.094   4.447  23.847  0.00  0.00    +0.257 A 
ATOM      9  O   UNL     1       9.187   5.668  23.836  0.00  0.00    -0.267 OA
ATOM     10  N   UNL     1       9.613   3.673  22.852  0.00  0.00    -0.275 N 
ATOM     11  H   UNL     1      10.093   4.150  22.105  0.00  0.00    +0.173 HD
ATOM     12  C   UNL     1       9.641   2.305  22.827  0.00  0.00    +0.331 A 
ATOM     13  O   UNL     1      10.251   1.714  21.937  0.00  0.00    -0.246 OA
ATOM     14  N   UNL     1       8.963   1.669  23.857  0.00  0.00    -0.274 N 
ATOM     15  C   UNL     1       8.392   2.383  24.895  0.00  0.00    +0.101 A 
ENDBRANCH   1  14
BRANCH   4  16
ATOM     16  N   UNL     1       9.715  -2.666  24.144  0.00  0.00    +0.082 NA
ATOM     17  N   UNL     1       9.814  -3.863  24.475  0.00  0.00    -0.014 NA
ATOM     18  N   UNL     1       9.891  -4.958  24.776  0.00  0.00    -0.328 NA
ENDBRANCH   4  16
BRANCH   3  19
ATOM     19  C   UNL     1       6.933  -2.621  23.500  0.00  0.00    +0.189 C 
BRANCH  19  20
ATOM     20  O   UNL     1       7.635  -2.705  22.265  0.00  0.00    -0.392 OA
ATOM     21  H   UNL     1       7.857  -3.642  22.131  0.00  0.00    +0.210 HD
ENDBRANCH  19  20
ENDBRANCH   3  19
TORSDOF 4
ENDMDL
MODEL 8
REMARK VINA RESULT:      -5.7      3.435      6.354
REMARK  Name = 
REMARK  5 active torsions:
REMARK  status: ('A' for Active; 'I' for Inactive)
REMARK    1  A    between atoms: C_1  and  C_2
REMARK    2  A    between atoms: N_4  and  C_10
REMARK    3  A    between atoms: C_12  and  N_17
REMARK    4  A    between atoms: C_13  and  C_15
REMARK    5  A    between atoms: C_15  and  O_16
REMARK                            x       y       z     vdW  Elec       q    Type
REMARK                         _______ _______ _______ _____ _____    ______ ____
ROOT
ATOM      1  C   UNL     1       8.556  -2.008  24.827  0.00  0.00    +0.226 C 
ATOM      2  O   UNL     1       9.610  -1.253  25.444  0.00  0.00    -0.349 OA
ATOM      3  C   UNL     1       9.426   0.132  25.086  0.00  0.00    +0.177 C 
ATOM      4  C   UNL     1       8.212   0.222  24.147  0.00  0.00    +0.226 C 
ATOM      5  C   UNL     1       7.436  -1.018  24.538  0.00  0.00    +0.091 C 
ENDROOT
BRANCH   1  14
ATOM      6  C   UNL     1       5.352  -4.113  28.025  0.00  0.00    +0.051 C 
ATOM      7  C   UNL     1       6.591  -4.105  27.188  0.00  0.00    +0.030 A 
ATOM      8  C   UNL     1       7.415  -5.335  27.189  0.00  0.00    +0.257 A 
ATOM      9  O   UNL     1       7.100  -6.328  27.831  0.00  0.00    -0.267 OA
ATOM     10  N   UNL     1       8.539  -5.300  26.417  0.00  0.00    -0.275 N 
ATOM     11  H   UNL     1       9.098  -6.137  26.385  0.00  0.00    +0.173 HD
ATOM     12  C   UNL     1       8.920  -4.274  25.595  0.00  0.00    +0.331 A 
ATOM     13  O   UNL     1       9.887  -4.406  24.847  0.00  0.00    -0.246 OA
ATOM     14  N   UNL     1       8.143  -3.126  25.664  0.00  0.00    -0.274 N 
ATOM     15  C   UNL     1       6.999  -3.073  26.439  0.00  0.00    +0.101 A 
ENDBRANCH   1  14
BRANCH   4  16
ATOM     16  N   UNL     1       8.609   0.130  22.726  0.00  0.00    +0.082 NA
ATOM     17  N   UNL     1       8.266   1.082  21.999  0.00  0.00    -0.014 NA
ATOM     18  N   UNL     1       7.961   1.960  21.343  0.00  0.00    -0.328 NA
ENDBRANCH   4  16
BRANCH   3  19
ATOM     19  C   UNL     1      10.734   0.708  24.545  0.00  0.00    +0.189 C 
BRANCH  19  20
ATOM     20  O   UNL     1      10.536   1.997  23.979  0.00  0.00    -0.392 OA
ATOM     21  H   UNL     1       9.939   2.478  24.577  0.00  0.00    +0.210 HD
ENDBRANCH  19  20
ENDBRANCH   3  19
TORSDOF 4
ENDMDL
MODEL 9
REMARK VINA RESULT:      -5.7      2.139      2.555
REMARK  Name = 
REMARK  5 active torsions:
REMARK  status: ('A' for Active; 'I' for Inactive)
REMARK    1  A    between atoms: C_1  and  C_2
REMARK    2  A    between atoms: N_4  and  C_10
REMARK    3  A    between atoms: C_12  and  N_17
REMARK    4  A    between atoms: C_13  and  C_15
REMARK    5  A    between atoms: C_15  and  O_16
REMARK                            x       y       z     vdW  Elec       q    Type
REMARK                         _______ _______ _______ _____ _____    ______ ____
ROOT
ATOM      1  C   UNL     1       8.013  -2.002  24.497  0.00  0.00    +0.226 C 
ATOM      2  O   UNL     1       8.996  -2.840  25.122  0.00  0.00    -0.349 OA
ATOM      3  C   UNL     1       8.946  -4.131  24.484  0.00  0.00    +0.177 C 
ATOM      4  C   UNL     1       7.822  -4.097  23.435  0.00  0.00    +0.226 C 
ATOM      5  C   UNL     1       7.738  -2.616  23.130  0.00  0.00    +0.091 C 
ENDROOT
BRANCH   1  14
ATOM      6  C   UNL     1      10.026   1.824  22.000  0.00  0.00    +0.051 C 
ATOM      7  C   UNL     1       9.419   1.193  23.211  0.00  0.00    +0.030 A 
ATOM      8  C   UNL     1       9.225   2.056  24.398  0.00  0.00    +0.257 A 
ATOM      9  O   UNL     1       9.530   3.242  24.396  0.00  0.00    -0.267 OA
ATOM     10  N   UNL     1       8.669   1.455  25.488  0.00  0.00    -0.275 N 
ATOM     11  H   UNL     1       8.505   2.034  26.296  0.00  0.00    +0.173 HD
ATOM     12  C   UNL     1       8.210   0.167  25.552  0.00  0.00    +0.331 A 
ATOM     13  O   UNL     1       7.610  -0.228  26.550  0.00  0.00    -0.246 OA
ATOM     14  N   UNL     1       8.456  -0.616  24.433  0.00  0.00    -0.274 N 
ATOM     15  C   UNL     1       9.035  -0.087  23.294  0.00  0.00    +0.101 A 
ENDBRANCH   1  14
BRANCH   4  16
ATOM     16  N   UNL     1       6.535  -4.561  23.993  0.00  0.00    +0.082 NA
ATOM     17  N   UNL     1       5.557  -4.521  23.222  0.00  0.00    -0.014 NA
ATOM     18  N   UNL     1       4.670  -4.492  22.510  0.00  0.00    -0.328 NA
ENDBRANCH   4  16
BRANCH   3  19
ATOM     19  C   UNL     1       8.841  -5.230  25.539  0.00  0.00    +0.189 C 
BRANCH  19  20
ATOM     20  O   UNL     1      10.032  -6.006  25.597  0.00  0.00    -0.392 OA
ATOM     21  H   UNL     1      10.390  -6.039  24.693  0.00  0.00    +0.210 HD
ENDBRANCH  19  20
ENDBRANCH   3  19
TORSDOF 4
ENDMDL
