MODEL 1
REMARK VINA RESULT:      -6.1      0.000      0.000
REMARK  Name = 
REMARK  9 active torsions:
REMARK  status: ('A' for Active; 'I' for Inactive)
REMARK    1  A    between atoms: C_1  and  C_2
REMARK    2  A    between atoms: C_2  and  O_4
REMARK    3  A    between atoms: O_4  and  C_5
REMARK    4  A    between atoms: C_5  and  C_6
REMARK    5  A    between atoms: C_6  and  C_7
REMARK    6  A    between atoms: C_6  and  O_9
REMARK    7  A    between atoms: C_7  and  O_8
REMARK    8  A    between atoms: O_9  and  C_10
REMARK    9  A    between atoms: C_10  and  N_11
REMARK                            x       y       z     vdW  Elec       q    Type
REMARK                         _______ _______ _______ _____ _____    ______ ____
ROOT
ATOM      1  N   UNL     1       6.763  -3.759  23.289  0.00  0.00    -0.291 N 
ATOM      2  C   UNL     1       7.445  -4.446  24.255  0.00  0.00    +0.171 A 
ATOM      3  N   UNL     1       8.789  -4.614  24.338  0.00  0.00    -0.196 NA
ATOM      4  C   UNL     1       9.159  -5.281  25.400  0.00  0.00    +0.195 A 
ATOM      5  N   UNL     1      10.474  -5.509  25.635  0.00  0.00    -0.329 N 
ATOM      6  H   UNL     1      10.733  -6.320  26.182  0.00  0.00    +0.145 HD
ATOM      7  H   UNL     1      11.066  -5.351  24.826  0.00  0.00    +0.145 HD
ATOM      8  N   UNL     1       8.278  -5.787  26.335  0.00  0.00    -0.293 N 
ATOM      9  H   UNL     1       8.621  -6.267  27.149  0.00  0.00    +0.172 HD
ATOM     10  C   UNL     1       6.899  -5.629  26.289  0.00  0.00    +0.280 A 
ATOM     11  O   UNL     1       6.169  -6.082  27.164  0.00  0.00    -0.265 OA
ATOM     12  C   UNL     1       6.474  -4.881  25.129  0.00  0.00    +0.172 A 
ATOM     13  N   UNL     1       5.225  -4.473  24.738  0.00  0.00    -0.229 NA
ATOM     14  C   UNL     1       5.436  -3.788  23.630  0.00  0.00    +0.203 A 
ENDROOT
BRANCH   1  15
ATOM     15  C   UNL     1       7.371  -3.033  22.192  0.00  0.00    +0.288 C 
BRANCH  15  16
ATOM     16  O   UNL     1       7.674  -1.699  22.606  0.00  0.00    -0.350 OA
BRANCH  16  17
ATOM     17  C   UNL     1       8.884  -1.174  22.028  0.00  0.00    +0.183 C 
BRANCH  17  18
ATOM     18  C   UNL     1       8.886   0.354  22.234  0.00  0.00    +0.266 C 
BRANCH  18  19
ATOM     19  O   UNL     1      10.207   0.848  22.537  0.00  0.00    -0.462 OA
BRANCH  19  21
ATOM     20  C   UNL     1      10.694   2.990  23.350  0.00  0.00    +0.136 C 
ATOM     21  C   UNL     1      10.314   1.578  23.678  0.00  0.00    +0.304 C 
ATOM     22  O   UNL     1      10.155   1.147  24.811  0.00  0.00    -0.251 OA
ENDBRANCH  19  21
ENDBRANCH  18  19
ENDBRANCH  17  18
BRANCH  17  23
ATOM     23  C   UNL     1      10.132  -1.788  22.683  0.00  0.00    +0.190 C 
BRANCH  23  24
ATOM     24  O   UNL     1      10.047  -1.807  24.101  0.00  0.00    -0.392 OA
ATOM     25  H   UNL     1      10.350  -2.678  24.414  0.00  0.00    +0.210 HD
ENDBRANCH  23  24
ENDBRANCH  17  23
ENDBRANCH  16  17
ENDBRANCH  15  16
ENDBRANCH   1  15
TORSDOF 8
ENDMDL
MODEL 2
REMARK VINA RESULT:      -5.9      1.879      1.995
REMARK  Name = 
REMARK  9 active torsions:
REMARK  status: ('A' for Active; 'I' for Inactive)
REMARK    1  A    between atoms: C_1  and  C_2
REMARK    2  A    between atoms: C_2  and  O_4
REMARK    3  A    between atoms: O_4  and  C_5
REMARK    4  A    between atoms: C_5  and  C_6
REMARK    5  A    between atoms: C_6  and  C_7
REMARK    6  A    between atoms: C_6  and  O_9
REMARK    7  A    between atoms: C_7  and  O_8
REMARK    8  A    between atoms: O_9  and  C_10
REMARK    9  A    between atoms: C_10  and  N_11
REMARK                            x       y       z     vdW  Elec       q    Type
REMARK                         _______ _______ _______ _____ _____    ______ ____
ROOT
ATOM      1  N   UNL     1       6.911  -2.210  26.071  0.00  0.00    -0.291 N 
ATOM      2  C   UNL     1       7.525  -3.424  26.215  0.00  0.00    +0.171 A 
ATOM      3  N   UNL     1       8.709  -3.805  25.675  0.00  0.00    -0.196 NA
ATOM      4  C   UNL     1       9.069  -5.012  26.026  0.00  0.00    +0.195 A 
ATOM      5  N   UNL     1      10.244  -5.527  25.584  0.00  0.00    -0.329 N 
ATOM      6  H   UNL     1      10.332  -6.531  25.506  0.00  0.00    +0.145 HD
ATOM      7  H   UNL     1      10.644  -5.015  24.805  0.00  0.00    +0.145 HD
ATOM      8  N   UNL     1       8.316  -5.831  26.843  0.00  0.00    -0.293 N 
ATOM      9  H   UNL     1       8.657  -6.741  27.104  0.00  0.00    +0.172 HD
ATOM     10  C   UNL     1       7.106  -5.474  27.420  0.00  0.00    +0.280 A 
ATOM     11  O   UNL     1       6.493  -6.239  28.159  0.00  0.00    -0.265 OA
ATOM     12  C   UNL     1       6.700  -4.137  27.055  0.00  0.00    +0.172 A 
ATOM     13  N   UNL     1       5.611  -3.398  27.439  0.00  0.00    -0.229 NA
ATOM     14  C   UNL     1       5.775  -2.236  26.837  0.00  0.00    +0.203 A 
ENDROOT
BRANCH   1  15
ATOM     15  C   UNL     1       7.453  -1.080  25.343  0.00  0.00    +0.288 C 
BRANCH  15  16
ATOM     16  O   UNL     1       7.358  -1.321  23.938  0.00  0.00    -0.350 OA
BRANCH  16  17
ATOM     17  C   UNL     1       8.490  -0.840  23.190  0.00  0.00    +0.183 C 
BRANCH  17  18
ATOM     18  C   UNL     1       9.677  -0.694  24.163  0.00  0.00    +0.266 C 
BRANCH  18  19
ATOM     19  O   UNL     1      10.614   0.306  23.713  0.00  0.00    -0.462 OA
BRANCH  19  21
ATOM     20  C   UNL     1      10.238   2.040  22.185  0.00  0.00    +0.136 C 
ATOM     21  C   UNL     1      10.119   1.567  23.601  0.00  0.00    +0.304 C 
ATOM     22  O   UNL     1       9.670   2.234  24.522  0.00  0.00    -0.251 OA
ENDBRANCH  19  21
ENDBRANCH  18  19
ENDBRANCH  17  18
BRANCH  17  23
ATOM     23  C   UNL     1       8.866  -1.809  22.056  0.00  0.00    +0.190 C 
BRANCH  23  24
ATOM     24  O   UNL     1      10.186  -1.597  21.576  0.00  0.00    -0.392 OA
ATOM     25  H   UNL     1      10.674  -2.437  21.641  0.00  0.00    +0.210 HD
ENDBRANCH  23  24
ENDBRANCH  17  23
ENDBRANCH  16  17
ENDBRANCH  15  16
ENDBRANCH   1  15
TORSDOF 8
ENDMDL
MODEL 3
REMARK VINA RESULT:      -5.8      1.898      2.940
REMARK  Name = 
REMARK  9 active torsions:
REMARK  status: ('A' for Active; 'I' for Inactive)
REMARK    1  A    between atoms: C_1  and  C_2
REMARK    2  A    between atoms: C_2  and  O_4
REMARK    3  A    between atoms: O_4  and  C_5
REMARK    4  A    between atoms: C_5  and  C_6
REMARK    5  A    between atoms: C_6  and  C_7
REMARK    6  A    between atoms: C_6  and  O_9
REMARK    7  A    between atoms: C_7  and  O_8
REMARK    8  A    between atoms: O_9  and  C_10
REMARK    9  A    between atoms: C_10  and  N_11
REMARK                            x       y       z     vdW  Elec       q    Type
REMARK                         _______ _______ _______ _____ _____    ______ ____
ROOT
ATOM      1  N   UNL     1       7.771  -4.513  25.084  0.00  0.00    -0.291 N 
ATOM      2  C   UNL     1       6.970  -5.086  24.134  0.00  0.00    +0.171 A 
ATOM      3  N   UNL     1       7.063  -4.927  22.790  0.00  0.00    -0.196 NA
ATOM      4  C   UNL     1       6.188  -5.637  22.127  0.00  0.00    +0.195 A 
ATOM      5  N   UNL     1       6.172  -5.602  20.771  0.00  0.00    -0.329 N 
ATOM      6  H   UNL     1       5.302  -5.798  20.294  0.00  0.00    +0.145 HD
ATOM      7  H   UNL     1       6.693  -4.826  20.378  0.00  0.00    +0.145 HD
ATOM      8  N   UNL     1       5.246  -6.450  22.725  0.00  0.00    -0.293 N 
ATOM      9  H   UNL     1       4.616  -6.996  22.164  0.00  0.00    +0.172 HD
ATOM     10  C   UNL     1       5.125  -6.643  24.095  0.00  0.00    +0.280 A 
ATOM     11  O   UNL     1       4.281  -7.399  24.566  0.00  0.00    -0.265 OA
ATOM     12  C   UNL     1       6.094  -5.878  24.842  0.00  0.00    +0.172 A 
ATOM     13  N   UNL     1       6.340  -5.820  26.190  0.00  0.00    -0.229 NA
ATOM     14  C   UNL     1       7.365  -4.998  26.301  0.00  0.00    +0.203 A 
ENDROOT
BRANCH   1  15
ATOM     15  C   UNL     1       8.912  -3.662  24.815  0.00  0.00    +0.288 C 
BRANCH  15  16
ATOM     16  O   UNL     1       8.533  -2.291  24.953  0.00  0.00    -0.350 OA
BRANCH  16  17
ATOM     17  C   UNL     1       9.153  -1.419  23.988  0.00  0.00    +0.183 C 
BRANCH  17  18
ATOM     18  C   UNL     1       9.859  -0.284  24.757  0.00  0.00    +0.266 C 
BRANCH  18  19
ATOM     19  O   UNL     1      10.762   0.452  23.908  0.00  0.00    -0.462 OA
BRANCH  19  21
ATOM     20  C   UNL     1       9.663   2.513  24.076  0.00  0.00    +0.136 C 
ATOM     21  C   UNL     1      10.198   1.445  23.171  0.00  0.00    +0.304 C 
ATOM     22  O   UNL     1      10.109   1.458  21.952  0.00  0.00    -0.251 OA
ENDBRANCH  19  21
ENDBRANCH  18  19
ENDBRANCH  17  18
BRANCH  17  23
ATOM     23  C   UNL     1      10.177  -2.175  23.125  0.00  0.00    +0.190 C 
BRANCH  23  24
ATOM     24  O   UNL     1      10.271  -1.648  21.809  0.00  0.00    -0.392 OA
ATOM     25  H   UNL     1       9.509  -1.061  21.659  0.00  0.00    +0.210 HD
ENDBRANCH  23  24
ENDBRANCH  17  23
ENDBRANCH  16  17
ENDBRANCH  15  16
ENDBRANCH   1  15
TORSDOF 8
ENDMDL
MODEL 4
REMARK VINA RESULT:      -5.7      1.570      2.277
REMARK  Name = 
REMARK  9 active torsions:
REMARK  status: ('A' for Active; 'I' for Inactive)
REMARK    1  A    between atoms: C_1  and  C_2
REMARK    2  A    between atoms: C_2  and  O_4
REMARK    3  A    between atoms: O_4  and  C_5
REMARK    4  A    between atoms: C_5  and  C_6
REMARK    5  A    between atoms: C_6  and  C_7
REMARK    6  A    between atoms: C_6  and  O_9
REMARK    7  A    between atoms: C_7  and  O_8
REMARK    8  A    between atoms: O_9  and  C_10
REMARK    9  A    between atoms: C_10  and  N_11
REMARK                            x       y       z     vdW  Elec       q    Type
REMARK                         _______ _______ _______ _____ _____    ______ ____
ROOT
ATOM      1  N   UNL     1       8.001  -2.508  22.822  0.00  0.00    -0.291 N 
ATOM      2  C   UNL     1       8.171  -3.536  23.709  0.00  0.00    +0.171 A 
ATOM      3  N   UNL     1       9.338  -3.944  24.265  0.00  0.00    -0.196 NA
ATOM      4  C   UNL     1       9.186  -4.925  25.117  0.00  0.00    +0.195 A 
ATOM      5  N   UNL     1      10.261  -5.428  25.773  0.00  0.00    -0.329 N 
ATOM      6  H   UNL     1      10.227  -6.388  26.091  0.00  0.00    +0.145 HD
ATOM      7  H   UNL     1      11.150  -5.160  25.364  0.00  0.00    +0.145 HD
ATOM      8  N   UNL     1       7.969  -5.508  25.408  0.00  0.00    -0.293 N 
ATOM      9  H   UNL     1       7.908  -6.241  26.094  0.00  0.00    +0.172 HD
ATOM     10  C   UNL     1       6.754  -5.112  24.866  0.00  0.00    +0.280 A 
ATOM     11  O   UNL     1       5.700  -5.655  25.184  0.00  0.00    -0.265 OA
ATOM     12  C   UNL     1       6.901  -4.019  23.935  0.00  0.00    +0.172 A 
ATOM     13  N   UNL     1       5.961  -3.315  23.228  0.00  0.00    -0.229 NA
ATOM     14  C   UNL     1       6.656  -2.403  22.576  0.00  0.00    +0.203 A 
ENDROOT
BRANCH   1  15
ATOM     15  C   UNL     1       9.051  -1.627  22.352  0.00  0.00    +0.288 C 
BRANCH  15  16
ATOM     16  O   UNL     1       9.446  -0.744  23.403  0.00  0.00    -0.350 OA
BRANCH  16  17
ATOM     17  C   UNL     1      10.331   0.308  22.974  0.00  0.00    +0.183 C 
BRANCH  17  18
ATOM     18  C   UNL     1       9.625   1.096  21.852  0.00  0.00    +0.266 C 
BRANCH  18  19
ATOM     19  O   UNL     1       8.913   2.238  22.370  0.00  0.00    -0.462 OA
BRANCH  19  21
ATOM     20  C   UNL     1       6.989   3.538  22.065  0.00  0.00    +0.136 C 
ATOM     21  C   UNL     1       7.558   2.170  22.290  0.00  0.00    +0.304 C 
ATOM     22  O   UNL     1       6.892   1.153  22.412  0.00  0.00    -0.251 OA
ENDBRANCH  19  21
ENDBRANCH  18  19
ENDBRANCH  17  18
BRANCH  17  23
ATOM     23  C   UNL     1      10.679   1.256  24.134  0.00  0.00    +0.190 C 
BRANCH  23  24
ATOM     24  O   UNL     1       9.645   1.330  25.105  0.00  0.00    -0.392 OA
ATOM     25  H   UNL     1       9.770   2.144  25.624  0.00  0.00    +0.210 HD
ENDBRANCH  23  24
ENDBRANCH  17  23
ENDBRANCH  16  17
ENDBRANCH  15  16
ENDBRANCH   1  15
TORSDOF 8
ENDMDL
MODEL 5
REMARK VINA RESULT:      -5.7      2.397      6.331
REMARK  Name = 
REMARK  9 active torsions:
REMARK  status: ('A' for Active; 'I' for Inactive)
REMARK    1  A    between atoms: C_1  and  C_2
REMARK    2  A    between atoms: C_2  and  O_4
REMARK    3  A    between atoms: O_4  and  C_5
REMARK    4  A    between atoms: C_5  and  C_6
REMARK    5  A    between atoms: C_6  and  C_7
REMARK    6  A    between atoms: C_6  and  O_9
REMARK    7  A    between atoms: C_7  and  O_8
REMARK    8  A    between atoms: O_9  and  C_10
REMARK    9  A    between atoms: C_10  and  N_11
REMARK                            x       y       z     vdW  Elec       q    Type
REMARK                         _______ _______ _______ _____ _____    ______ ____
ROOT
ATOM      1  N   UNL     1       8.175  -4.213  25.544  0.00  0.00    -0.291 N 
ATOM      2  C   UNL     1       8.057  -3.156  24.684  0.00  0.00    +0.171 A 
ATOM      3  N   UNL     1       6.994  -2.323  24.562  0.00  0.00    -0.196 NA
ATOM      4  C   UNL     1       7.185  -1.371  23.686  0.00  0.00    +0.195 A 
ATOM      5  N   UNL     1       6.220  -0.443  23.469  0.00  0.00    -0.329 N 
ATOM      6  H   UNL     1       6.182   0.012  22.567  0.00  0.00    +0.145 HD
ATOM      7  H   UNL     1       5.311  -0.708  23.836  0.00  0.00    +0.145 HD
ATOM      8  N   UNL     1       8.338  -1.234  22.940  0.00  0.00    -0.293 N 
ATOM      9  H   UNL     1       8.442  -0.464  22.300  0.00  0.00    +0.172 HD
ATOM     10  C   UNL     1       9.448  -2.060  23.042  0.00  0.00    +0.280 A 
ATOM     11  O   UNL     1      10.456  -1.873  22.367  0.00  0.00    -0.265 OA
ATOM     12  C   UNL     1       9.260  -3.109  24.016  0.00  0.00    +0.172 A 
ATOM     13  N   UNL     1      10.114  -4.092  24.448  0.00  0.00    -0.229 NA
ATOM     14  C   UNL     1       9.433  -4.733  25.378  0.00  0.00    +0.203 A 
ENDROOT
BRANCH   1  15
ATOM     15  C   UNL     1       7.188  -4.605  26.530  0.00  0.00    +0.288 C 
BRANCH  15  16
ATOM     16  O   UNL     1       6.640  -5.878  26.184  0.00  0.00    -0.350 OA
BRANCH  16  17
ATOM     17  C   UNL     1       5.295  -5.811  25.674  0.00  0.00    +0.183 C 
BRANCH  17  18
ATOM     18  C   UNL     1       5.339  -6.144  24.169  0.00  0.00    +0.266 C 
BRANCH  18  19
ATOM     19  O   UNL     1       5.028  -4.991  23.360  0.00  0.00    -0.462 OA
BRANCH  19  21
ATOM     20  C   UNL     1       6.925  -5.815  22.261  0.00  0.00    +0.136 C 
ATOM     21  C   UNL     1       5.804  -4.821  22.257  0.00  0.00    +0.304 C 
ATOM     22  O   UNL     1       5.638  -3.965  21.400  0.00  0.00    -0.251 OA
ENDBRANCH  19  21
ENDBRANCH  18  19
ENDBRANCH  17  18
BRANCH  17  23
ATOM     23  C   UNL     1       4.371  -6.805  26.398  0.00  0.00    +0.190 C 
BRANCH  23  24
ATOM     24  O   UNL     1       5.001  -7.422  27.510  0.00  0.00    -0.392 OA
ATOM     25  H   UNL     1       5.719  -7.990  27.179  0.00  0.00    +0.210 HD
ENDBRANCH  23  24
ENDBRANCH  17  23
ENDBRANCH  16  17
ENDBRANCH  15  16
ENDBRANCH   1  15
TORSDOF 8
ENDMDL
MODEL 6
REMARK VINA RESULT:      -5.7      2.425      3.353
REMARK  Name = 
REMARK  9 active torsions:
REMARK  status: ('A' for Active; 'I' for Inactive)
REMARK    1  A    between atoms: C_1  and  C_2
REMARK    2  A    between atoms: C_2  and  O_4
REMARK    3  A    between atoms: O_4  and  C_5
REMARK    4  A    between atoms: C_5  and  C_6
REMARK    5  A    between atoms: C_6  and  C_7
REMARK    6  A    between atoms: C_6  and  O_9
REMARK    7  A    between atoms: C_7  and  O_8
REMARK    8  A    between atoms: O_9  and  C_10
REMARK    9  A    between atoms: C_10  and  N_11
REMARK                            x       y       z     vdW  Elec       q    Type
REMARK                         _______ _______ _______ _____ _____    ______ ____
ROOT
ATOM      1  N   UNL     1       4.745  -4.463  25.046  0.00  0.00    -0.291 N 
ATOM      2  C   UNL     1       5.784  -4.947  25.793  0.00  0.00    +0.171 A 
ATOM      3  N   UNL     1       7.098  -4.640  25.653  0.00  0.00    -0.196 NA
ATOM      4  C   UNL     1       7.859  -5.222  26.543  0.00  0.00    +0.195 A 
ATOM      5  N   UNL     1       9.196  -4.995  26.547  0.00  0.00    -0.329 N 
ATOM      6  H   UNL     1       9.805  -5.706  26.927  0.00  0.00    +0.145 HD
ATOM      7  H   UNL     1       9.539  -4.571  25.691  0.00  0.00    +0.145 HD
ATOM      8  N   UNL     1       7.386  -6.082  27.514  0.00  0.00    -0.293 N 
ATOM      9  H   UNL     1       8.014  -6.480  28.191  0.00  0.00    +0.172 HD
ATOM     10  C   UNL     1       6.050  -6.414  27.693  0.00  0.00    +0.280 A 
ATOM     11  O   UNL     1       5.688  -7.167  28.591  0.00  0.00    -0.265 OA
ATOM     12  C   UNL     1       5.193  -5.767  26.727  0.00  0.00    +0.172 A 
ATOM     13  N   UNL     1       3.829  -5.790  26.587  0.00  0.00    -0.229 NA
ATOM     14  C   UNL     1       3.591  -4.984  25.571  0.00  0.00    +0.203 A 
ENDROOT
BRANCH   1  15
ATOM     15  C   UNL     1       4.862  -3.479  23.988  0.00  0.00    +0.288 C 
BRANCH  15  16
ATOM     16  O   UNL     1       4.827  -4.132  22.717  0.00  0.00    -0.350 OA
BRANCH  16  17
ATOM     17  C   UNL     1       5.955  -3.823  21.877  0.00  0.00    +0.183 C 
BRANCH  17  18
ATOM     18  C   UNL     1       6.796  -2.741  22.585  0.00  0.00    +0.266 C 
BRANCH  18  19
ATOM     19  O   UNL     1       8.208  -3.014  22.483  0.00  0.00    -0.462 OA
BRANCH  19  21
ATOM     20  C   UNL     1       8.482  -1.321  24.078  0.00  0.00    +0.136 C 
ATOM     21  C   UNL     1       8.957  -2.642  23.555  0.00  0.00    +0.304 C 
ATOM     22  O   UNL     1       9.899  -3.272  24.012  0.00  0.00    -0.251 OA
ENDBRANCH  19  21
ENDBRANCH  18  19
ENDBRANCH  17  18
BRANCH  17  23
ATOM     23  C   UNL     1       6.822  -5.068  21.621  0.00  0.00    +0.190 C 
BRANCH  23  24
ATOM     24  O   UNL     1       7.306  -5.649  22.822  0.00  0.00    -0.392 OA
ATOM     25  H   UNL     1       6.978  -6.564  22.874  0.00  0.00    +0.210 HD
ENDBRANCH  23  24
ENDBRANCH  17  23
ENDBRANCH  16  17
ENDBRANCH  15  16
ENDBRANCH   1  15
TORSDOF 8
ENDMDL
MODEL 7
REMARK VINA RESULT:      -5.6      1.179      1.543
REMARK  Name = 
REMARK  9 active torsions:
REMARK  status: ('A' for Active; 'I' for Inactive)
REMARK    1  A    between atoms: C_1  and  C_2
REMARK    2  A    between atoms: C_2  and  O_4
REMARK    3  A    between atoms: O_4  and  C_5
REMARK    4  A    between atoms: C_5  and  C_6
REMARK    5  A    between atoms: C_6  and  C_7
REMARK    6  A    between atoms: C_6  and  O_9
REMARK    7  A    between atoms: C_7  and  O_8
REMARK    8  A    between atoms: O_9  and  C_10
REMARK    9  A    between atoms: C_10  and  N_11
REMARK                            x       y       z     vdW  Elec       q    Type
REMARK                         _______ _______ _______ _____ _____    ______ ____
ROOT
ATOM      1  N   UNL     1       6.921  -3.507  23.270  0.00  0.00    -0.291 N 
ATOM      2  C   UNL     1       7.524  -4.261  24.240  0.00  0.00    +0.171 A 
ATOM      3  N   UNL     1       8.848  -4.531  24.353  0.00  0.00    -0.196 NA
ATOM      4  C   UNL     1       9.138  -5.242  25.412  0.00  0.00    +0.195 A 
ATOM      5  N   UNL     1      10.427  -5.574  25.675  0.00  0.00    -0.329 N 
ATOM      6  H   UNL     1      10.609  -6.411  26.213  0.00  0.00    +0.145 HD
ATOM      7  H   UNL     1      11.049  -5.447  24.884  0.00  0.00    +0.145 HD
ATOM      8  N   UNL     1       8.197  -5.696  26.314  0.00  0.00    -0.293 N 
ATOM      9  H   UNL     1       8.482  -6.215  27.127  0.00  0.00    +0.172 HD
ATOM     10  C   UNL     1       6.837  -5.434  26.236  0.00  0.00    +0.280 A 
ATOM     11  O   UNL     1       6.051  -5.846  27.084  0.00  0.00    -0.265 OA
ATOM     12  C   UNL     1       6.500  -4.636  25.080  0.00  0.00    +0.172 A 
ATOM     13  N   UNL     1       5.296  -4.128  24.666  0.00  0.00    -0.229 NA
ATOM     14  C   UNL     1       5.587  -3.442  23.578  0.00  0.00    +0.203 A 
ENDROOT
BRANCH   1  15
ATOM     15  C   UNL     1       7.611  -2.810  22.203  0.00  0.00    +0.288 C 
BRANCH  15  16
ATOM     16  O   UNL     1       8.444  -1.789  22.754  0.00  0.00    -0.350 OA
BRANCH  16  17
ATOM     17  C   UNL     1       8.120  -0.465  22.291  0.00  0.00    +0.183 C 
BRANCH  17  18
ATOM     18  C   UNL     1       7.820   0.411  23.525  0.00  0.00    +0.266 C 
BRANCH  18  19
ATOM     19  O   UNL     1       8.996   1.112  23.978  0.00  0.00    -0.462 OA
BRANCH  19  21
ATOM     20  C   UNL     1      11.190   0.658  24.661  0.00  0.00    +0.136 C 
ATOM     21  C   UNL     1       9.727   0.476  24.931  0.00  0.00    +0.304 C 
ATOM     22  O   UNL     1       9.268  -0.176  25.857  0.00  0.00    -0.251 OA
ENDBRANCH  19  21
ENDBRANCH  18  19
ENDBRANCH  17  18
BRANCH  17  23
ATOM     23  C   UNL     1       9.279   0.149  21.489  0.00  0.00    +0.190 C 
BRANCH  23  24
ATOM     24  O   UNL     1       9.013   1.485  21.085  0.00  0.00    -0.392 OA
ATOM     25  H   UNL     1       8.949   1.504  20.114  0.00  0.00    +0.210 HD
ENDBRANCH  23  24
ENDBRANCH  17  23
ENDBRANCH  16  17
ENDBRANCH  15  16
ENDBRANCH   1  15
TORSDOF 8
ENDMDL
MODEL 8
REMARK VINA RESULT:      -5.6      3.515      7.148
REMARK  Name = 
REMARK  9 active torsions:
REMARK  status: ('A' for Active; 'I' for Inactive)
REMARK    1  A    between atoms: C_1  and  C_2
REMARK    2  A    between atoms: C_2  and  O_4
REMARK    3  A    between atoms: O_4  and  C_5
REMARK    4  A    between atoms: C_5  and  C_6
REMARK    5  A    between atoms: C_6  and  C_7
REMARK    6  A    between atoms: C_6  and  O_9
REMARK    7  A    between atoms: C_7  and  O_8
REMARK    8  A    between atoms: O_9  and  C_10
REMARK    9  A    between atoms: C_10  and  N_11
REMARK                            x       y       z     vdW  Elec       q    Type
REMARK                         _______ _______ _______ _____ _____    ______ ____
ROOT
ATOM      1  N   UNL     1       8.902  -0.596  23.389  0.00  0.00    -0.291 N 
ATOM      2  C   UNL     1       8.729   0.714  23.036  0.00  0.00    +0.171 A 
ATOM      3  N   UNL     1       7.615   1.271  22.499  0.00  0.00    -0.196 NA
ATOM      4  C   UNL     1       7.726   2.560  22.308  0.00  0.00    +0.195 A 
ATOM      5  N   UNL     1       6.685   3.264  21.798  0.00  0.00    -0.329 N 
ATOM      6  H   UNL     1       6.881   4.115  21.289  0.00  0.00    +0.145 HD
ATOM      7  H   UNL     1       5.971   2.682  21.371  0.00  0.00    +0.145 HD
ATOM      8  N   UNL     1       8.866   3.284  22.597  0.00  0.00    -0.293 N 
ATOM      9  H   UNL     1       8.885   4.279  22.456  0.00  0.00    +0.172 HD
ATOM     10  C   UNL     1      10.020   2.751  23.153  0.00  0.00    +0.280 A 
ATOM     11  O   UNL     1      10.995   3.452  23.410  0.00  0.00    -0.265 OA
ATOM     12  C   UNL     1       9.910   1.330  23.385  0.00  0.00    +0.172 A 
ATOM     13  N   UNL     1      10.792   0.446  23.952  0.00  0.00    -0.229 NA
ATOM     14  C   UNL     1      10.148  -0.705  23.950  0.00  0.00    +0.203 A 
ENDROOT
BRANCH   1  15
ATOM     15  C   UNL     1       7.888  -1.628  23.298  0.00  0.00    +0.288 C 
BRANCH  15  16
ATOM     16  O   UNL     1       8.508  -2.894  23.069  0.00  0.00    -0.350 OA
BRANCH  16  17
ATOM     17  C   UNL     1       8.230  -3.869  24.091  0.00  0.00    +0.183 C 
BRANCH  17  18
ATOM     18  C   UNL     1       7.757  -5.164  23.399  0.00  0.00    +0.266 C 
BRANCH  18  19
ATOM     19  O   UNL     1       6.318  -5.247  23.354  0.00  0.00    -0.462 OA
BRANCH  19  21
ATOM     20  C   UNL     1       6.214  -5.706  21.059  0.00  0.00    +0.136 C 
ATOM     21  C   UNL     1       5.743  -4.844  22.190  0.00  0.00    +0.304 C 
ATOM     22  O   UNL     1       4.978  -3.898  22.071  0.00  0.00    -0.251 OA
ENDBRANCH  19  21
ENDBRANCH  18  19
ENDBRANCH  17  18
BRANCH  17  23
ATOM     23  C   UNL     1       9.477  -4.162  24.942  0.00  0.00    +0.190 C 
BRANCH  23  24
ATOM     24  O   UNL     1       9.909  -5.510  24.827  0.00  0.00    -0.392 OA
ATOM     25  H   UNL     1      10.213  -5.810  25.702  0.00  0.00    +0.210 HD
ENDBRANCH  23  24
ENDBRANCH  17  23
ENDBRANCH  16  17
ENDBRANCH  15  16
ENDBRANCH   1  15
TORSDOF 8
ENDMDL
MODEL 9
REMARK VINA RESULT:      -5.6      1.756      2.542
REMARK  Name = 
REMARK  9 active torsions:
REMARK  status: ('A' for Active; 'I' for Inactive)
REMARK    1  A    between atoms: C_1  and  C_2
REMARK    2  A    between atoms: C_2  and  O_4
REMARK    3  A    between atoms: O_4  and  C_5
REMARK    4  A    between atoms: C_5  and  C_6
REMARK    5  A    between atoms: C_6  and  C_7
REMARK    6  A    between atoms: C_6  and  O_9
REMARK    7  A    between atoms: C_7  and  O_8
REMARK    8  A    between atoms: O_9  and  C_10
REMARK    9  A    between atoms: C_10  and  N_11
REMARK                            x       y       z     vdW  Elec       q    Type
REMARK                         _______ _______ _______ _____ _____    ______ ____
ROOT
ATOM      1  N   UNL     1       8.526  -3.124  23.510  0.00  0.00    -0.291 N 
ATOM      2  C   UNL     1       7.864  -3.992  24.334  0.00  0.00    +0.171 A 
ATOM      3  N   UNL     1       8.335  -4.545  25.479  0.00  0.00    -0.196 NA
ATOM      4  C   UNL     1       7.457  -5.303  26.083  0.00  0.00    +0.195 A 
ATOM      5  N   UNL     1       7.773  -5.908  27.255  0.00  0.00    -0.329 N 
ATOM      6  H   UNL     1       7.295  -6.765  27.500  0.00  0.00    +0.145 HD
ATOM      7  H   UNL     1       8.769  -5.920  27.451  0.00  0.00    +0.145 HD
ATOM      8  N   UNL     1       6.186  -5.541  25.600  0.00  0.00    -0.293 N 
ATOM      9  H   UNL     1       5.542  -6.110  26.122  0.00  0.00    +0.172 HD
ATOM     10  C   UNL     1       5.666  -4.987  24.439  0.00  0.00    +0.280 A 
ATOM     11  O   UNL     1       4.517  -5.218  24.073  0.00  0.00    -0.265 OA
ATOM     12  C   UNL     1       6.618  -4.135  23.766  0.00  0.00    +0.172 A 
ATOM     13  N   UNL     1       6.491  -3.375  22.632  0.00  0.00    -0.229 NA
ATOM     14  C   UNL     1       7.656  -2.769  22.512  0.00  0.00    +0.203 A 
ENDROOT
BRANCH   1  15
ATOM     15  C   UNL     1       9.854  -2.595  23.746  0.00  0.00    +0.288 C 
BRANCH  15  16
ATOM     16  O   UNL     1       9.826  -1.169  23.661  0.00  0.00    -0.350 OA
BRANCH  16  17
ATOM     17  C   UNL     1       9.916  -0.511  24.939  0.00  0.00    +0.183 C 
BRANCH  17  18
ATOM     18  C   UNL     1      10.817   0.730  24.774  0.00  0.00    +0.266 C 
BRANCH  18  19
ATOM     19  O   UNL     1      10.057   1.893  24.390  0.00  0.00    -0.462 OA
BRANCH  19  21
ATOM     20  C   UNL     1      10.007   1.872  22.048  0.00  0.00    +0.136 C 
ATOM     21  C   UNL     1      10.505   2.550  23.288  0.00  0.00    +0.304 C 
ATOM     22  O   UNL     1      11.233   3.532  23.298  0.00  0.00    -0.251 OA
ENDBRANCH  19  21
ENDBRANCH  18  19
ENDBRANCH  17  18
BRANCH  17  23
ATOM     23  C   UNL     1       8.530  -0.080  25.447  0.00  0.00    +0.190 C 
BRANCH  23  24
ATOM     24  O   UNL     1       7.636   0.232  24.389  0.00  0.00    -0.392 OA
ATOM     25  H   UNL     1       6.893  -0.397  24.420  0.00  0.00    +0.210 HD
ENDBRANCH  23  24
ENDBRANCH  17  23
ENDBRANCH  16  17
ENDBRANCH  15  16
ENDBRANCH   1  15
TORSDOF 8
ENDMDL
