MODEL 1
REMARK VINA RESULT:      -6.0      0.000      0.000
REMARK  Name = 
REMARK  22 active torsions:
REMARK  status: ('A' for Active; 'I' for Inactive)
REMARK    1  A    between atoms: C_1  and  C_2
REMARK    2  A    between atoms: C_2  and  C_3
REMARK    3  A    between atoms: C_2  and  C_4
REMARK    4  A    between atoms: C_2  and  C_5
REMARK    5  A    between atoms: C_5  and  O_7
REMARK    6  A    between atoms: O_7  and  C_8
REMARK    7  A    between atoms: C_8  and  O_9
REMARK    8  A    between atoms: O_9  and  P_10
REMARK    9  A    between atoms: P_10  and  C_11
REMARK   10  A    between atoms: P_10  and  O_25
REMARK   11  A    between atoms: C_11  and  O_12
REMARK   12  A    between atoms: O_12  and  C_13
REMARK   13  A    between atoms: C_13  and  C_14
REMARK   14  A    between atoms: C_14  and  N_15
REMARK   15  A    between atoms: C_19  and  N_24
REMARK   16  A    between atoms: O_25  and  C_26
REMARK   17  A    between atoms: C_26  and  O_27
REMARK   18  A    between atoms: O_27  and  C_28
REMARK   19  A    between atoms: C_28  and  C_30
REMARK   20  A    between atoms: C_30  and  C_31
REMARK   21  A    between atoms: C_30  and  C_32
REMARK   22  A    between atoms: C_30  and  C_33
REMARK                            x       y       z     vdW  Elec       q    Type
REMARK                         _______ _______ _______ _____ _____    ______ ____
ROOT
ATOM      1  P   UNL     1       9.883  -0.525  24.045  0.00  0.00    +0.205 P 
ENDROOT
BRANCH   1   2
ATOM      2  O   UNL     1      10.047  -1.959  23.299  0.00  0.00    -0.293 OA
BRANCH   2   3
ATOM      3  C   UNL     1       9.297  -3.051  23.817  0.00  0.00    +0.404 C 
BRANCH   3   4
ATOM      4  O   UNL     1       8.146  -3.324  22.998  0.00  0.00    -0.437 OA
BRANCH   4   5
ATOM      5  C   UNL     1       7.700  -4.608  23.054  0.00  0.00    +0.314 C 
ATOM      6  O   UNL     1       8.327  -5.542  23.544  0.00  0.00    -0.250 OA
BRANCH   5   7
ATOM      7  C   UNL     1       6.335  -4.761  22.372  0.00  0.00    +0.059 C 
ATOM      8  C   UNL     1       6.461  -5.597  21.092  0.00  0.00    +0.022 C 
ATOM      9  C   UNL     1       5.797  -3.367  21.999  0.00  0.00    +0.022 C 
ATOM     10  C   UNL     1       5.350  -5.428  23.342  0.00  0.00    +0.022 C 
ENDBRANCH   5   7
ENDBRANCH   4   5
ENDBRANCH   3   4
ENDBRANCH   2   3
ENDBRANCH   1   2
BRANCH   1  11
ATOM     11  O   UNL     1       8.567   0.013  23.253  0.00  0.00    -0.293 OA
BRANCH  11  12
ATOM     12  C   UNL     1       8.774   0.511  21.932  0.00  0.00    +0.404 C 
BRANCH  12  13
ATOM     13  O   UNL     1       9.243   1.863  21.946  0.00  0.00    -0.437 OA
BRANCH  13  14
ATOM     14  C   UNL     1       8.373   2.756  22.481  0.00  0.00    +0.314 C 
ATOM     15  O   UNL     1       7.237   2.951  22.072  0.00  0.00    -0.250 OA
BRANCH  14  17
ATOM     16  C   UNL     1      10.552   3.357  23.544  0.00  0.00    +0.022 C 
ATOM     17  C   UNL     1       9.029   3.552  23.614  0.00  0.00    +0.059 C 
ATOM     18  C   UNL     1       8.708   5.045  23.479  0.00  0.00    +0.022 C 
ATOM     19  C   UNL     1       8.517   3.019  24.961  0.00  0.00    +0.022 C 
ENDBRANCH  14  17
ENDBRANCH  13  14
ENDBRANCH  12  13
ENDBRANCH  11  12
ENDBRANCH   1  11
BRANCH   1  20
ATOM     20  C   UNL     1       9.066  -1.146  25.620  0.00  0.00    +0.248 C 
BRANCH  20  21
ATOM     21  O   UNL     1       7.820  -0.521  25.940  0.00  0.00    -0.369 OA
BRANCH  21  22
ATOM     22  C   UNL     1       6.987  -1.349  26.737  0.00  0.00    +0.182 C 
BRANCH  22  23
ATOM     23  C   UNL     1       6.338  -2.387  25.831  0.00  0.00    +0.153 C 
BRANCH  23  24
ATOM     24  N   UNL     1       6.445  -3.708  26.399  0.00  0.00    -0.313 N 
ATOM     25  C   UNL     1       5.396  -4.502  26.765  0.00  0.00    +0.165 A 
ATOM     26  C   UNL     1       5.980  -5.567  27.430  0.00  0.00    +0.147 A 
ATOM     27  C   UNL     1       5.105  -6.516  27.982  0.00  0.00    +0.147 A 
ATOM     28  N   UNL     1       3.775  -6.362  27.778  0.00  0.00    -0.219 NA
ATOM     29  C   UNL     1       3.352  -5.278  27.093  0.00  0.00    +0.225 A 
ATOM     30  N   UNL     1       7.359  -5.456  27.421  0.00  0.00    -0.231 NA
ATOM     31  N   UNL     1       4.088  -4.283  26.566  0.00  0.00    -0.216 NA
ATOM     32  C   UNL     1       7.601  -4.328  26.785  0.00  0.00    +0.201 A 
BRANCH  27  33
ATOM     33  N   UNL     1       5.536  -7.604  28.727  0.00  0.00    -0.341 N 
ATOM     34  H   UNL     1       6.037  -7.328  29.560  0.00  0.00    +0.144 HD
ATOM     35  H   UNL     1       4.845  -8.341  28.807  0.00  0.00    +0.144 HD
ENDBRANCH  27  33
ENDBRANCH  23  24
ENDBRANCH  22  23
ENDBRANCH  21  22
ENDBRANCH  20  21
ENDBRANCH   1  20
TORSDOF 16
ENDMDL
MODEL 2
REMARK VINA RESULT:      -6.0      1.739      2.573
REMARK  Name = 
REMARK  22 active torsions:
REMARK  status: ('A' for Active; 'I' for Inactive)
REMARK    1  A    between atoms: C_1  and  C_2
REMARK    2  A    between atoms: C_2  and  C_3
REMARK    3  A    between atoms: C_2  and  C_4
REMARK    4  A    between atoms: C_2  and  C_5
REMARK    5  A    between atoms: C_5  and  O_7
REMARK    6  A    between atoms: O_7  and  C_8
REMARK    7  A    between atoms: C_8  and  O_9
REMARK    8  A    between atoms: O_9  and  P_10
REMARK    9  A    between atoms: P_10  and  C_11
REMARK   10  A    between atoms: P_10  and  O_25
REMARK   11  A    between atoms: C_11  and  O_12
REMARK   12  A    between atoms: O_12  and  C_13
REMARK   13  A    between atoms: C_13  and  C_14
REMARK   14  A    between atoms: C_14  and  N_15
REMARK   15  A    between atoms: C_19  and  N_24
REMARK   16  A    between atoms: O_25  and  C_26
REMARK   17  A    between atoms: C_26  and  O_27
REMARK   18  A    between atoms: O_27  and  C_28
REMARK   19  A    between atoms: C_28  and  C_30
REMARK   20  A    between atoms: C_30  and  C_31
REMARK   21  A    between atoms: C_30  and  C_32
REMARK   22  A    between atoms: C_30  and  C_33
REMARK                            x       y       z     vdW  Elec       q    Type
REMARK                         _______ _______ _______ _____ _____    ______ ____
ROOT
ATOM      1  P   UNL     1       8.077  -2.703  23.058  0.00  0.00    +0.205 P 
ENDROOT
BRANCH   1   2
ATOM      2  O   UNL     1       7.049  -3.155  21.884  0.00  0.00    -0.293 OA
BRANCH   2   3
ATOM      3  C   UNL     1       5.665  -2.915  22.103  0.00  0.00    +0.404 C 
BRANCH   3   4
ATOM      4  O   UNL     1       4.994  -4.109  22.543  0.00  0.00    -0.437 OA
BRANCH   4   5
ATOM      5  C   UNL     1       4.363  -3.996  23.742  0.00  0.00    +0.314 C 
ATOM      6  O   UNL     1       4.306  -2.966  24.406  0.00  0.00    -0.250 OA
BRANCH   5   7
ATOM      7  C   UNL     1       3.776  -5.339  24.198  0.00  0.00    +0.059 C 
ATOM      8  C   UNL     1       3.012  -6.012  23.052  0.00  0.00    +0.022 C 
ATOM      9  C   UNL     1       2.800  -5.093  25.364  0.00  0.00    +0.022 C 
ATOM     10  C   UNL     1       4.909  -6.253  24.685  0.00  0.00    +0.022 C 
ENDBRANCH   5   7
ENDBRANCH   4   5
ENDBRANCH   3   4
ENDBRANCH   2   3
ENDBRANCH   1   2
BRANCH   1  11
ATOM     11  O   UNL     1       9.241  -2.050  22.127  0.00  0.00    -0.293 OA
BRANCH  11  12
ATOM     12  C   UNL     1       9.014  -0.722  21.657  0.00  0.00    +0.404 C 
BRANCH  12  13
ATOM     13  O   UNL     1      10.003   0.188  22.148  0.00  0.00    -0.437 OA
BRANCH  13  14
ATOM     14  C   UNL     1       9.542   1.438  22.404  0.00  0.00    +0.314 C 
ATOM     15  O   UNL     1       8.800   2.070  21.665  0.00  0.00    -0.250 OA
BRANCH  14  17
ATOM     16  C   UNL     1       9.000   2.505  24.596  0.00  0.00    +0.022 C 
ATOM     17  C   UNL     1      10.140   1.990  23.701  0.00  0.00    +0.059 C 
ATOM     18  C   UNL     1      10.908   0.895  24.449  0.00  0.00    +0.022 C 
ATOM     19  C   UNL     1      11.076   3.159  23.362  0.00  0.00    +0.022 C 
ENDBRANCH  14  17
ENDBRANCH  13  14
ENDBRANCH  12  13
ENDBRANCH  11  12
ENDBRANCH   1  11
BRANCH   1  20
ATOM     20  C   UNL     1       7.187  -1.135  23.590  0.00  0.00    +0.248 C 
BRANCH  20  21
ATOM     21  O   UNL     1       7.596  -0.610  24.857  0.00  0.00    -0.369 OA
BRANCH  21  22
ATOM     22  C   UNL     1       8.031  -1.625  25.749  0.00  0.00    +0.182 C 
BRANCH  22  23
ATOM     23  C   UNL     1       6.857  -2.013  26.640  0.00  0.00    +0.153 C 
BRANCH  23  24
ATOM     24  N   UNL     1       6.875  -3.424  26.934  0.00  0.00    -0.313 N 
ATOM     25  C   UNL     1       5.919  -4.102  27.634  0.00  0.00    +0.165 A 
ATOM     26  C   UNL     1       6.456  -5.363  27.827  0.00  0.00    +0.147 A 
ATOM     27  C   UNL     1       5.693  -6.257  28.595  0.00  0.00    +0.147 A 
ATOM     28  N   UNL     1       4.477  -5.854  29.034  0.00  0.00    -0.219 NA
ATOM     29  C   UNL     1       4.077  -4.596  28.752  0.00  0.00    +0.225 A 
ATOM     30  N   UNL     1       7.689  -5.473  27.211  0.00  0.00    -0.231 NA
ATOM     31  N   UNL     1       4.739  -3.641  28.076  0.00  0.00    -0.216 NA
ATOM     32  C   UNL     1       7.904  -4.287  26.677  0.00  0.00    +0.201 A 
BRANCH  27  33
ATOM     33  N   UNL     1       6.124  -7.534  28.926  0.00  0.00    -0.341 N 
ATOM     34  H   UNL     1       5.356  -8.175  29.074  0.00  0.00    +0.144 HD
ATOM     35  H   UNL     1       6.913  -7.852  28.375  0.00  0.00    +0.144 HD
ENDBRANCH  27  33
ENDBRANCH  23  24
ENDBRANCH  22  23
ENDBRANCH  21  22
ENDBRANCH  20  21
ENDBRANCH   1  20
TORSDOF 16
ENDMDL
MODEL 3
REMARK VINA RESULT:      -6.0      1.608      2.510
REMARK  Name = 
REMARK  22 active torsions:
REMARK  status: ('A' for Active; 'I' for Inactive)
REMARK    1  A    between atoms: C_1  and  C_2
REMARK    2  A    between atoms: C_2  and  C_3
REMARK    3  A    between atoms: C_2  and  C_4
REMARK    4  A    between atoms: C_2  and  C_5
REMARK    5  A    between atoms: C_5  and  O_7
REMARK    6  A    between atoms: O_7  and  C_8
REMARK    7  A    between atoms: C_8  and  O_9
REMARK    8  A    between atoms: O_9  and  P_10
REMARK    9  A    between atoms: P_10  and  C_11
REMARK   10  A    between atoms: P_10  and  O_25
REMARK   11  A    between atoms: C_11  and  O_12
REMARK   12  A    between atoms: O_12  and  C_13
REMARK   13  A    between atoms: C_13  and  C_14
REMARK   14  A    between atoms: C_14  and  N_15
REMARK   15  A    between atoms: C_19  and  N_24
REMARK   16  A    between atoms: O_25  and  C_26
REMARK   17  A    between atoms: C_26  and  O_27
REMARK   18  A    between atoms: O_27  and  C_28
REMARK   19  A    between atoms: C_28  and  C_30
REMARK   20  A    between atoms: C_30  and  C_31
REMARK   21  A    between atoms: C_30  and  C_32
REMARK   22  A    between atoms: C_30  and  C_33
REMARK                            x       y       z     vdW  Elec       q    Type
REMARK                         _______ _______ _______ _____ _____    ______ ____
ROOT
ATOM      1  P   UNL     1      10.000  -1.253  23.352  0.00  0.00    +0.205 P 
ENDROOT
BRANCH   1   2
ATOM      2  O   UNL     1       9.091  -1.735  22.095  0.00  0.00    -0.293 OA
BRANCH   2   3
ATOM      3  C   UNL     1       7.769  -2.176  22.380  0.00  0.00    +0.404 C 
BRANCH   3   4
ATOM      4  O   UNL     1       7.549  -3.509  21.885  0.00  0.00    -0.437 OA
BRANCH   4   5
ATOM      5  C   UNL     1       6.249  -3.907  21.884  0.00  0.00    +0.314 C 
ATOM      6  O   UNL     1       5.287  -3.148  21.946  0.00  0.00    -0.250 OA
BRANCH   5   7
ATOM      7  C   UNL     1       6.128  -5.437  21.857  0.00  0.00    +0.059 C 
ATOM      8  C   UNL     1       4.842  -5.889  22.559  0.00  0.00    +0.022 C 
ATOM      9  C   UNL     1       7.333  -6.052  22.590  0.00  0.00    +0.022 C 
ATOM     10  C   UNL     1       6.132  -5.924  20.401  0.00  0.00    +0.022 C 
ENDBRANCH   5   7
ENDBRANCH   4   5
ENDBRANCH   3   4
ENDBRANCH   2   3
ENDBRANCH   1   2
BRANCH   1  11
ATOM     11  O   UNL     1       9.138   0.055  23.791  0.00  0.00    -0.293 OA
BRANCH  11  12
ATOM     12  C   UNL     1       9.832   1.063  24.524  0.00  0.00    +0.404 C 
BRANCH  12  13
ATOM     13  O   UNL     1       9.135   2.312  24.494  0.00  0.00    -0.437 OA
BRANCH  13  14
ATOM     14  C   UNL     1       9.781   3.303  23.828  0.00  0.00    +0.314 C 
ATOM     15  O   UNL     1      10.840   3.164  23.232  0.00  0.00    -0.250 OA
BRANCH  14  17
ATOM     16  C   UNL     1      10.060   5.784  23.781  0.00  0.00    +0.022 C 
ATOM     17  C   UNL     1       9.054   4.641  23.992  0.00  0.00    +0.059 C 
ATOM     18  C   UNL     1       7.926   4.770  22.961  0.00  0.00    +0.022 C 
ATOM     19  C   UNL     1       8.485   4.731  25.415  0.00  0.00    +0.022 C 
ENDBRANCH  14  17
ENDBRANCH  13  14
ENDBRANCH  12  13
ENDBRANCH  11  12
ENDBRANCH   1  11
BRANCH   1  20
ATOM     20  C   UNL     1       9.363  -2.486  24.619  0.00  0.00    +0.248 C 
BRANCH  20  21
ATOM     21  O   UNL     1       9.890  -3.810  24.491  0.00  0.00    -0.369 OA
BRANCH  21  22
ATOM     22  C   UNL     1       9.328  -4.711  25.432  0.00  0.00    +0.182 C 
BRANCH  22  23
ATOM     23  C   UNL     1       8.474  -3.912  26.408  0.00  0.00    +0.153 C 
BRANCH  23  24
ATOM     24  N   UNL     1       7.120  -4.407  26.436  0.00  0.00    -0.313 N 
ATOM     25  C   UNL     1       6.644  -5.370  27.278  0.00  0.00    +0.165 A 
ATOM     26  C   UNL     1       5.372  -5.647  26.808  0.00  0.00    +0.147 A 
ATOM     27  C   UNL     1       4.672  -6.672  27.465  0.00  0.00    +0.147 A 
ATOM     28  N   UNL     1       5.252  -7.267  28.533  0.00  0.00    -0.219 NA
ATOM     29  C   UNL     1       6.495  -6.878  28.888  0.00  0.00    +0.225 A 
ATOM     30  N   UNL     1       5.055  -4.832  25.736  0.00  0.00    -0.231 NA
ATOM     31  N   UNL     1       7.278  -5.952  28.307  0.00  0.00    -0.216 NA
ATOM     32  C   UNL     1       6.129  -4.094  25.546  0.00  0.00    +0.201 A 
BRANCH  27  33
ATOM     33  N   UNL     1       3.413  -7.105  27.071  0.00  0.00    -0.341 N 
ATOM     34  H   UNL     1       3.090  -7.895  27.612  0.00  0.00    +0.144 HD
ATOM     35  H   UNL     1       2.762  -6.350  26.891  0.00  0.00    +0.144 HD
ENDBRANCH  27  33
ENDBRANCH  23  24
ENDBRANCH  22  23
ENDBRANCH  21  22
ENDBRANCH  20  21
ENDBRANCH   1  20
TORSDOF 16
ENDMDL
MODEL 4
REMARK VINA RESULT:      -5.9      1.181      1.749
REMARK  Name = 
REMARK  22 active torsions:
REMARK  status: ('A' for Active; 'I' for Inactive)
REMARK    1  A    between atoms: C_1  and  C_2
REMARK    2  A    between atoms: C_2  and  C_3
REMARK    3  A    between atoms: C_2  and  C_4
REMARK    4  A    between atoms: C_2  and  C_5
REMARK    5  A    between atoms: C_5  and  O_7
REMARK    6  A    between atoms: O_7  and  C_8
REMARK    7  A    between atoms: C_8  and  O_9
REMARK    8  A    between atoms: O_9  and  P_10
REMARK    9  A    between atoms: P_10  and  C_11
REMARK   10  A    between atoms: P_10  and  O_25
REMARK   11  A    between atoms: C_11  and  O_12
REMARK   12  A    between atoms: O_12  and  C_13
REMARK   13  A    between atoms: C_13  and  C_14
REMARK   14  A    between atoms: C_14  and  N_15
REMARK   15  A    between atoms: C_19  and  N_24
REMARK   16  A    between atoms: O_25  and  C_26
REMARK   17  A    between atoms: C_26  and  O_27
REMARK   18  A    between atoms: O_27  and  C_28
REMARK   19  A    between atoms: C_28  and  C_30
REMARK   20  A    between atoms: C_30  and  C_31
REMARK   21  A    between atoms: C_30  and  C_32
REMARK   22  A    between atoms: C_30  and  C_33
REMARK                            x       y       z     vdW  Elec       q    Type
REMARK                         _______ _______ _______ _____ _____    ______ ____
ROOT
ATOM      1  P   UNL     1       9.904  -0.284  24.230  0.00  0.00    +0.205 P 
ENDROOT
BRANCH   1   2
ATOM      2  O   UNL     1       9.475  -1.381  23.112  0.00  0.00    -0.293 OA
BRANCH   2   3
ATOM      3  C   UNL     1       9.231  -2.708  23.562  0.00  0.00    +0.404 C 
BRANCH   3   4
ATOM      4  O   UNL     1       7.904  -3.139  23.210  0.00  0.00    -0.437 OA
BRANCH   4   5
ATOM      5  C   UNL     1       7.708  -4.484  23.271  0.00  0.00    +0.314 C 
ATOM      6  O   UNL     1       8.542  -5.291  23.668  0.00  0.00    -0.250 OA
BRANCH   5   7
ATOM      7  C   UNL     1       6.331  -4.879  22.723  0.00  0.00    +0.059 C 
ATOM      8  C   UNL     1       5.544  -5.682  23.766  0.00  0.00    +0.022 C 
ATOM      9  C   UNL     1       6.518  -5.750  21.468  0.00  0.00    +0.022 C 
ATOM     10  C   UNL     1       5.553  -3.613  22.336  0.00  0.00    +0.022 C 
ENDBRANCH   5   7
ENDBRANCH   4   5
ENDBRANCH   3   4
ENDBRANCH   2   3
ENDBRANCH   1   2
BRANCH   1  11
ATOM     11  O   UNL     1      10.056   1.011  23.257  0.00  0.00    -0.293 OA
BRANCH  11  12
ATOM     12  C   UNL     1      10.637   2.180  23.833  0.00  0.00    +0.404 C 
BRANCH  12  13
ATOM     13  O   UNL     1      10.031   3.374  23.329  0.00  0.00    -0.437 OA
BRANCH  13  14
ATOM     14  C   UNL     1       9.348   4.094  24.255  0.00  0.00    +0.314 C 
ATOM     15  O   UNL     1       8.522   3.628  25.027  0.00  0.00    -0.250 OA
BRANCH  14  17
ATOM     16  C   UNL     1       8.754   6.235  23.116  0.00  0.00    +0.022 C 
ATOM     17  C   UNL     1       9.686   5.585  24.151  0.00  0.00    +0.059 C 
ATOM     18  C   UNL     1       9.491   6.276  25.505  0.00  0.00    +0.022 C 
ATOM     19  C   UNL     1      11.140   5.737  23.681  0.00  0.00    +0.022 C 
ENDBRANCH  14  17
ENDBRANCH  13  14
ENDBRANCH  12  13
ENDBRANCH  11  12
ENDBRANCH   1  11
BRANCH   1  20
ATOM     20  C   UNL     1       8.193   0.052  24.932  0.00  0.00    +0.248 C 
BRANCH  20  21
ATOM     21  O   UNL     1       8.086  -0.088  26.351  0.00  0.00    -0.369 OA
BRANCH  21  22
ATOM     22  C   UNL     1       8.120  -1.445  26.766  0.00  0.00    +0.182 C 
BRANCH  22  23
ATOM     23  C   UNL     1       6.804  -2.101  26.366  0.00  0.00    +0.153 C 
BRANCH  23  24
ATOM     24  N   UNL     1       6.793  -3.497  26.726  0.00  0.00    -0.313 N 
ATOM     25  C   UNL     1       5.695  -4.207  27.117  0.00  0.00    +0.165 A 
ATOM     26  C   UNL     1       6.199  -5.424  27.541  0.00  0.00    +0.147 A 
ATOM     27  C   UNL     1       5.271  -6.336  28.069  0.00  0.00    +0.147 A 
ATOM     28  N   UNL     1       3.961  -5.994  28.071  0.00  0.00    -0.219 NA
ATOM     29  C   UNL     1       3.614  -4.774  27.608  0.00  0.00    +0.225 A 
ATOM     30  N   UNL     1       7.569  -5.479  27.361  0.00  0.00    -0.231 NA
ATOM     31  N   UNL     1       4.415  -3.805  27.130  0.00  0.00    -0.216 NA
ATOM     32  C   UNL     1       7.889  -4.303  26.861  0.00  0.00    +0.201 A 
BRANCH  27  33
ATOM     33  N   UNL     1       5.631  -7.571  28.591  0.00  0.00    -0.341 N 
ATOM     34  H   UNL     1       5.007  -8.310  28.298  0.00  0.00    +0.144 HD
ATOM     35  H   UNL     1       6.628  -7.747  28.564  0.00  0.00    +0.144 HD
ENDBRANCH  27  33
ENDBRANCH  23  24
ENDBRANCH  22  23
ENDBRANCH  21  22
ENDBRANCH  20  21
ENDBRANCH   1  20
TORSDOF 16
ENDMDL
MODEL 5
REMARK VINA RESULT:      -5.9      1.615      5.932
REMARK  Name = 
REMARK  22 active torsions:
REMARK  status: ('A' for Active; 'I' for Inactive)
REMARK    1  A    between atoms: C_1  and  C_2
REMARK    2  A    between atoms: C_2  and  C_3
REMARK    3  A    between atoms: C_2  and  C_4
REMARK    4  A    between atoms: C_2  and  C_5
REMARK    5  A    between atoms: C_5  and  O_7
REMARK    6  A    between atoms: O_7  and  C_8
REMARK    7  A    between atoms: C_8  and  O_9
REMARK    8  A    between atoms: O_9  and  P_10
REMARK    9  A    between atoms: P_10  and  C_11
REMARK   10  A    between atoms: P_10  and  O_25
REMARK   11  A    between atoms: C_11  and  O_12
REMARK   12  A    between atoms: O_12  and  C_13
REMARK   13  A    between atoms: C_13  and  C_14
REMARK   14  A    between atoms: C_14  and  N_15
REMARK   15  A    between atoms: C_19  and  N_24
REMARK   16  A    between atoms: O_25  and  C_26
REMARK   17  A    between atoms: C_26  and  O_27
REMARK   18  A    between atoms: O_27  and  C_28
REMARK   19  A    between atoms: C_28  and  C_30
REMARK   20  A    between atoms: C_30  and  C_31
REMARK   21  A    between atoms: C_30  and  C_32
REMARK   22  A    between atoms: C_30  and  C_33
REMARK                            x       y       z     vdW  Elec       q    Type
REMARK                         _______ _______ _______ _____ _____    ______ ____
ROOT
ATOM      1  P   UNL     1       6.661  -1.021  23.952  0.00  0.00    +0.205 P 
ENDROOT
BRANCH   1   2
ATOM      2  O   UNL     1       6.998   0.179  22.911  0.00  0.00    -0.293 OA
BRANCH   2   3
ATOM      3  C   UNL     1       6.697   1.505  23.327  0.00  0.00    +0.404 C 
BRANCH   3   4
ATOM      4  O   UNL     1       7.798   2.394  23.067  0.00  0.00    -0.437 OA
BRANCH   4   5
ATOM      5  C   UNL     1       8.757   2.406  24.031  0.00  0.00    +0.314 C 
ATOM      6  O   UNL     1       8.557   2.682  25.210  0.00  0.00    -0.250 OA
BRANCH   5   7
ATOM      7  C   UNL     1      10.143   2.091  23.452  0.00  0.00    +0.059 C 
ATOM      8  C   UNL     1      11.015   3.352  23.420  0.00  0.00    +0.022 C 
ATOM      9  C   UNL     1       9.982   1.566  22.014  0.00  0.00    +0.022 C 
ATOM     10  C   UNL     1      10.817   1.005  24.302  0.00  0.00    +0.022 C 
ENDBRANCH   5   7
ENDBRANCH   4   5
ENDBRANCH   3   4
ENDBRANCH   2   3
ENDBRANCH   1   2
BRANCH   1  11
ATOM     11  O   UNL     1       8.176  -1.353  24.443  0.00  0.00    -0.293 OA
BRANCH  11  12
ATOM     12  C   UNL     1       8.740  -2.584  23.992  0.00  0.00    +0.404 C 
BRANCH  12  13
ATOM     13  O   UNL     1       7.874  -3.255  23.072  0.00  0.00    -0.437 OA
BRANCH  13  14
ATOM     14  C   UNL     1       7.745  -4.588  23.289  0.00  0.00    +0.314 C 
ATOM     15  O   UNL     1       8.594  -5.291  23.820  0.00  0.00    -0.250 OA
BRANCH  14  17
ATOM     16  C   UNL     1       6.748  -6.230  21.693  0.00  0.00    +0.022 C 
ATOM     17  C   UNL     1       6.431  -5.117  22.705  0.00  0.00    +0.059 C 
ATOM     18  C   UNL     1       5.540  -5.686  23.814  0.00  0.00    +0.022 C 
ATOM     19  C   UNL     1       5.710  -3.971  21.979  0.00  0.00    +0.022 C 
ENDBRANCH  14  17
ENDBRANCH  13  14
ENDBRANCH  12  13
ENDBRANCH  11  12
ENDBRANCH   1  11
BRANCH   1  20
ATOM     20  C   UNL     1       6.091   0.041  25.395  0.00  0.00    +0.248 C 
BRANCH  20  21
ATOM     21  O   UNL     1       4.717  -0.121  25.757  0.00  0.00    -0.369 OA
BRANCH  21  22
ATOM     22  C   UNL     1       4.547  -0.989  26.867  0.00  0.00    +0.182 C 
BRANCH  22  23
ATOM     23  C   UNL     1       3.934  -2.291  26.366  0.00  0.00    +0.153 C 
BRANCH  23  24
ATOM     24  N   UNL     1       4.225  -3.379  27.265  0.00  0.00    -0.313 N 
ATOM     25  C   UNL     1       5.407  -4.060  27.331  0.00  0.00    +0.165 A 
ATOM     26  C   UNL     1       5.152  -5.120  28.184  0.00  0.00    +0.147 A 
ATOM     27  C   UNL     1       6.200  -6.035  28.374  0.00  0.00    +0.147 A 
ATOM     28  N   UNL     1       7.387  -5.790  27.773  0.00  0.00    -0.219 NA
ATOM     29  C   UNL     1       7.494  -4.702  26.980  0.00  0.00    +0.225 A 
ATOM     30  N   UNL     1       3.860  -5.059  28.673  0.00  0.00    -0.231 NA
ATOM     31  N   UNL     1       6.551  -3.791  26.683  0.00  0.00    -0.216 NA
ATOM     32  C   UNL     1       3.336  -3.992  28.104  0.00  0.00    +0.201 A 
BRANCH  27  33
ATOM     33  N   UNL     1       6.077  -7.180  29.150  0.00  0.00    -0.341 N 
ATOM     34  H   UNL     1       6.869  -7.318  29.762  0.00  0.00    +0.144 HD
ATOM     35  H   UNL     1       5.148  -7.313  29.532  0.00  0.00    +0.144 HD
ENDBRANCH  27  33
ENDBRANCH  23  24
ENDBRANCH  22  23
ENDBRANCH  21  22
ENDBRANCH  20  21
ENDBRANCH   1  20
TORSDOF 16
ENDMDL
MODEL 6
REMARK VINA RESULT:      -5.8      2.056      4.078
REMARK  Name = 
REMARK  22 active torsions:
REMARK  status: ('A' for Active; 'I' for Inactive)
REMARK    1  A    between atoms: C_1  and  C_2
REMARK    2  A    between atoms: C_2  and  C_3
REMARK    3  A    between atoms: C_2  and  C_4
REMARK    4  A    between atoms: C_2  and  C_5
REMARK    5  A    between atoms: C_5  and  O_7
REMARK    6  A    between atoms: O_7  and  C_8
REMARK    7  A    between atoms: C_8  and  O_9
REMARK    8  A    between atoms: O_9  and  P_10
REMARK    9  A    between atoms: P_10  and  C_11
REMARK   10  A    between atoms: P_10  and  O_25
REMARK   11  A    between atoms: C_11  and  O_12
REMARK   12  A    between atoms: O_12  and  C_13
REMARK   13  A    between atoms: C_13  and  C_14
REMARK   14  A    between atoms: C_14  and  N_15
REMARK   15  A    between atoms: C_19  and  N_24
REMARK   16  A    between atoms: O_25  and  C_26
REMARK   17  A    between atoms: C_26  and  O_27
REMARK   18  A    between atoms: O_27  and  C_28
REMARK   19  A    between atoms: C_28  and  C_30
REMARK   20  A    between atoms: C_30  and  C_31
REMARK   21  A    between atoms: C_30  and  C_32
REMARK   22  A    between atoms: C_30  and  C_33
REMARK                            x       y       z     vdW  Elec       q    Type
REMARK                         _______ _______ _______ _____ _____    ______ ____
ROOT
ATOM      1  P   UNL     1       8.120  -2.607  22.973  0.00  0.00    +0.205 P 
ENDROOT
BRANCH   1   2
ATOM      2  O   UNL     1       7.395  -1.287  23.583  0.00  0.00    -0.293 OA
BRANCH   2   3
ATOM      3  C   UNL     1       6.096  -1.456  24.136  0.00  0.00    +0.404 C 
BRANCH   3   4
ATOM      4  O   UNL     1       6.155  -1.576  25.569  0.00  0.00    -0.437 OA
BRANCH   4   5
ATOM      5  C   UNL     1       5.200  -0.875  26.238  0.00  0.00    +0.314 C 
ATOM      6  O   UNL     1       3.994  -1.081  26.149  0.00  0.00    -0.250 OA
BRANCH   5   7
ATOM      7  C   UNL     1       5.814   0.254  27.077  0.00  0.00    +0.059 C 
ATOM      8  C   UNL     1       7.319   0.030  27.265  0.00  0.00    +0.022 C 
ATOM      9  C   UNL     1       5.141   0.277  28.461  0.00  0.00    +0.022 C 
ATOM     10  C   UNL     1       5.564   1.600  26.382  0.00  0.00    +0.022 C 
ENDBRANCH   5   7
ENDBRANCH   4   5
ENDBRANCH   3   4
ENDBRANCH   2   3
ENDBRANCH   1   2
BRANCH   1  11
ATOM     11  O   UNL     1       9.185  -1.868  21.989  0.00  0.00    -0.293 OA
BRANCH  11  12
ATOM     12  C   UNL     1      10.373  -1.362  22.595  0.00  0.00    +0.404 C 
BRANCH  12  13
ATOM     13  O   UNL     1      10.448   0.063  22.502  0.00  0.00    -0.437 OA
BRANCH  13  14
ATOM     14  C   UNL     1      10.370   0.712  23.691  0.00  0.00    +0.314 C 
ATOM     15  O   UNL     1      10.728   0.242  24.763  0.00  0.00    -0.250 OA
BRANCH  14  17
ATOM     16  C   UNL     1       8.817   2.055  22.271  0.00  0.00    +0.022 C 
ATOM     17  C   UNL     1       9.698   2.078  23.531  0.00  0.00    +0.059 C 
ATOM     18  C   UNL     1       8.821   2.393  24.749  0.00  0.00    +0.022 C 
ATOM     19  C   UNL     1      10.782   3.153  23.365  0.00  0.00    +0.022 C 
ENDBRANCH  14  17
ENDBRANCH  13  14
ENDBRANCH  12  13
ENDBRANCH  11  12
ENDBRANCH   1  11
BRANCH   1  20
ATOM     20  C   UNL     1       9.249  -2.976  24.430  0.00  0.00    +0.248 C 
BRANCH  20  21
ATOM     21  O   UNL     1       9.908  -4.245  24.375  0.00  0.00    -0.369 OA
BRANCH  21  22
ATOM     22  C   UNL     1       9.140  -5.281  24.968  0.00  0.00    +0.182 C 
BRANCH  22  23
ATOM     23  C   UNL     1       8.423  -4.708  26.185  0.00  0.00    +0.153 C 
BRANCH  23  24
ATOM     24  N   UNL     1       7.043  -5.121  26.212  0.00  0.00    -0.313 N 
ATOM     25  C   UNL     1       6.420  -5.741  27.257  0.00  0.00    +0.165 A 
ATOM     26  C   UNL     1       5.184  -6.112  26.756  0.00  0.00    +0.147 A 
ATOM     27  C   UNL     1       4.353  -6.844  27.620  0.00  0.00    +0.147 A 
ATOM     28  N   UNL     1       4.783  -7.078  28.883  0.00  0.00    -0.219 NA
ATOM     29  C   UNL     1       6.009  -6.638  29.236  0.00  0.00    +0.225 A 
ATOM     30  N   UNL     1       5.031  -5.680  25.452  0.00  0.00    -0.231 NA
ATOM     31  N   UNL     1       6.908  -5.978  28.484  0.00  0.00    -0.216 NA
ATOM     32  C   UNL     1       6.168  -5.081  25.161  0.00  0.00    +0.201 A 
BRANCH  27  33
ATOM     33  N   UNL     1       3.112  -7.338  27.243  0.00  0.00    -0.341 N 
ATOM     34  H   UNL     1       3.108  -8.345  27.155  0.00  0.00    +0.144 HD
ATOM     35  H   UNL     1       2.336  -6.897  27.723  0.00  0.00    +0.144 HD
ENDBRANCH  27  33
ENDBRANCH  23  24
ENDBRANCH  22  23
ENDBRANCH  21  22
ENDBRANCH  20  21
ENDBRANCH   1  20
TORSDOF 16
ENDMDL
MODEL 7
REMARK VINA RESULT:      -5.8      2.130      4.053
REMARK  Name = 
REMARK  22 active torsions:
REMARK  status: ('A' for Active; 'I' for Inactive)
REMARK    1  A    between atoms: C_1  and  C_2
REMARK    2  A    between atoms: C_2  and  C_3
REMARK    3  A    between atoms: C_2  and  C_4
REMARK    4  A    between atoms: C_2  and  C_5
REMARK    5  A    between atoms: C_5  and  O_7
REMARK    6  A    between atoms: O_7  and  C_8
REMARK    7  A    between atoms: C_8  and  O_9
REMARK    8  A    between atoms: O_9  and  P_10
REMARK    9  A    between atoms: P_10  and  C_11
REMARK   10  A    between atoms: P_10  and  O_25
REMARK   11  A    between atoms: C_11  and  O_12
REMARK   12  A    between atoms: O_12  and  C_13
REMARK   13  A    between atoms: C_13  and  C_14
REMARK   14  A    between atoms: C_14  and  N_15
REMARK   15  A    between atoms: C_19  and  N_24
REMARK   16  A    between atoms: O_25  and  C_26
REMARK   17  A    between atoms: C_26  and  O_27
REMARK   18  A    between atoms: O_27  and  C_28
REMARK   19  A    between atoms: C_28  and  C_30
REMARK   20  A    between atoms: C_30  and  C_31
REMARK   21  A    between atoms: C_30  and  C_32
REMARK   22  A    between atoms: C_30  and  C_33
REMARK                            x       y       z     vdW  Elec       q    Type
REMARK                         _______ _______ _______ _____ _____    ______ ____
ROOT
ATOM      1  P   UNL     1       5.909  -0.200  26.330  0.00  0.00    +0.205 P 
ENDROOT
BRANCH   1   2
ATOM      2  O   UNL     1       6.842  -1.463  25.914  0.00  0.00    -0.293 OA
BRANCH   2   3
ATOM      3  C   UNL     1       8.202  -1.431  26.327  0.00  0.00    +0.404 C 
BRANCH   3   4
ATOM      4  O   UNL     1       9.089  -1.618  25.209  0.00  0.00    -0.437 OA
BRANCH   4   5
ATOM      5  C   UNL     1       9.473  -0.470  24.591  0.00  0.00    +0.314 C 
ATOM      6  O   UNL     1       9.773   0.568  25.172  0.00  0.00    -0.250 OA
BRANCH   5   7
ATOM      7  C   UNL     1       9.427  -0.610  23.063  0.00  0.00    +0.059 C 
ATOM      8  C   UNL     1       9.977   0.652  22.388  0.00  0.00    +0.022 C 
ATOM      9  C   UNL     1       7.967  -0.811  22.618  0.00  0.00    +0.022 C 
ATOM     10  C   UNL     1      10.248  -1.836  22.638  0.00  0.00    +0.022 C 
ENDBRANCH   5   7
ENDBRANCH   4   5
ENDBRANCH   3   4
ENDBRANCH   2   3
ENDBRANCH   1   2
BRANCH   1  11
ATOM     11  O   UNL     1       5.412   0.236  24.843  0.00  0.00    -0.293 OA
BRANCH  11  12
ATOM     12  C   UNL     1       5.519   1.620  24.513  0.00  0.00    +0.404 C 
BRANCH  12  13
ATOM     13  O   UNL     1       6.871   2.081  24.601  0.00  0.00    -0.437 OA
BRANCH  13  14
ATOM     14  C   UNL     1       7.256   2.896  23.586  0.00  0.00    +0.314 C 
ATOM     15  O   UNL     1       7.063   2.668  22.400  0.00  0.00    -0.250 OA
BRANCH  14  17
ATOM     16  C   UNL     1       7.611   5.355  23.339  0.00  0.00    +0.022 C 
ATOM     17  C   UNL     1       8.041   4.100  24.116  0.00  0.00    +0.059 C 
ATOM     18  C   UNL     1       7.760   4.312  25.608  0.00  0.00    +0.022 C 
ATOM     19  C   UNL     1       9.541   3.859  23.887  0.00  0.00    +0.022 C 
ENDBRANCH  14  17
ENDBRANCH  13  14
ENDBRANCH  12  13
ENDBRANCH  11  12
ENDBRANCH   1  11
BRANCH   1  20
ATOM     20  C   UNL     1       4.399  -1.168  26.892  0.00  0.00    +0.248 C 
BRANCH  20  21
ATOM     21  O   UNL     1       4.118  -2.344  26.127  0.00  0.00    -0.369 OA
BRANCH  21  22
ATOM     22  C   UNL     1       3.726  -3.439  26.941  0.00  0.00    +0.182 C 
BRANCH  22  23
ATOM     23  C   UNL     1       4.262  -4.719  26.312  0.00  0.00    +0.153 C 
BRANCH  23  24
ATOM     24  N   UNL     1       5.688  -4.824  26.491  0.00  0.00    -0.313 N 
ATOM     25  C   UNL     1       6.619  -4.778  25.494  0.00  0.00    +0.165 A 
ATOM     26  C   UNL     1       7.811  -5.115  26.114  0.00  0.00    +0.147 A 
ATOM     27  C   UNL     1       8.941  -5.212  25.285  0.00  0.00    +0.147 A 
ATOM     28  N   UNL     1       8.804  -4.915  23.972  0.00  0.00    -0.219 NA
ATOM     29  C   UNL     1       7.579  -4.585  23.511  0.00  0.00    +0.225 A 
ATOM     30  N   UNL     1       7.623  -5.307  27.470  0.00  0.00    -0.231 NA
ATOM     31  N   UNL     1       6.423  -4.510  24.194  0.00  0.00    -0.216 NA
ATOM     32  C   UNL     1       6.334  -5.116  27.661  0.00  0.00    +0.201 A 
BRANCH  27  33
ATOM     33  N   UNL     1      10.191  -5.599  25.748  0.00  0.00    -0.341 N 
ATOM     34  H   UNL     1      10.923  -4.966  25.457  0.00  0.00    +0.144 HD
ATOM     35  H   UNL     1      10.187  -5.915  26.711  0.00  0.00    +0.144 HD
ENDBRANCH  27  33
ENDBRANCH  23  24
ENDBRANCH  22  23
ENDBRANCH  21  22
ENDBRANCH  20  21
ENDBRANCH   1  20
TORSDOF 16
ENDMDL
MODEL 8
REMARK VINA RESULT:      -5.8      2.302      5.562
REMARK  Name = 
REMARK  22 active torsions:
REMARK  status: ('A' for Active; 'I' for Inactive)
REMARK    1  A    between atoms: C_1  and  C_2
REMARK    2  A    between atoms: C_2  and  C_3
REMARK    3  A    between atoms: C_2  and  C_4
REMARK    4  A    between atoms: C_2  and  C_5
REMARK    5  A    between atoms: C_5  and  O_7
REMARK    6  A    between atoms: O_7  and  C_8
REMARK    7  A    between atoms: C_8  and  O_9
REMARK    8  A    between atoms: O_9  and  P_10
REMARK    9  A    between atoms: P_10  and  C_11
REMARK   10  A    between atoms: P_10  and  O_25
REMARK   11  A    between atoms: C_11  and  O_12
REMARK   12  A    between atoms: O_12  and  C_13
REMARK   13  A    between atoms: C_13  and  C_14
REMARK   14  A    between atoms: C_14  and  N_15
REMARK   15  A    between atoms: C_19  and  N_24
REMARK   16  A    between atoms: O_25  and  C_26
REMARK   17  A    between atoms: C_26  and  O_27
REMARK   18  A    between atoms: O_27  and  C_28
REMARK   19  A    between atoms: C_28  and  C_30
REMARK   20  A    between atoms: C_30  and  C_31
REMARK   21  A    between atoms: C_30  and  C_32
REMARK   22  A    between atoms: C_30  and  C_33
REMARK                            x       y       z     vdW  Elec       q    Type
REMARK                         _______ _______ _______ _____ _____    ______ ____
ROOT
ATOM      1  P   UNL     1       5.611  -1.422  25.537  0.00  0.00    +0.205 P 
ENDROOT
BRANCH   1   2
ATOM      2  O   UNL     1       5.200   0.072  25.048  0.00  0.00    -0.293 OA
BRANCH   2   3
ATOM      3  C   UNL     1       5.969   1.157  25.554  0.00  0.00    +0.404 C 
BRANCH   3   4
ATOM      4  O   UNL     1       5.983   2.259  24.629  0.00  0.00    -0.437 OA
BRANCH   4   5
ATOM      5  C   UNL     1       7.191   2.865  24.486  0.00  0.00    +0.314 C 
ATOM      6  O   UNL     1       8.158   2.674  25.216  0.00  0.00    -0.250 OA
BRANCH   5   7
ATOM      7  C   UNL     1       7.183   3.872  23.328  0.00  0.00    +0.059 C 
ATOM      8  C   UNL     1       8.370   4.835  23.441  0.00  0.00    +0.022 C 
ATOM      9  C   UNL     1       5.879   4.689  23.378  0.00  0.00    +0.022 C 
ATOM     10  C   UNL     1       7.243   3.116  21.993  0.00  0.00    +0.022 C 
ENDBRANCH   5   7
ENDBRANCH   4   5
ENDBRANCH   3   4
ENDBRANCH   2   3
ENDBRANCH   1   2
BRANCH   1  11
ATOM     11  O   UNL     1       6.854  -1.027  26.511  0.00  0.00    -0.293 OA
BRANCH  11  12
ATOM     12  C   UNL     1       8.052  -1.785  26.358  0.00  0.00    +0.404 C 
BRANCH  12  13
ATOM     13  O   UNL     1       8.524  -1.760  25.007  0.00  0.00    -0.437 OA
BRANCH  13  14
ATOM     14  C   UNL     1       9.376  -0.742  24.727  0.00  0.00    +0.314 C 
ATOM     15  O   UNL     1       9.980  -0.090  25.567  0.00  0.00    -0.250 OA
BRANCH  14  17
ATOM     16  C   UNL     1      10.128   0.886  22.988  0.00  0.00    +0.022 C 
ATOM     17  C   UNL     1       9.420  -0.459  23.222  0.00  0.00    +0.059 C 
ATOM     18  C   UNL     1      10.189  -1.564  22.489  0.00  0.00    +0.022 C 
ATOM     19  C   UNL     1       7.983  -0.367  22.688  0.00  0.00    +0.022 C 
ENDBRANCH  14  17
ENDBRANCH  13  14
ENDBRANCH  12  13
ENDBRANCH  11  12
ENDBRANCH   1  11
BRANCH   1  20
ATOM     20  C   UNL     1       4.264  -1.651  26.827  0.00  0.00    +0.248 C 
BRANCH  20  21
ATOM     21  O   UNL     1       3.978  -3.011  27.165  0.00  0.00    -0.369 OA
BRANCH  21  22
ATOM     22  C   UNL     1       3.723  -3.811  26.021  0.00  0.00    +0.182 C 
BRANCH  22  23
ATOM     23  C   UNL     1       4.244  -5.217  26.294  0.00  0.00    +0.153 C 
BRANCH  23  24
ATOM     24  N   UNL     1       5.674  -5.211  26.474  0.00  0.00    -0.313 N 
ATOM     25  C   UNL     1       6.599  -5.102  25.476  0.00  0.00    +0.165 A 
ATOM     26  C   UNL     1       7.813  -5.341  26.098  0.00  0.00    +0.147 A 
ATOM     27  C   UNL     1       8.947  -5.358  25.271  0.00  0.00    +0.147 A 
ATOM     28  N   UNL     1       8.789  -5.084  23.955  0.00  0.00    -0.219 NA
ATOM     29  C   UNL     1       7.542  -4.852  23.492  0.00  0.00    +0.225 A 
ATOM     30  N   UNL     1       7.640  -5.536  27.457  0.00  0.00    -0.231 NA
ATOM     31  N   UNL     1       6.384  -4.861  24.175  0.00  0.00    -0.216 NA
ATOM     32  C   UNL     1       6.340  -5.443  27.646  0.00  0.00    +0.201 A 
BRANCH  27  33
ATOM     33  N   UNL     1      10.223  -5.644  25.736  0.00  0.00    -0.341 N 
ATOM     34  H   UNL     1      10.368  -6.633  25.885  0.00  0.00    +0.144 HD
ATOM     35  H   UNL     1      10.953  -5.119  25.269  0.00  0.00    +0.144 HD
ENDBRANCH  27  33
ENDBRANCH  23  24
ENDBRANCH  22  23
ENDBRANCH  21  22
ENDBRANCH  20  21
ENDBRANCH   1  20
TORSDOF 16
ENDMDL
MODEL 9
REMARK VINA RESULT:      -5.8      2.196      4.533
REMARK  Name = 
REMARK  22 active torsions:
REMARK  status: ('A' for Active; 'I' for Inactive)
REMARK    1  A    between atoms: C_1  and  C_2
REMARK    2  A    between atoms: C_2  and  C_3
REMARK    3  A    between atoms: C_2  and  C_4
REMARK    4  A    between atoms: C_2  and  C_5
REMARK    5  A    between atoms: C_5  and  O_7
REMARK    6  A    between atoms: O_7  and  C_8
REMARK    7  A    between atoms: C_8  and  O_9
REMARK    8  A    between atoms: O_9  and  P_10
REMARK    9  A    between atoms: P_10  and  C_11
REMARK   10  A    between atoms: P_10  and  O_25
REMARK   11  A    between atoms: C_11  and  O_12
REMARK   12  A    between atoms: O_12  and  C_13
REMARK   13  A    between atoms: C_13  and  C_14
REMARK   14  A    between atoms: C_14  and  N_15
REMARK   15  A    between atoms: C_19  and  N_24
REMARK   16  A    between atoms: O_25  and  C_26
REMARK   17  A    between atoms: C_26  and  O_27
REMARK   18  A    between atoms: O_27  and  C_28
REMARK   19  A    between atoms: C_28  and  C_30
REMARK   20  A    between atoms: C_30  and  C_31
REMARK   21  A    between atoms: C_30  and  C_32
REMARK   22  A    between atoms: C_30  and  C_33
REMARK                            x       y       z     vdW  Elec       q    Type
REMARK                         _______ _______ _______ _____ _____    ______ ____
ROOT
ATOM      1  P   UNL     1       8.268  -1.834  22.647  0.00  0.00    +0.205 P 
ENDROOT
BRANCH   1   2
ATOM      2  O   UNL     1       7.470  -1.204  23.914  0.00  0.00    -0.293 OA
BRANCH   2   3
ATOM      3  C   UNL     1       6.088  -1.518  24.033  0.00  0.00    +0.404 C 
BRANCH   3   4
ATOM      4  O   UNL     1       5.619  -1.296  25.375  0.00  0.00    -0.437 OA
BRANCH   4   5
ATOM      5  C   UNL     1       5.400   0.008  25.692  0.00  0.00    +0.314 C 
ATOM      6  O   UNL     1       4.993   0.857  24.906  0.00  0.00    -0.250 OA
BRANCH   5   7
ATOM      7  C   UNL     1       5.784   0.306  27.147  0.00  0.00    +0.059 C 
ATOM      8  C   UNL     1       7.266  -0.003  27.389  0.00  0.00    +0.022 C 
ATOM      9  C   UNL     1       4.937  -0.575  28.084  0.00  0.00    +0.022 C 
ATOM     10  C   UNL     1       5.495   1.781  27.460  0.00  0.00    +0.022 C 
ENDBRANCH   5   7
ENDBRANCH   4   5
ENDBRANCH   3   4
ENDBRANCH   2   3
ENDBRANCH   1   2
BRANCH   1  11
ATOM     11  O   UNL     1       8.585  -0.452  21.847  0.00  0.00    -0.293 OA
BRANCH  11  12
ATOM     12  C   UNL     1       9.940  -0.007  21.849  0.00  0.00    +0.404 C 
BRANCH  12  13
ATOM     13  O   UNL     1      10.031   1.406  22.049  0.00  0.00    -0.437 OA
BRANCH  13  14
ATOM     14  C   UNL     1      10.111   1.788  23.349  0.00  0.00    +0.314 C 
ATOM     15  O   UNL     1      10.849   1.276  24.179  0.00  0.00    -0.250 OA
BRANCH  14  17
ATOM     16  C   UNL     1       8.106   3.005  22.490  0.00  0.00    +0.022 C 
ATOM     17  C   UNL     1       9.094   2.889  23.663  0.00  0.00    +0.059 C 
ATOM     18  C   UNL     1       8.317   2.556  24.941  0.00  0.00    +0.022 C 
ATOM     19  C   UNL     1       9.836   4.224  23.825  0.00  0.00    +0.022 C 
ENDBRANCH  14  17
ENDBRANCH  13  14
ENDBRANCH  12  13
ENDBRANCH  11  12
ENDBRANCH   1  11
BRANCH   1  20
ATOM     20  C   UNL     1       9.928  -2.092  23.490  0.00  0.00    +0.248 C 
BRANCH  20  21
ATOM     21  O   UNL     1      10.158  -3.418  23.974  0.00  0.00    -0.369 OA
BRANCH  21  22
ATOM     22  C   UNL     1       9.497  -3.669  25.204  0.00  0.00    +0.182 C 
BRANCH  22  23
ATOM     23  C   UNL     1       9.024  -5.118  25.206  0.00  0.00    +0.153 C 
BRANCH  23  24
ATOM     24  N   UNL     1       7.593  -5.194  25.046  0.00  0.00    -0.313 N 
ATOM     25  C   UNL     1       6.934  -5.332  23.859  0.00  0.00    +0.165 A 
ATOM     26  C   UNL     1       5.598  -5.161  24.179  0.00  0.00    +0.147 A 
ATOM     27  C   UNL     1       4.690  -5.185  23.109  0.00  0.00    +0.147 A 
ATOM     28  N   UNL     1       5.165  -5.433  21.865  0.00  0.00    -0.219 NA
ATOM     29  C   UNL     1       6.496  -5.598  21.707  0.00  0.00    +0.225 A 
ATOM     30  N   UNL     1       5.438  -4.978  25.541  0.00  0.00    -0.231 NA
ATOM     31  N   UNL     1       7.460  -5.544  22.643  0.00  0.00    -0.216 NA
ATOM     32  C   UNL     1       6.661  -5.012  26.030  0.00  0.00    +0.201 A 
BRANCH  27  33
ATOM     33  N   UNL     1       3.327  -4.968  23.263  0.00  0.00    -0.341 N 
ATOM     34  H   UNL     1       2.938  -4.415  22.512  0.00  0.00    +0.144 HD
ATOM     35  H   UNL     1       2.817  -5.789  23.567  0.00  0.00    +0.144 HD
ENDBRANCH  27  33
ENDBRANCH  23  24
ENDBRANCH  22  23
ENDBRANCH  21  22
ENDBRANCH  20  21
ENDBRANCH   1  20
TORSDOF 16
ENDMDL
