MODEL 1
REMARK VINA RESULT:      -5.9      0.000      0.000
REMARK  Name = 
REMARK  4 active torsions:
REMARK  status: ('A' for Active; 'I' for Inactive)
REMARK    1  A    between atoms: C_1  and  C_2
REMARK    2  A    between atoms: N_5  and  C_12
REMARK    3  A    between atoms: C_18  and  C_21
REMARK    4  A    between atoms: C_21  and  O_24
REMARK                            x       y       z     vdW  Elec       q    Type
REMARK                         _______ _______ _______ _____ _____    ______ ____
ROOT
ATOM      1  C   UNL     1       5.590  -3.734  27.455  0.00  0.00    +0.051 C 
ATOM      2  C   UNL     1       6.865  -3.974  26.719  0.00  0.00    +0.030 A 
ATOM      3  C   UNL     1       7.638  -5.180  27.106  0.00  0.00    +0.257 A 
ATOM      4  O   UNL     1       7.229  -5.977  27.943  0.00  0.00    -0.267 OA
ATOM      5  N   UNL     1       8.828  -5.354  26.465  0.00  0.00    -0.275 N 
ATOM      6  H   UNL     1       9.354  -6.180  26.695  0.00  0.00    +0.173 HD
ATOM      7  C   UNL     1       9.298  -4.600  25.428  0.00  0.00    +0.332 A 
ATOM      8  O   UNL     1      10.328  -4.938  24.847  0.00  0.00    -0.246 OA
ATOM      9  N   UNL     1       8.535  -3.491  25.086  0.00  0.00    -0.270 N 
ATOM     10  C   UNL     1       7.350  -3.201  25.736  0.00  0.00    +0.102 A 
ENDROOT
BRANCH   9  11
ATOM     11  C   UNL     1       9.012  -2.726  23.948  0.00  0.00    +0.248 C 
ATOM     12  O   UNL     1      10.016  -1.742  24.295  0.00  0.00    -0.343 OA
ATOM     13  C   UNL     1       9.844  -0.662  23.342  0.00  0.00    +0.169 C 
ATOM     14  C   UNL     1       8.387  -0.710  23.021  0.00  0.00    +0.007 C 
ATOM     15  C   UNL     1       7.909  -1.905  23.370  0.00  0.00    +0.025 C 
BRANCH  13  16
ATOM     16  C   UNL     1      10.314   0.675  23.918  0.00  0.00    +0.191 C 
BRANCH  16  17
ATOM     17  O   UNL     1      10.584   0.548  25.315  0.00  0.00    -0.392 OA
ATOM     18  H   UNL     1      10.334  -0.354  25.577  0.00  0.00    +0.210 HD
ENDBRANCH  16  17
ENDBRANCH  13  16
ENDBRANCH   9  11
TORSDOF 3
ENDMDL
MODEL 2
REMARK VINA RESULT:      -5.8      1.814      1.991
REMARK  Name = 
REMARK  4 active torsions:
REMARK  status: ('A' for Active; 'I' for Inactive)
REMARK    1  A    between atoms: C_1  and  C_2
REMARK    2  A    between atoms: N_5  and  C_12
REMARK    3  A    between atoms: C_18  and  C_21
REMARK    4  A    between atoms: C_21  and  O_24
REMARK                            x       y       z     vdW  Elec       q    Type
REMARK                         _______ _______ _______ _____ _____    ______ ____
ROOT
ATOM      1  C   UNL     1       4.877  -3.451  23.621  0.00  0.00    +0.051 C 
ATOM      2  C   UNL     1       6.325  -3.669  23.911  0.00  0.00    +0.030 A 
ATOM      3  C   UNL     1       6.677  -4.923  24.621  0.00  0.00    +0.257 A 
ATOM      4  O   UNL     1       5.839  -5.772  24.903  0.00  0.00    -0.267 OA
ATOM      5  N   UNL     1       7.995  -5.080  24.929  0.00  0.00    -0.275 N 
ATOM      6  H   UNL     1       8.258  -5.937  25.387  0.00  0.00    +0.173 HD
ATOM      7  C   UNL     1       9.014  -4.260  24.536  0.00  0.00    +0.332 A 
ATOM      8  O   UNL     1      10.178  -4.580  24.770  0.00  0.00    -0.246 OA
ATOM      9  N   UNL     1       8.641  -3.106  23.860  0.00  0.00    -0.270 N 
ATOM     10  C   UNL     1       7.318  -2.834  23.570  0.00  0.00    +0.102 A 
ENDROOT
BRANCH   9  11
ATOM     11  C   UNL     1       9.733  -2.268  23.397  0.00  0.00    +0.248 C 
ATOM     12  O   UNL     1      10.022  -1.159  24.283  0.00  0.00    -0.343 OA
ATOM     13  C   UNL     1      10.521  -0.100  23.425  0.00  0.00    +0.169 C 
ATOM     14  C   UNL     1       9.825  -0.346  22.129  0.00  0.00    +0.007 C 
ATOM     15  C   UNL     1       9.372  -1.600  22.114  0.00  0.00    +0.025 C 
BRANCH  13  16
ATOM     16  C   UNL     1      10.257   1.281  24.027  0.00  0.00    +0.191 C 
BRANCH  16  17
ATOM     17  O   UNL     1       9.586   1.158  25.282  0.00  0.00    -0.392 OA
ATOM     18  H   UNL     1       8.985   0.396  25.214  0.00  0.00    +0.210 HD
ENDBRANCH  16  17
ENDBRANCH  13  16
ENDBRANCH   9  11
TORSDOF 3
ENDMDL
MODEL 3
REMARK VINA RESULT:      -5.7      3.290      3.604
REMARK  Name = 
REMARK  4 active torsions:
REMARK  status: ('A' for Active; 'I' for Inactive)
REMARK    1  A    between atoms: C_1  and  C_2
REMARK    2  A    between atoms: N_5  and  C_12
REMARK    3  A    between atoms: C_18  and  C_21
REMARK    4  A    between atoms: C_21  and  O_24
REMARK                            x       y       z     vdW  Elec       q    Type
REMARK                         _______ _______ _______ _____ _____    ______ ____
ROOT
ATOM      1  C   UNL     1       5.112  -5.683  26.403  0.00  0.00    +0.051 C 
ATOM      2  C   UNL     1       5.349  -5.518  24.938  0.00  0.00    +0.030 A 
ATOM      3  C   UNL     1       4.857  -6.607  24.060  0.00  0.00    +0.257 A 
ATOM      4  O   UNL     1       4.232  -7.567  24.497  0.00  0.00    -0.267 OA
ATOM      5  N   UNL     1       5.132  -6.469  22.733  0.00  0.00    -0.275 N 
ATOM      6  H   UNL     1       4.782  -7.185  22.116  0.00  0.00    +0.173 HD
ATOM      7  C   UNL     1       5.696  -5.376  22.139  0.00  0.00    +0.332 A 
ATOM      8  O   UNL     1       5.774  -5.319  20.913  0.00  0.00    -0.246 OA
ATOM      9  N   UNL     1       6.127  -4.373  22.997  0.00  0.00    -0.270 N 
ATOM     10  C   UNL     1       5.952  -4.466  24.365  0.00  0.00    +0.102 A 
ENDROOT
BRANCH   9  11
ATOM     11  C   UNL     1       6.676  -3.190  22.357  0.00  0.00    +0.248 C 
ATOM     12  O   UNL     1       8.118  -3.220  22.233  0.00  0.00    -0.343 OA
ATOM     13  C   UNL     1       8.540  -1.833  22.297  0.00  0.00    +0.169 C 
ATOM     14  C   UNL     1       7.503  -1.195  23.160  0.00  0.00    +0.007 C 
ATOM     15  C   UNL     1       6.426  -1.980  23.191  0.00  0.00    +0.025 C 
BRANCH  13  16
ATOM     16  C   UNL     1       9.967  -1.705  22.833  0.00  0.00    +0.191 C 
BRANCH  16  17
ATOM     17  O   UNL     1      10.266  -2.787  23.717  0.00  0.00    -0.392 OA
ATOM     18  H   UNL     1       9.801  -2.614  24.553  0.00  0.00    +0.210 HD
ENDBRANCH  16  17
ENDBRANCH  13  16
ENDBRANCH   9  11
TORSDOF 3
ENDMDL
MODEL 4
REMARK VINA RESULT:      -5.5      2.687      3.274
REMARK  Name = 
REMARK  4 active torsions:
REMARK  status: ('A' for Active; 'I' for Inactive)
REMARK    1  A    between atoms: C_1  and  C_2
REMARK    2  A    between atoms: N_5  and  C_12
REMARK    3  A    between atoms: C_18  and  C_21
REMARK    4  A    between atoms: C_21  and  O_24
REMARK                            x       y       z     vdW  Elec       q    Type
REMARK                         _______ _______ _______ _____ _____    ______ ____
ROOT
ATOM      1  C   UNL     1       6.351  -5.645  21.508  0.00  0.00    +0.051 C 
ATOM      2  C   UNL     1       6.623  -4.811  22.716  0.00  0.00    +0.030 A 
ATOM      3  C   UNL     1       5.976  -5.243  23.980  0.00  0.00    +0.257 A 
ATOM      4  O   UNL     1       5.302  -6.264  24.053  0.00  0.00    -0.267 OA
ATOM      5  N   UNL     1       6.187  -4.439  25.059  0.00  0.00    -0.275 N 
ATOM      6  H   UNL     1       5.778  -4.729  25.932  0.00  0.00    +0.173 HD
ATOM      7  C   UNL     1       7.029  -3.365  25.107  0.00  0.00    +0.332 A 
ATOM      8  O   UNL     1       7.233  -2.797  26.179  0.00  0.00    -0.246 OA
ATOM      9  N   UNL     1       7.627  -3.005  23.907  0.00  0.00    -0.270 N 
ATOM     10  C   UNL     1       7.409  -3.725  22.747  0.00  0.00    +0.102 A 
ENDROOT
BRANCH   9  11
ATOM     11  C   UNL     1       8.563  -1.897  23.977  0.00  0.00    +0.248 C 
ATOM     12  O   UNL     1       8.140  -0.738  23.220  0.00  0.00    -0.343 OA
ATOM     13  C   UNL     1       9.365  -0.093  22.784  0.00  0.00    +0.169 C 
ATOM     14  C   UNL     1      10.326  -1.227  22.652  0.00  0.00    +0.007 C 
ATOM     15  C   UNL     1       9.862  -2.268  23.344  0.00  0.00    +0.025 C 
BRANCH  13  16
ATOM     16  C   UNL     1       9.152   0.701  21.494  0.00  0.00    +0.191 C 
BRANCH  16  17
ATOM     17  O   UNL     1       9.923   1.903  21.516  0.00  0.00    -0.392 OA
ATOM     18  H   UNL     1       9.992   2.219  20.599  0.00  0.00    +0.210 HD
ENDBRANCH  16  17
ENDBRANCH  13  16
ENDBRANCH   9  11
TORSDOF 3
ENDMDL
MODEL 5
REMARK VINA RESULT:      -5.5      2.778      5.558
REMARK  Name = 
REMARK  4 active torsions:
REMARK  status: ('A' for Active; 'I' for Inactive)
REMARK    1  A    between atoms: C_1  and  C_2
REMARK    2  A    between atoms: N_5  and  C_12
REMARK    3  A    between atoms: C_18  and  C_21
REMARK    4  A    between atoms: C_21  and  O_24
REMARK                            x       y       z     vdW  Elec       q    Type
REMARK                         _______ _______ _______ _____ _____    ______ ____
ROOT
ATOM      1  C   UNL     1       9.818   1.029  21.860  0.00  0.00    +0.051 C 
ATOM      2  C   UNL     1       9.441   0.049  22.921  0.00  0.00    +0.030 A 
ATOM      3  C   UNL     1      10.130   0.188  24.228  0.00  0.00    +0.257 A 
ATOM      4  O   UNL     1      10.922   1.096  24.455  0.00  0.00    -0.267 OA
ATOM      5  N   UNL     1       9.818  -0.749  25.166  0.00  0.00    -0.275 N 
ATOM      6  H   UNL     1      10.254  -0.655  26.068  0.00  0.00    +0.173 HD
ATOM      7  C   UNL     1       8.851  -1.707  25.052  0.00  0.00    +0.332 A 
ATOM      8  O   UNL     1       8.575  -2.413  26.021  0.00  0.00    -0.246 OA
ATOM      9  N   UNL     1       8.220  -1.792  23.818  0.00  0.00    -0.270 N 
ATOM     10  C   UNL     1       8.529  -0.925  22.787  0.00  0.00    +0.102 A 
ENDROOT
BRANCH   9  11
ATOM     11  C   UNL     1       7.156  -2.776  23.722  0.00  0.00    +0.248 C 
ATOM     12  O   UNL     1       7.611  -4.073  23.265  0.00  0.00    -0.343 OA
ATOM     13  C   UNL     1       6.486  -4.646  22.550  0.00  0.00    +0.169 C 
ATOM     14  C   UNL     1       5.776  -3.453  22.005  0.00  0.00    +0.007 C 
ATOM     15  C   UNL     1       6.163  -2.373  22.685  0.00  0.00    +0.025 C 
BRANCH  13  16
ATOM     16  C   UNL     1       6.948  -5.642  21.485  0.00  0.00    +0.191 C 
BRANCH  16  17
ATOM     17  O   UNL     1       6.068  -5.612  20.360  0.00  0.00    -0.392 OA
ATOM     18  H   UNL     1       5.160  -5.674  20.702  0.00  0.00    +0.210 HD
ENDBRANCH  16  17
ENDBRANCH  13  16
ENDBRANCH   9  11
TORSDOF 3
ENDMDL
MODEL 6
REMARK VINA RESULT:      -5.4      2.504      5.485
REMARK  Name = 
REMARK  4 active torsions:
REMARK  status: ('A' for Active; 'I' for Inactive)
REMARK    1  A    between atoms: C_1  and  C_2
REMARK    2  A    between atoms: N_5  and  C_12
REMARK    3  A    between atoms: C_18  and  C_21
REMARK    4  A    between atoms: C_21  and  O_24
REMARK                            x       y       z     vdW  Elec       q    Type
REMARK                         _______ _______ _______ _____ _____    ______ ____
ROOT
ATOM      1  C   UNL     1       7.342   1.911  22.106  0.00  0.00    +0.051 C 
ATOM      2  C   UNL     1       8.043   0.639  22.450  0.00  0.00    +0.030 A 
ATOM      3  C   UNL     1       9.517   0.627  22.278  0.00  0.00    +0.257 A 
ATOM      4  O   UNL     1      10.142   1.622  21.931  0.00  0.00    -0.267 OA
ATOM      5  N   UNL     1      10.135  -0.559  22.540  0.00  0.00    -0.275 N 
ATOM      6  H   UNL     1      11.137  -0.580  22.455  0.00  0.00    +0.173 HD
ATOM      7  C   UNL     1       9.543  -1.674  23.061  0.00  0.00    +0.332 A 
ATOM      8  O   UNL     1      10.235  -2.641  23.376  0.00  0.00    -0.246 OA
ATOM      9  N   UNL     1       8.165  -1.614  23.222  0.00  0.00    -0.270 N 
ATOM     10  C   UNL     1       7.450  -0.472  22.911  0.00  0.00    +0.102 A 
ENDROOT
BRANCH   9  11
ATOM     11  C   UNL     1       7.550  -2.782  23.827  0.00  0.00    +0.248 C 
ATOM     12  O   UNL     1       8.303  -3.316  24.943  0.00  0.00    -0.343 OA
ATOM     13  C   UNL     1       8.036  -4.742  24.941  0.00  0.00    +0.169 C 
ATOM     14  C   UNL     1       7.799  -5.050  23.501  0.00  0.00    +0.007 C 
ATOM     15  C   UNL     1       7.516  -3.916  22.859  0.00  0.00    +0.025 C 
BRANCH  13  16
ATOM     16  C   UNL     1       9.187  -5.529  25.569  0.00  0.00    +0.191 C 
BRANCH  16  17
ATOM     17  O   UNL     1      10.428  -5.169  24.960  0.00  0.00    -0.392 OA
ATOM     18  H   UNL     1      11.139  -5.490  25.540  0.00  0.00    +0.210 HD
ENDBRANCH  16  17
ENDBRANCH  13  16
ENDBRANCH   9  11
TORSDOF 3
ENDMDL
MODEL 7
REMARK VINA RESULT:      -5.3      2.284      3.226
REMARK  Name = 
REMARK  4 active torsions:
REMARK  status: ('A' for Active; 'I' for Inactive)
REMARK    1  A    between atoms: C_1  and  C_2
REMARK    2  A    between atoms: N_5  and  C_12
REMARK    3  A    between atoms: C_18  and  C_21
REMARK    4  A    between atoms: C_21  and  O_24
REMARK                            x       y       z     vdW  Elec       q    Type
REMARK                         _______ _______ _______ _____ _____    ______ ____
ROOT
ATOM      1  C   UNL     1       5.894  -1.331  25.607  0.00  0.00    +0.051 C 
ATOM      2  C   UNL     1       7.212  -1.585  24.956  0.00  0.00    +0.030 A 
ATOM      3  C   UNL     1       7.554  -3.003  24.682  0.00  0.00    +0.257 A 
ATOM      4  O   UNL     1       6.775  -3.920  24.916  0.00  0.00    -0.267 OA
ATOM      5  N   UNL     1       8.784  -3.223  24.140  0.00  0.00    -0.275 N 
ATOM      6  H   UNL     1       9.024  -4.175  23.921  0.00  0.00    +0.173 HD
ATOM      7  C   UNL     1       9.659  -2.262  23.718  0.00  0.00    +0.332 A 
ATOM      8  O   UNL     1      10.685  -2.589  23.126  0.00  0.00    -0.246 OA
ATOM      9  N   UNL     1       9.292  -0.948  23.979  0.00  0.00    -0.270 N 
ATOM     10  C   UNL     1       8.092  -0.641  24.592  0.00  0.00    +0.102 A 
ENDROOT
BRANCH   9  11
ATOM     11  C   UNL     1      10.200   0.070  23.480  0.00  0.00    +0.248 C 
ATOM     12  O   UNL     1      10.167   1.297  24.248  0.00  0.00    -0.343 OA
ATOM     13  C   UNL     1      10.479   2.353  23.303  0.00  0.00    +0.169 C 
ATOM     14  C   UNL     1       9.953   1.827  22.009  0.00  0.00    +0.007 C 
ATOM     15  C   UNL     1       9.794   0.507  22.113  0.00  0.00    +0.025 C 
BRANCH  13  16
ATOM     16  C   UNL     1       9.869   3.688  23.731  0.00  0.00    +0.191 C 
BRANCH  16  17
ATOM     17  O   UNL     1      10.692   4.773  23.301  0.00  0.00    -0.392 OA
ATOM     18  H   UNL     1      11.173   5.097  24.081  0.00  0.00    +0.210 HD
ENDBRANCH  16  17
ENDBRANCH  13  16
ENDBRANCH   9  11
TORSDOF 3
ENDMDL
MODEL 8
REMARK VINA RESULT:      -5.3      3.108      5.908
REMARK  Name = 
REMARK  4 active torsions:
REMARK  status: ('A' for Active; 'I' for Inactive)
REMARK    1  A    between atoms: C_1  and  C_2
REMARK    2  A    between atoms: N_5  and  C_12
REMARK    3  A    between atoms: C_18  and  C_21
REMARK    4  A    between atoms: C_21  and  O_24
REMARK                            x       y       z     vdW  Elec       q    Type
REMARK                         _______ _______ _______ _____ _____    ______ ____
ROOT
ATOM      1  C   UNL     1       6.476   1.676  22.792  0.00  0.00    +0.051 C 
ATOM      2  C   UNL     1       7.554   0.653  22.661  0.00  0.00    +0.030 A 
ATOM      3  C   UNL     1       8.871   1.135  22.176  0.00  0.00    +0.257 A 
ATOM      4  O   UNL     1       9.090   2.320  21.951  0.00  0.00    -0.267 OA
ATOM      5  N   UNL     1       9.827   0.179  22.007  0.00  0.00    -0.275 N 
ATOM      6  H   UNL     1      10.735   0.490  21.704  0.00  0.00    +0.173 HD
ATOM      7  C   UNL     1       9.719  -1.136  22.361  0.00  0.00    +0.332 A 
ATOM      8  O   UNL     1      10.700  -1.872  22.277  0.00  0.00    -0.246 OA
ATOM      9  N   UNL     1       8.475  -1.541  22.826  0.00  0.00    -0.270 N 
ATOM     10  C   UNL     1       7.427  -0.649  22.959  0.00  0.00    +0.102 A 
ENDROOT
BRANCH   9  11
ATOM     11  C   UNL     1       8.382  -2.926  23.251  0.00  0.00    +0.248 C 
ATOM     12  O   UNL     1       7.590  -3.750  22.362  0.00  0.00    -0.343 OA
ATOM     13  C   UNL     1       7.000  -4.772  23.206  0.00  0.00    +0.169 C 
ATOM     14  C   UNL     1       6.858  -4.093  24.527  0.00  0.00    +0.007 C 
ATOM     15  C   UNL     1       7.660  -3.027  24.552  0.00  0.00    +0.025 C 
BRANCH  13  16
ATOM     16  C   UNL     1       5.685  -5.290  22.624  0.00  0.00    +0.191 C 
BRANCH  16  17
ATOM     17  O   UNL     1       4.904  -4.208  22.115  0.00  0.00    -0.392 OA
ATOM     18  H   UNL     1       3.986  -4.520  22.046  0.00  0.00    +0.210 HD
ENDBRANCH  16  17
ENDBRANCH  13  16
ENDBRANCH   9  11
TORSDOF 3
ENDMDL
MODEL 9
REMARK VINA RESULT:      -5.2      2.828      5.304
REMARK  Name = 
REMARK  4 active torsions:
REMARK  status: ('A' for Active; 'I' for Inactive)
REMARK    1  A    between atoms: C_1  and  C_2
REMARK    2  A    between atoms: N_5  and  C_12
REMARK    3  A    between atoms: C_18  and  C_21
REMARK    4  A    between atoms: C_21  and  O_24
REMARK                            x       y       z     vdW  Elec       q    Type
REMARK                         _______ _______ _______ _____ _____    ______ ____
ROOT
ATOM      1  C   UNL     1       7.540   1.078  25.853  0.00  0.00    +0.051 C 
ATOM      2  C   UNL     1       8.336   0.211  24.935  0.00  0.00    +0.030 A 
ATOM      3  C   UNL     1       9.506   0.841  24.276  0.00  0.00    +0.257 A 
ATOM      4  O   UNL     1       9.847   1.994  24.513  0.00  0.00    -0.267 OA
ATOM      5  N   UNL     1      10.187   0.053  23.397  0.00  0.00    -0.275 N 
ATOM      6  H   UNL     1      11.001   0.454  22.960  0.00  0.00    +0.173 HD
ATOM      7  C   UNL     1       9.967  -1.276  23.174  0.00  0.00    +0.332 A 
ATOM      8  O   UNL     1      10.735  -1.908  22.451  0.00  0.00    -0.246 OA
ATOM      9  N   UNL     1       8.872  -1.830  23.823  0.00  0.00    -0.270 N 
ATOM     10  C   UNL     1       8.083  -1.081  24.677  0.00  0.00    +0.102 A 
ENDROOT
BRANCH   9  11
ATOM     11  C   UNL     1       8.676  -3.255  23.624  0.00  0.00    +0.248 C 
ATOM     12  O   UNL     1       7.774  -3.565  22.536  0.00  0.00    -0.343 OA
ATOM     13  C   UNL     1       7.134  -4.813  22.908  0.00  0.00    +0.169 C 
ATOM     14  C   UNL     1       7.114  -4.762  24.399  0.00  0.00    +0.007 C 
ATOM     15  C   UNL     1       8.008  -3.862  24.811  0.00  0.00    +0.025 C 
BRANCH  13  16
ATOM     16  C   UNL     1       5.752  -4.949  22.267  0.00  0.00    +0.191 C 
BRANCH  16  17
ATOM     17  O   UNL     1       5.773  -4.453  20.928  0.00  0.00    -0.392 OA
ATOM     18  H   UNL     1       6.595  -4.768  20.515  0.00  0.00    +0.210 HD
ENDBRANCH  16  17
ENDBRANCH  13  16
ENDBRANCH   9  11
TORSDOF 3
ENDMDL
