MODEL 1
REMARK VINA RESULT:      -6.3      0.000      0.000
REMARK  Name = 
REMARK  19 active torsions:
REMARK  status: ('A' for Active; 'I' for Inactive)
REMARK    1  A    between atoms: C_1  and  C_2
REMARK    2  A    between atoms: C_2  and  C_3
REMARK    3  A    between atoms: C_2  and  C_4
REMARK    4  A    between atoms: C_4  and  C_5
REMARK    5  A    between atoms: C_4  and  N_52
REMARK    6  A    between atoms: C_11  and  C_13
REMARK    7  A    between atoms: C_16  and  C_18
REMARK    8  A    between atoms: C_21  and  C_24
REMARK    9  A    between atoms: C_27  and  C_30
REMARK   10  A    between atoms: C_33  and  C_35
REMARK   11  A    between atoms: C_41  and  C_43
REMARK   12  A    between atoms: C_43  and  C_44
REMARK   13  A    between atoms: C_43  and  N_47
REMARK   14  A    between atoms: C_44  and  C_45
REMARK   15  A    between atoms: C_44  and  C_46
REMARK   16  A    between atoms: C_48  and  O_50
REMARK   17  A    between atoms: O_50  and  C_51
REMARK   18  A    between atoms: C_53  and  O_55
REMARK   19  A    between atoms: O_55  and  C_56
REMARK                            x       y       z     vdW  Elec       q    Type
REMARK                         _______ _______ _______ _____ _____    ______ ____
ROOT
ATOM      1  C   UNL     1       9.578   1.126  23.637  0.00  0.00    -0.000 A 
ATOM      2  C   UNL     1       9.515   0.412  24.838  0.00  0.00    +0.010 A 
ATOM      3  C   UNL     1       8.815  -0.814  24.925  0.00  0.00    +0.009 A 
ATOM      4  C   UNL     1       8.147  -1.374  23.820  0.00  0.00    -0.018 A 
ATOM      5  C   UNL     1       8.264  -0.664  22.611  0.00  0.00    +0.009 A 
ATOM      6  C   UNL     1       8.964   0.550  22.519  0.00  0.00    +0.010 A 
ENDROOT
BRANCH   1  10
ATOM      7  C   UNL     1      10.601   4.646  23.734  0.00  0.00    +0.128 A 
ATOM      8  N   UNL     1       9.728   3.627  24.048  0.00  0.00    -0.340 N 
ATOM      9  H   UNL     1       8.887   3.741  24.593  0.00  0.00    +0.167 HD
ATOM     10  C   UNL     1      10.204   2.447  23.520  0.00  0.00    +0.066 A 
ATOM     11  C   UNL     1      11.364   2.841  22.874  0.00  0.00    +0.139 A 
ATOM     12  N   UNL     1      11.614   4.178  23.035  0.00  0.00    -0.238 NA
BRANCH   7  15
ATOM     13  C   UNL     1       7.997   6.464  24.104  0.00  0.00    +0.237 C 
ATOM     14  N   UNL     1       9.147   6.288  24.855  0.00  0.00    -0.290 N 
ATOM     15  C   UNL     1      10.430   6.073  24.180  0.00  0.00    +0.142 C 
ATOM     16  C   UNL     1      11.509   6.465  25.204  0.00  0.00    +0.032 C 
ATOM     17  C   UNL     1      10.758   7.108  26.365  0.00  0.00    +0.021 C 
ATOM     18  C   UNL     1       9.352   6.546  26.270  0.00  0.00    +0.108 C 
ATOM     19  O   UNL     1       8.003   6.271  22.882  0.00  0.00    -0.274 OA
BRANCH  13  20
ATOM     20  C   UNL     1       6.673   6.884  24.797  0.00  0.00    +0.165 C 
BRANCH  20  21
ATOM     21  N   UNL     1       5.713   7.108  23.714  0.00  0.00    -0.270 N 
ATOM     22  H   UNL     1       5.344   8.048  23.608  0.00  0.00    +0.153 HD
ATOM     23  C   UNL     1       4.965   6.133  23.137  0.00  0.00    +0.401 C 
ATOM     24  O   UNL     1       5.101   4.934  23.321  0.00  0.00    -0.226 OA
BRANCH  23  25
ATOM     25  O   UNL     1       4.043   6.709  22.328  0.00  0.00    -0.454 OA
ATOM     26  C   UNL     1       2.775   6.951  22.939  0.00  0.00    +0.282 C 
ENDBRANCH  23  25
ENDBRANCH  20  21
BRANCH  20  28
ATOM     27  C   UNL     1       6.812   4.486  25.734  0.00  0.00    +0.009 C 
ATOM     28  C   UNL     1       6.104   5.846  25.792  0.00  0.00    +0.012 C 
ATOM     29  C   UNL     1       6.079   6.344  27.235  0.00  0.00    +0.009 C 
ENDBRANCH  20  28
ENDBRANCH  13  20
ENDBRANCH   7  15
ENDBRANCH   1  10
BRANCH   4  30
ATOM     30  C   UNL     1       7.308  -2.610  23.906  0.00  0.00    -0.018 A 
ATOM     31  C   UNL     1       7.807  -3.830  24.403  0.00  0.00    +0.009 A 
ATOM     32  C   UNL     1       6.979  -4.956  24.620  0.00  0.00    +0.010 A 
ATOM     33  C   UNL     1       5.610  -4.905  24.336  0.00  0.00    -0.000 A 
ATOM     34  C   UNL     1       5.112  -3.718  23.781  0.00  0.00    +0.010 A 
ATOM     35  C   UNL     1       5.943  -2.602  23.567  0.00  0.00    +0.009 A 
BRANCH  33  36
ATOM     36  C   UNL     1       4.687  -5.992  24.696  0.00  0.00    +0.066 A 
ATOM     37  N   UNL     1       3.793  -5.954  25.748  0.00  0.00    -0.340 N 
ATOM     38  H   UNL     1       3.700  -5.196  26.407  0.00  0.00    +0.167 HD
ATOM     39  C   UNL     1       2.827  -6.922  25.543  0.00  0.00    +0.128 A 
ATOM     40  N   UNL     1       3.225  -7.743  24.590  0.00  0.00    -0.238 NA
ATOM     41  C   UNL     1       4.361  -7.175  24.057  0.00  0.00    +0.139 A 
BRANCH  39  42
ATOM     42  C   UNL     1       1.421  -6.847  26.110  0.00  0.00    +0.142 C 
ATOM     43  N   UNL     1       1.251  -5.785  27.120  0.00  0.00    -0.290 N 
ATOM     44  C   UNL     1       1.115  -5.916  28.499  0.00  0.00    +0.237 C 
ATOM     45  O   UNL     1       0.539  -5.022  29.135  0.00  0.00    -0.274 OA
ATOM     46  C   UNL     1       0.654  -4.594  26.513  0.00  0.00    +0.108 C 
ATOM     47  C   UNL     1       0.586  -4.860  25.020  0.00  0.00    +0.021 C 
ATOM     48  C   UNL     1       0.478  -6.382  24.968  0.00  0.00    +0.032 C 
BRANCH  44  49
ATOM     49  C   UNL     1       1.651  -7.158  29.265  0.00  0.00    +0.165 C 
BRANCH  49  50
ATOM     50  N   UNL     1       2.942  -7.584  28.721  0.00  0.00    -0.270 N 
ATOM     51  H   UNL     1       3.146  -8.576  28.681  0.00  0.00    +0.153 HD
ATOM     52  C   UNL     1       4.032  -6.765  28.799  0.00  0.00    +0.401 C 
ATOM     53  O   UNL     1       3.979  -5.560  28.974  0.00  0.00    -0.226 OA
BRANCH  52  54
ATOM     54  O   UNL     1       5.175  -7.495  28.733  0.00  0.00    -0.454 OA
ATOM     55  C   UNL     1       6.355  -6.719  28.978  0.00  0.00    +0.282 C 
ENDBRANCH  52  54
ENDBRANCH  49  50
BRANCH  49  56
ATOM     56  C   UNL     1       0.632  -8.344  29.097  0.00  0.00    +0.012 C 
ATOM     57  C   UNL     1       0.789  -9.373  30.220  0.00  0.00    +0.009 C 
ATOM     58  C   UNL     1       0.737  -9.063  27.742  0.00  0.00    +0.009 C 
ENDBRANCH  49  56
ENDBRANCH  44  49
ENDBRANCH  39  42
ENDBRANCH  33  36
ENDBRANCH   4  30
TORSDOF 13
ENDMDL
