MODEL 1
REMARK VINA RESULT:      -5.9      0.000      0.000
REMARK  Name = 
REMARK  4 active torsions:
REMARK  status: ('A' for Active; 'I' for Inactive)
REMARK    1  A    between atoms: C3*_2  and  O3*_20
REMARK    2  A    between atoms: C4*_4  and  C5*_18
REMARK    3  A    between atoms: C1*_7  and  N_9
REMARK    4  A    between atoms: C5*_18  and  O5*_19
REMARK                            x       y       z     vdW  Elec       q    Type
REMARK                         _______ _______ _______ _____ _____    ______ ____
ROOT
ATOM      1  C2* UNL     1       5.818  -3.191  23.867  0.00  0.00    +0.086 C 
ATOM      2  C1* UNL     1       7.303  -3.411  24.101  0.00  0.00    +0.212 C 
ATOM      3  O4* UNL     1       7.696  -4.605  23.414  0.00  0.00    -0.350 OA
ATOM      4  C4* UNL     1       6.524  -5.173  22.792  0.00  0.00    +0.174 C 
ATOM      5  C3* UNL     1       5.523  -4.031  22.646  0.00  0.00    +0.150 C 
ENDROOT
BRANCH   2   6
ATOM      6  N   UNL     1       8.182  -2.313  23.725  0.00  0.00    -0.258 N 
ATOM      7  C   UNL     1       9.558  -2.409  23.760  0.00  0.00    +0.310 C 
ATOM      8  O   UNL     1      10.189  -3.411  24.074  0.00  0.00    -0.252 OA
ATOM      9  N   UNL     1      10.229  -1.248  23.464  0.00  0.00    -0.239 N 
ATOM     10  H   UNL     1      11.234  -1.301  23.565  0.00  0.00    +0.159 HD
ATOM     11  C   UNL     1       9.703   0.023  23.456  0.00  0.00    +0.235 C 
ATOM     12  O   UNL     1      10.454   0.997  23.522  0.00  0.00    -0.274 OA
ATOM     13  C   UNL     1       8.189   0.113  23.481  0.00  0.00    +0.155 C 
ATOM     14  I   UNL     1       7.526   1.725  22.259  0.00  0.00    -0.070 I 
ATOM     15  C   UNL     1       7.616  -1.203  22.974  0.00  0.00    +0.135 C 
ENDBRANCH   2   6
BRANCH   5  16
ATOM     16  O3* UNL     1       4.169  -4.466  22.634  0.00  0.00    -0.389 OA
ATOM     17  H3* UNL     1       3.589  -3.704  22.463  0.00  0.00    +0.210 HD
ENDBRANCH   5  16
BRANCH   4  18
ATOM     18  C5* UNL     1       6.884  -5.875  21.479  0.00  0.00    +0.190 C 
BRANCH  18  19
ATOM     19  O5* UNL     1       5.988  -5.585  20.413  0.00  0.00    -0.392 OA
ATOM     20  H5* UNL     1       5.784  -6.430  19.953  0.00  0.00    +0.210 HD
ENDBRANCH  18  19
ENDBRANCH   4  18
TORSDOF 4
ENDMDL
MODEL 2
REMARK VINA RESULT:      -5.8      3.515      5.573
REMARK  Name = 
REMARK  4 active torsions:
REMARK  status: ('A' for Active; 'I' for Inactive)
REMARK    1  A    between atoms: C3*_2  and  O3*_20
REMARK    2  A    between atoms: C4*_4  and  C5*_18
REMARK    3  A    between atoms: C1*_7  and  N_9
REMARK    4  A    between atoms: C5*_18  and  O5*_19
REMARK                            x       y       z     vdW  Elec       q    Type
REMARK                         _______ _______ _______ _____ _____    ______ ____
ROOT
ATOM      1  C2* UNL     1       7.911  -2.087  23.058  0.00  0.00    +0.086 C 
ATOM      2  C1* UNL     1       8.912  -3.002  23.742  0.00  0.00    +0.212 C 
ATOM      3  O4* UNL     1      10.023  -2.211  24.178  0.00  0.00    -0.350 OA
ATOM      4  C4* UNL     1       9.792  -0.847  23.767  0.00  0.00    +0.174 C 
ATOM      5  C3* UNL     1       8.287  -0.712  23.559  0.00  0.00    +0.150 C 
ENDROOT
BRANCH   2   6
ATOM      6  N   UNL     1       8.403  -3.794  24.853  0.00  0.00    -0.258 N 
ATOM      7  C   UNL     1       9.084  -4.873  25.378  0.00  0.00    +0.310 C 
ATOM      8  O   UNL     1      10.183  -5.267  25.003  0.00  0.00    -0.252 OA
ATOM      9  N   UNL     1       8.414  -5.562  26.360  0.00  0.00    -0.239 N 
ATOM     10  H   UNL     1       8.883  -6.396  26.688  0.00  0.00    +0.159 HD
ATOM     11  C   UNL     1       7.069  -5.493  26.635  0.00  0.00    +0.235 C 
ATOM     12  O   UNL     1       6.529  -6.392  27.283  0.00  0.00    -0.274 OA
ATOM     13  C   UNL     1       6.321  -4.337  26.000  0.00  0.00    +0.155 C 
ATOM     14  I   UNL     1       4.844  -3.589  27.339  0.00  0.00    -0.070 I 
ATOM     15  C   UNL     1       7.321  -3.242  25.654  0.00  0.00    +0.135 C 
ENDBRANCH   2   6
BRANCH   5  16
ATOM     16  O3* UNL     1       7.934   0.294  22.618  0.00  0.00    -0.389 OA
ATOM     17  H3* UNL     1       8.096   1.170  23.008  0.00  0.00    +0.210 HD
ENDBRANCH   5  16
BRANCH   4  18
ATOM     18  C5* UNL     1      10.386   0.140  24.777  0.00  0.00    +0.190 C 
BRANCH  18  19
ATOM     19  O5* UNL     1       9.457   1.116  25.234  0.00  0.00    -0.392 OA
ATOM     20  H5* UNL     1       9.030   0.766  26.049  0.00  0.00    +0.210 HD
ENDBRANCH  18  19
ENDBRANCH   4  18
TORSDOF 4
ENDMDL
MODEL 3
REMARK VINA RESULT:      -5.8      2.671      6.078
REMARK  Name = 
REMARK  4 active torsions:
REMARK  status: ('A' for Active; 'I' for Inactive)
REMARK    1  A    between atoms: C3*_2  and  O3*_20
REMARK    2  A    between atoms: C4*_4  and  C5*_18
REMARK    3  A    between atoms: C1*_7  and  N_9
REMARK    4  A    between atoms: C5*_18  and  O5*_19
REMARK                            x       y       z     vdW  Elec       q    Type
REMARK                         _______ _______ _______ _____ _____    ______ ____
ROOT
ATOM      1  C2* UNL     1       9.671  -0.070  21.695  0.00  0.00    +0.086 C 
ATOM      2  C1* UNL     1       9.346  -0.921  22.911  0.00  0.00    +0.212 C 
ATOM      3  O4* UNL     1       9.458  -0.100  24.079  0.00  0.00    -0.350 OA
ATOM      4  C4* UNL     1       9.879   1.216  23.665  0.00  0.00    +0.174 C 
ATOM      5  C3* UNL     1       9.495   1.345  22.194  0.00  0.00    +0.150 C 
ENDROOT
BRANCH   2   6
ATOM      6  N   UNL     1       8.052  -1.589  22.900  0.00  0.00    -0.258 N 
ATOM      7  C   UNL     1       6.878  -0.956  23.251  0.00  0.00    +0.310 C 
ATOM      8  O   UNL     1       6.780   0.221  23.577  0.00  0.00    -0.252 OA
ATOM      9  N   UNL     1       5.766  -1.763  23.274  0.00  0.00    -0.239 N 
ATOM     10  H   UNL     1       4.923  -1.314  23.606  0.00  0.00    +0.159 HD
ATOM     11  C   UNL     1       5.753  -3.138  23.301  0.00  0.00    +0.235 C 
ATOM     12  O   UNL     1       4.739  -3.733  23.669  0.00  0.00    -0.274 OA
ATOM     13  C   UNL     1       7.068  -3.819  22.974  0.00  0.00    +0.155 C 
ATOM     14  I   UNL     1       6.720  -5.589  21.844  0.00  0.00    -0.070 I 
ATOM     15  C   UNL     1       7.934  -2.850  22.182  0.00  0.00    +0.135 C 
ENDBRANCH   2   6
BRANCH   5  16
ATOM     16  O3* UNL     1      10.318   2.252  21.472  0.00  0.00    -0.389 OA
ATOM     17  H3* UNL     1       9.949   2.382  20.581  0.00  0.00    +0.210 HD
ENDBRANCH   5  16
BRANCH   4  18
ATOM     18  C5* UNL     1       9.283   2.296  24.574  0.00  0.00    +0.190 C 
BRANCH  18  19
ATOM     19  O5* UNL     1       8.467   1.777  25.616  0.00  0.00    -0.392 OA
ATOM     20  H5* UNL     1       8.581   0.800  25.629  0.00  0.00    +0.210 HD
ENDBRANCH  18  19
ENDBRANCH   4  18
TORSDOF 4
ENDMDL
MODEL 4
REMARK VINA RESULT:      -5.8      2.612      3.289
REMARK  Name = 
REMARK  4 active torsions:
REMARK  status: ('A' for Active; 'I' for Inactive)
REMARK    1  A    between atoms: C3*_2  and  O3*_20
REMARK    2  A    between atoms: C4*_4  and  C5*_18
REMARK    3  A    between atoms: C1*_7  and  N_9
REMARK    4  A    between atoms: C5*_18  and  O5*_19
REMARK                            x       y       z     vdW  Elec       q    Type
REMARK                         _______ _______ _______ _____ _____    ______ ____
ROOT
ATOM      1  C2* UNL     1       9.189  -4.468  26.403  0.00  0.00    +0.086 C 
ATOM      2  C1* UNL     1       9.134  -3.996  24.960  0.00  0.00    +0.212 C 
ATOM      3  O4* UNL     1       7.993  -4.593  24.334  0.00  0.00    -0.350 OA
ATOM      4  C4* UNL     1       7.348  -5.451  25.298  0.00  0.00    +0.174 C 
ATOM      5  C3* UNL     1       7.783  -4.953  26.672  0.00  0.00    +0.150 C 
ENDROOT
BRANCH   2   6
ATOM      6  N   UNL     1       9.112  -2.555  24.756  0.00  0.00    -0.258 N 
ATOM      7  C   UNL     1       9.840  -1.927  23.766  0.00  0.00    +0.310 C 
ATOM      8  O   UNL     1      10.549  -2.494  22.942  0.00  0.00    -0.252 OA
ATOM      9  N   UNL     1       9.775  -0.555  23.777  0.00  0.00    -0.239 N 
ATOM     10  H   UNL     1      10.369  -0.097  23.099  0.00  0.00    +0.159 HD
ATOM     11  C   UNL     1       9.347   0.235  24.817  0.00  0.00    +0.235 C 
ATOM     12  O   UNL     1       9.656   1.428  24.848  0.00  0.00    -0.274 OA
ATOM     13  C   UNL     1       8.603  -0.479  25.930  0.00  0.00    +0.155 C 
ATOM     14  I   UNL     1       7.023   0.744  26.664  0.00  0.00    -0.070 I 
ATOM     15  C   UNL     1       8.047  -1.786  25.381  0.00  0.00    +0.135 C 
ENDBRANCH   2   6
BRANCH   5  16
ATOM     16  O3* UNL     1       7.769  -5.964  27.671  0.00  0.00    -0.389 OA
ATOM     17  H3* UNL     1       7.720  -6.837  27.244  0.00  0.00    +0.210 HD
ENDBRANCH   5  16
BRANCH   4  18
ATOM     18  C5* UNL     1       5.831  -5.477  25.083  0.00  0.00    +0.190 C 
BRANCH  18  19
ATOM     19  O5* UNL     1       5.154  -6.414  25.911  0.00  0.00    -0.392 OA
ATOM     20  H5* UNL     1       4.405  -5.946  26.345  0.00  0.00    +0.210 HD
ENDBRANCH  18  19
ENDBRANCH   4  18
TORSDOF 4
ENDMDL
MODEL 5
REMARK VINA RESULT:      -5.7      2.677      5.942
REMARK  Name = 
REMARK  4 active torsions:
REMARK  status: ('A' for Active; 'I' for Inactive)
REMARK    1  A    between atoms: C3*_2  and  O3*_20
REMARK    2  A    between atoms: C4*_4  and  C5*_18
REMARK    3  A    between atoms: C1*_7  and  N_9
REMARK    4  A    between atoms: C5*_18  and  O5*_19
REMARK                            x       y       z     vdW  Elec       q    Type
REMARK                         _______ _______ _______ _____ _____    ______ ____
ROOT
ATOM      1  C2* UNL     1      10.221   0.073  22.669  0.00  0.00    +0.086 C 
ATOM      2  C1* UNL     1      10.148  -0.297  24.141  0.00  0.00    +0.212 C 
ATOM      3  O4* UNL     1       9.972   0.905  24.900  0.00  0.00    -0.350 OA
ATOM      4  C4* UNL     1       9.973   2.019  23.984  0.00  0.00    +0.174 C 
ATOM      5  C3* UNL     1       9.603   1.450  22.618  0.00  0.00    +0.150 C 
ENDROOT
BRANCH   2   6
ATOM      6  N   UNL     1       9.127  -1.267  24.510  0.00  0.00    -0.258 N 
ATOM      7  C   UNL     1       9.283  -2.626  24.326  0.00  0.00    +0.310 C 
ATOM      8  O   UNL     1      10.284  -3.168  23.872  0.00  0.00    -0.252 OA
ATOM      9  N   UNL     1       8.183  -3.386  24.642  0.00  0.00    -0.239 N 
ATOM     10  H   UNL     1       8.274  -4.371  24.435  0.00  0.00    +0.159 HD
ATOM     11  C   UNL     1       6.895  -2.933  24.804  0.00  0.00    +0.235 C 
ATOM     12  O   UNL     1       5.954  -3.726  24.737  0.00  0.00    -0.274 OA
ATOM     13  C   UNL     1       6.732  -1.431  24.941  0.00  0.00    +0.155 C 
ATOM     14  I   UNL     1       5.199  -0.980  26.347  0.00  0.00    -0.070 I 
ATOM     15  C   UNL     1       8.058  -0.839  25.399  0.00  0.00    +0.135 C 
ENDBRANCH   2   6
BRANCH   5  16
ATOM     16  O3* UNL     1      10.119   2.207  21.531  0.00  0.00    -0.389 OA
ATOM     17  H3* UNL     1      11.091   2.182  21.555  0.00  0.00    +0.210 HD
ENDBRANCH   5  16
BRANCH   4  18
ATOM     18  C5* UNL     1       9.050   3.138  24.477  0.00  0.00    +0.190 C 
BRANCH  18  19
ATOM     19  O5* UNL     1       8.574   3.985  23.438  0.00  0.00    -0.392 OA
ATOM     20  H5* UNL     1       7.619   3.787  23.303  0.00  0.00    +0.210 HD
ENDBRANCH  18  19
ENDBRANCH   4  18
TORSDOF 4
ENDMDL
MODEL 6
REMARK VINA RESULT:      -5.6      2.621      6.084
REMARK  Name = 
REMARK  4 active torsions:
REMARK  status: ('A' for Active; 'I' for Inactive)
REMARK    1  A    between atoms: C3*_2  and  O3*_20
REMARK    2  A    between atoms: C4*_4  and  C5*_18
REMARK    3  A    between atoms: C1*_7  and  N_9
REMARK    4  A    between atoms: C5*_18  and  O5*_19
REMARK                            x       y       z     vdW  Elec       q    Type
REMARK                         _______ _______ _______ _____ _____    ______ ____
ROOT
ATOM      1  C2* UNL     1       7.952   1.437  21.692  0.00  0.00    +0.086 C 
ATOM      2  C1* UNL     1       9.045   0.387  21.802  0.00  0.00    +0.212 C 
ATOM      3  O4* UNL     1      10.260   1.040  22.190  0.00  0.00    -0.350 OA
ATOM      4  C4* UNL     1       9.998   2.455  22.291  0.00  0.00    +0.174 C 
ATOM      5  C3* UNL     1       8.493   2.598  22.494  0.00  0.00    +0.150 C 
ENDROOT
BRANCH   2   6
ATOM      6  N   UNL     1       8.776  -0.729  22.697  0.00  0.00    -0.258 N 
ATOM      7  C   UNL     1       9.648  -1.785  22.861  0.00  0.00    +0.310 C 
ATOM      8  O   UNL     1      10.739  -1.894  22.312  0.00  0.00    -0.252 OA
ATOM      9  N   UNL     1       9.193  -2.796  23.671  0.00  0.00    -0.239 N 
ATOM     10  H   UNL     1       9.801  -3.602  23.728  0.00  0.00    +0.159 HD
ATOM     11  C   UNL     1       7.890  -3.011  24.057  0.00  0.00    +0.235 C 
ATOM     12  O   UNL     1       7.552  -4.117  24.481  0.00  0.00    -0.274 OA
ATOM     13  C   UNL     1       6.929  -1.864  23.813  0.00  0.00    +0.155 C 
ATOM     14  I   UNL     1       5.530  -1.720  25.411  0.00  0.00    -0.070 I 
ATOM     15  C   UNL     1       7.731  -0.574  23.696  0.00  0.00    +0.135 C 
ENDBRANCH   2   6
BRANCH   5  16
ATOM     16  O3* UNL     1       7.973   3.835  22.024  0.00  0.00    -0.389 OA
ATOM     17  H3* UNL     1       8.301   3.999  21.123  0.00  0.00    +0.210 HD
ENDBRANCH   5  16
BRANCH   4  18
ATOM     18  C5* UNL     1      10.851   3.096  23.390  0.00  0.00    +0.190 C 
BRANCH  18  19
ATOM     19  O5* UNL     1      10.781   4.516  23.411  0.00  0.00    -0.392 OA
ATOM     20  H5* UNL     1       9.840   4.773  23.274  0.00  0.00    +0.210 HD
ENDBRANCH  18  19
ENDBRANCH   4  18
TORSDOF 4
ENDMDL
MODEL 7
REMARK VINA RESULT:      -5.6      2.928      6.096
REMARK  Name = 
REMARK  4 active torsions:
REMARK  status: ('A' for Active; 'I' for Inactive)
REMARK    1  A    between atoms: C3*_2  and  O3*_20
REMARK    2  A    between atoms: C4*_4  and  C5*_18
REMARK    3  A    between atoms: C1*_7  and  N_9
REMARK    4  A    between atoms: C5*_18  and  O5*_19
REMARK                            x       y       z     vdW  Elec       q    Type
REMARK                         _______ _______ _______ _____ _____    ______ ____
ROOT
ATOM      1  C2* UNL     1      10.313   0.443  23.192  0.00  0.00    +0.086 C 
ATOM      2  C1* UNL     1       9.765   0.393  24.608  0.00  0.00    +0.212 C 
ATOM      3  O4* UNL     1       9.163   1.659  24.904  0.00  0.00    -0.350 OA
ATOM      4  C4* UNL     1       9.339   2.519  23.759  0.00  0.00    +0.174 C 
ATOM      5  C3* UNL     1       9.569   1.598  22.564  0.00  0.00    +0.150 C 
ENDROOT
BRANCH   2   6
ATOM      6  N   UNL     1       8.826  -0.681  24.897  0.00  0.00    -0.258 N 
ATOM      7  C   UNL     1       8.608  -1.164  26.170  0.00  0.00    +0.310 C 
ATOM      8  O   UNL     1       9.142  -0.740  27.189  0.00  0.00    -0.252 OA
ATOM      9  N   UNL     1       7.759  -2.241  26.247  0.00  0.00    -0.239 N 
ATOM     10  H   UNL     1       7.662  -2.641  27.171  0.00  0.00    +0.159 HD
ATOM     11  C   UNL     1       7.377  -3.057  25.208  0.00  0.00    +0.235 C 
ATOM     12  O   UNL     1       6.909  -4.172  25.445  0.00  0.00    -0.274 OA
ATOM     13  C   UNL     1       7.679  -2.541  23.814  0.00  0.00    +0.155 C 
ATOM     14  I   UNL     1       6.102  -3.052  22.479  0.00  0.00    -0.070 I 
ATOM     15  C   UNL     1       7.844  -1.028  23.881  0.00  0.00    +0.135 C 
ENDBRANCH   2   6
BRANCH   5  16
ATOM     16  O3* UNL     1      10.332   2.200  21.526  0.00  0.00    -0.389 OA
ATOM     17  H3* UNL     1      11.200   1.764  21.471  0.00  0.00    +0.210 HD
ENDBRANCH   5  16
BRANCH   4  18
ATOM     18  C5* UNL     1       8.154   3.478  23.603  0.00  0.00    +0.190 C 
BRANCH  18  19
ATOM     19  O5* UNL     1       8.045   4.043  22.303  0.00  0.00    -0.392 OA
ATOM     20  H5* UNL     1       8.887   3.865  21.826  0.00  0.00    +0.210 HD
ENDBRANCH  18  19
ENDBRANCH   4  18
TORSDOF 4
ENDMDL
MODEL 8
REMARK VINA RESULT:      -5.5      1.565      2.371
REMARK  Name = 
REMARK  4 active torsions:
REMARK  status: ('A' for Active; 'I' for Inactive)
REMARK    1  A    between atoms: C3*_2  and  O3*_20
REMARK    2  A    between atoms: C4*_4  and  C5*_18
REMARK    3  A    between atoms: C1*_7  and  N_9
REMARK    4  A    between atoms: C5*_18  and  O5*_19
REMARK                            x       y       z     vdW  Elec       q    Type
REMARK                         _______ _______ _______ _____ _____    ______ ____
ROOT
ATOM      1  C2* UNL     1       7.141  -3.527  22.690  0.00  0.00    +0.086 C 
ATOM      2  C1* UNL     1       7.331  -2.540  23.829  0.00  0.00    +0.212 C 
ATOM      3  O4* UNL     1       7.692  -3.273  25.005  0.00  0.00    -0.350 OA
ATOM      4  C4* UNL     1       7.700  -4.677  24.675  0.00  0.00    +0.174 C 
ATOM      5  C3* UNL     1       7.875  -4.760  23.162  0.00  0.00    +0.150 C 
ENDROOT
BRANCH   2   6
ATOM      6  N   UNL     1       8.292  -1.470  23.599  0.00  0.00    -0.258 N 
ATOM      7  C   UNL     1       9.656  -1.677  23.591  0.00  0.00    +0.310 C 
ATOM      8  O   UNL     1      10.208  -2.761  23.741  0.00  0.00    -0.252 OA
ATOM      9  N   UNL     1      10.415  -0.541  23.453  0.00  0.00    -0.239 N 
ATOM     10  H   UNL     1      11.414  -0.686  23.523  0.00  0.00    +0.159 HD
ATOM     11  C   UNL     1       9.992   0.754  23.642  0.00  0.00    +0.235 C 
ATOM     12  O   UNL     1      10.820   1.647  23.834  0.00  0.00    -0.274 OA
ATOM     13  C   UNL     1       8.491   0.958  23.713  0.00  0.00    +0.155 C 
ATOM     14  I   UNL     1       7.947   2.779  22.754  0.00  0.00    -0.070 I 
ATOM     15  C   UNL     1       7.809  -0.221  23.031  0.00  0.00    +0.135 C 
ENDBRANCH   2   6
BRANCH   5  16
ATOM     16  O3* UNL     1       7.321  -5.939  22.593  0.00  0.00    -0.389 OA
ATOM     17  H3* UNL     1       6.617  -6.277  23.173  0.00  0.00    +0.210 HD
ENDBRANCH   5  16
BRANCH   4  18
ATOM     18  C5* UNL     1       8.766  -5.427  25.481  0.00  0.00    +0.190 C 
BRANCH  18  19
ATOM     19  O5* UNL     1      10.061  -5.378  24.895  0.00  0.00    -0.392 OA
ATOM     20  H5* UNL     1      10.435  -6.289  24.914  0.00  0.00    +0.210 HD
ENDBRANCH  18  19
ENDBRANCH   4  18
TORSDOF 4
ENDMDL
MODEL 9
REMARK VINA RESULT:      -5.5      3.430      5.659
REMARK  Name = 
REMARK  4 active torsions:
REMARK  status: ('A' for Active; 'I' for Inactive)
REMARK    1  A    between atoms: C3*_2  and  O3*_20
REMARK    2  A    between atoms: C4*_4  and  C5*_18
REMARK    3  A    between atoms: C1*_7  and  N_9
REMARK    4  A    between atoms: C5*_18  and  O5*_19
REMARK                            x       y       z     vdW  Elec       q    Type
REMARK                         _______ _______ _______ _____ _____    ______ ____
ROOT
ATOM      1  C2* UNL     1       8.236   0.841  25.153  0.00  0.00    +0.086 C 
ATOM      2  C1* UNL     1       7.627  -0.307  24.367  0.00  0.00    +0.212 C 
ATOM      3  O4* UNL     1       7.686   0.018  22.974  0.00  0.00    -0.350 OA
ATOM      4  C4* UNL     1       8.265   1.333  22.843  0.00  0.00    +0.174 C 
ATOM      5  C3* UNL     1       9.057   1.581  24.123  0.00  0.00    +0.150 C 
ENDROOT
BRANCH   2   6
ATOM      6  N   UNL     1       8.212  -1.621  24.593  0.00  0.00    -0.258 N 
ATOM      7  C   UNL     1       9.424  -2.004  24.059  0.00  0.00    +0.310 C 
ATOM      8  O   UNL     1      10.151  -1.294  23.373  0.00  0.00    -0.252 OA
ATOM      9  N   UNL     1       9.779  -3.310  24.296  0.00  0.00    -0.239 N 
ATOM     10  H   UNL     1      10.630  -3.608  23.839  0.00  0.00    +0.159 HD
ATOM     11  C   UNL     1       8.945  -4.322  24.710  0.00  0.00    +0.235 C 
ATOM     12  O   UNL     1       9.282  -5.496  24.553  0.00  0.00    -0.274 OA
ATOM     13  C   UNL     1       7.590  -3.890  25.236  0.00  0.00    +0.155 C 
ATOM     14  I   UNL     1       7.008  -5.120  26.874  0.00  0.00    -0.070 I 
ATOM     15  C   UNL     1       7.681  -2.435  25.676  0.00  0.00    +0.135 C 
ENDBRANCH   2   6
BRANCH   5  16
ATOM     16  O3* UNL     1       9.181   2.958  24.454  0.00  0.00    -0.389 OA
ATOM     17  H3* UNL     1       9.261   3.479  23.636  0.00  0.00    +0.210 HD
ENDBRANCH   5  16
BRANCH   4  18
ATOM     18  C5* UNL     1       9.086   1.448  21.554  0.00  0.00    +0.190 C 
BRANCH  18  19
ATOM     19  O5* UNL     1      10.210   2.311  21.670  0.00  0.00    -0.392 OA
ATOM     20  H5* UNL     1       9.887   3.238  21.595  0.00  0.00    +0.210 HD
ENDBRANCH  18  19
ENDBRANCH   4  18
TORSDOF 4
ENDMDL
