MODEL 1
REMARK VINA RESULT:      -5.9      0.000      0.000
REMARK  Name = 
REMARK  6 active torsions:
REMARK  status: ('A' for Active; 'I' for Inactive)
REMARK    1  A    between atoms: C_3  and  C_19
REMARK    2  A    between atoms: N_5  and  C1*_6
REMARK    3  A    between atoms: C2*_8  and  O2*_18
REMARK    4  A    between atoms: C3*_10  and  O3*_17
REMARK    5  A    between atoms: C4*_12  and  C5*_15
REMARK    6  A    between atoms: C5*_15  and  O5*_16
REMARK                            x       y       z     vdW  Elec       q    Type
REMARK                         _______ _______ _______ _____ _____    ______ ____
ROOT
ATOM      1  C1* UNL     1       7.797  -2.554  24.227  0.00  0.00    +0.270 C 
ATOM      2  O4* UNL     1       7.795  -2.604  25.674  0.00  0.00    -0.344 OA
ATOM      3  C4* UNL     1       8.360  -3.886  26.056  0.00  0.00    +0.177 C 
ATOM      4  C3* UNL     1       8.574  -4.682  24.764  0.00  0.00    +0.178 C 
ATOM      5  C2* UNL     1       8.836  -3.575  23.754  0.00  0.00    +0.196 C 
ENDROOT
BRANCH   1   7
ATOM      6  C   UNL     1       6.955  -0.390  23.312  0.00  0.00    +0.223 A 
ATOM      7  N   UNL     1       7.948  -1.179  23.807  0.00  0.00    -0.220 N 
ATOM      8  N   UNL     1       9.140  -0.546  23.770  0.00  0.00    -0.142 NA
ATOM      9  C   UNL     1       8.799   0.653  23.250  0.00  0.00    +0.236 A 
ATOM     10  N   UNL     1       7.449   0.766  22.944  0.00  0.00    -0.211 NA
BRANCH   9  11
ATOM     11  C   UNL     1       9.743   1.761  22.998  0.00  0.00    +0.281 C 
ATOM     12  N   UNL     1       9.898   2.072  21.670  0.00  0.00    -0.323 N 
ATOM     13  H   UNL     1      10.516   2.824  21.407  0.00  0.00    +0.145 HD
ATOM     14  H   UNL     1       9.377   1.557  20.969  0.00  0.00    +0.145 HD
ATOM     15  O   UNL     1      10.361   2.372  23.868  0.00  0.00    -0.267 OA
ENDBRANCH   9  11
ENDBRANCH   1   7
BRANCH   4  16
ATOM     16  O3* UNL     1       9.663  -5.590  24.863  0.00  0.00    -0.386 OA
ATOM     17  H3* UNL     1       9.715  -6.035  23.990  0.00  0.00    +0.210 HD
ENDBRANCH   4  16
BRANCH   5  18
ATOM     18  O2* UNL     1      10.202  -3.155  23.916  0.00  0.00    -0.385 OA
ATOM     19  H2* UNL     1      10.400  -3.233  24.877  0.00  0.00    +0.210 HD
ENDBRANCH   5  18
BRANCH   3  20
ATOM     20  C5* UNL     1       7.391  -4.562  27.022  0.00  0.00    +0.190 C 
BRANCH  20  21
ATOM     21  O5* UNL     1       7.919  -5.823  27.440  0.00  0.00    -0.392 OA
ATOM     22  H5* UNL     1       8.518  -6.110  26.727  0.00  0.00    +0.210 HD
ENDBRANCH  20  21
ENDBRANCH   3  20
TORSDOF 6
ENDMDL
MODEL 2
REMARK VINA RESULT:      -5.9      2.477      6.209
REMARK  Name = 
REMARK  6 active torsions:
REMARK  status: ('A' for Active; 'I' for Inactive)
REMARK    1  A    between atoms: C_3  and  C_19
REMARK    2  A    between atoms: N_5  and  C1*_6
REMARK    3  A    between atoms: C2*_8  and  O2*_18
REMARK    4  A    between atoms: C3*_10  and  O3*_17
REMARK    5  A    between atoms: C4*_12  and  C5*_15
REMARK    6  A    between atoms: C5*_15  and  O5*_16
REMARK                            x       y       z     vdW  Elec       q    Type
REMARK                         _______ _______ _______ _____ _____    ______ ____
ROOT
ATOM      1  C1* UNL     1       9.826  -0.030  24.289  0.00  0.00    +0.270 C 
ATOM      2  O4* UNL     1       8.825   0.965  24.613  0.00  0.00    -0.344 OA
ATOM      3  C4* UNL     1       8.895   1.988  23.587  0.00  0.00    +0.177 C 
ATOM      4  C3* UNL     1      10.093   1.646  22.695  0.00  0.00    +0.178 C 
ATOM      5  C2* UNL     1      10.135   0.128  22.798  0.00  0.00    +0.196 C 
ENDROOT
BRANCH   1   7
ATOM      6  C   UNL     1       8.678  -1.541  25.910  0.00  0.00    +0.223 A 
ATOM      7  N   UNL     1       9.375  -1.319  24.762  0.00  0.00    -0.220 N 
ATOM      8  N   UNL     1       9.687  -2.480  24.148  0.00  0.00    -0.142 NA
ATOM      9  C   UNL     1       9.128  -3.390  24.975  0.00  0.00    +0.236 A 
ATOM     10  N   UNL     1       8.509  -2.828  26.084  0.00  0.00    -0.211 NA
BRANCH   9  11
ATOM     11  C   UNL     1       9.162  -4.852  24.767  0.00  0.00    +0.281 C 
ATOM     12  N   UNL     1       9.947  -5.525  25.670  0.00  0.00    -0.323 N 
ATOM     13  H   UNL     1      10.019  -6.530  25.610  0.00  0.00    +0.145 HD
ATOM     14  H   UNL     1      10.429  -5.012  26.399  0.00  0.00    +0.145 HD
ATOM     15  O   UNL     1       8.565  -5.451  23.875  0.00  0.00    -0.267 OA
ENDBRANCH   9  11
ENDBRANCH   1   7
BRANCH   4  16
ATOM     16  O3* UNL     1       9.917   2.091  21.357  0.00  0.00    -0.386 OA
ATOM     17  H3* UNL     1       9.020   1.793  21.096  0.00  0.00    +0.210 HD
ENDBRANCH   4  16
BRANCH   5  18
ATOM     18  O2* UNL     1       9.122  -0.394  21.920  0.00  0.00    -0.385 OA
ATOM     19  H2* UNL     1       8.551  -0.971  22.475  0.00  0.00    +0.210 HD
ENDBRANCH   5  18
BRANCH   3  20
ATOM     20  C5* UNL     1       9.032   3.343  24.278  0.00  0.00    +0.190 C 
BRANCH  20  21
ATOM     21  O5* UNL     1       9.426   4.338  23.329  0.00  0.00    -0.392 OA
ATOM     22  H5* UNL     1      10.400   4.352  23.349  0.00  0.00    +0.210 HD
ENDBRANCH  20  21
ENDBRANCH   3  20
TORSDOF 6
ENDMDL
MODEL 3
REMARK VINA RESULT:      -5.9      3.167      6.047
REMARK  Name = 
REMARK  6 active torsions:
REMARK  status: ('A' for Active; 'I' for Inactive)
REMARK    1  A    between atoms: C_3  and  C_19
REMARK    2  A    between atoms: N_5  and  C1*_6
REMARK    3  A    between atoms: C2*_8  and  O2*_18
REMARK    4  A    between atoms: C3*_10  and  O3*_17
REMARK    5  A    between atoms: C4*_12  and  C5*_15
REMARK    6  A    between atoms: C5*_15  and  O5*_16
REMARK                            x       y       z     vdW  Elec       q    Type
REMARK                         _______ _______ _______ _____ _____    ______ ____
ROOT
ATOM      1  C1* UNL     1       9.149  -0.777  23.471  0.00  0.00    +0.270 C 
ATOM      2  O4* UNL     1       8.039   0.133  23.655  0.00  0.00    -0.344 OA
ATOM      3  C4* UNL     1       8.431   1.404  23.073  0.00  0.00    +0.177 C 
ATOM      4  C3* UNL     1       9.898   1.269  22.653  0.00  0.00    +0.178 C 
ATOM      5  C2* UNL     1       9.995  -0.214  22.326  0.00  0.00    +0.196 C 
ENDROOT
BRANCH   1   7
ATOM      6  C   UNL     1       9.052  -3.200  24.065  0.00  0.00    +0.223 A 
ATOM      7  N   UNL     1       8.635  -2.123  23.344  0.00  0.00    -0.220 N 
ATOM      8  N   UNL     1       7.733  -2.482  22.407  0.00  0.00    -0.142 NA
ATOM      9  C   UNL     1       7.625  -3.810  22.621  0.00  0.00    +0.236 A 
ATOM     10  N   UNL     1       8.447  -4.280  23.637  0.00  0.00    -0.211 NA
BRANCH   9  11
ATOM     11  C   UNL     1       6.741  -4.719  21.862  0.00  0.00    +0.281 C 
ATOM     12  N   UNL     1       7.130  -6.034  21.898  0.00  0.00    -0.323 N 
ATOM     13  H   UNL     1       6.578  -6.727  21.414  0.00  0.00    +0.145 HD
ATOM     14  H   UNL     1       7.955  -6.301  22.424  0.00  0.00    +0.145 HD
ATOM     15  O   UNL     1       5.745  -4.369  21.233  0.00  0.00    -0.267 OA
ENDBRANCH   9  11
ENDBRANCH   1   7
BRANCH   4  16
ATOM     16  O3* UNL     1      10.219   2.089  21.538  0.00  0.00    -0.386 OA
ATOM     17  H3* UNL     1      11.021   2.589  21.800  0.00  0.00    +0.210 HD
ENDBRANCH   4  16
BRANCH   5  18
ATOM     18  O2* UNL     1       9.432  -0.406  21.017  0.00  0.00    -0.385 OA
ATOM     19  H2* UNL     1      10.013   0.086  20.395  0.00  0.00    +0.210 HD
ENDBRANCH   5  18
BRANCH   3  20
ATOM     20  C5* UNL     1       8.205   2.493  24.119  0.00  0.00    +0.190 C 
BRANCH  20  21
ATOM     21  O5* UNL     1       9.380   3.299  24.246  0.00  0.00    -0.392 OA
ATOM     22  H5* UNL     1       9.482   3.755  23.391  0.00  0.00    +0.210 HD
ENDBRANCH  20  21
ENDBRANCH   3  20
TORSDOF 6
ENDMDL
MODEL 4
REMARK VINA RESULT:      -5.6      2.412      6.128
REMARK  Name = 
REMARK  6 active torsions:
REMARK  status: ('A' for Active; 'I' for Inactive)
REMARK    1  A    between atoms: C_3  and  C_19
REMARK    2  A    between atoms: N_5  and  C1*_6
REMARK    3  A    between atoms: C2*_8  and  O2*_18
REMARK    4  A    between atoms: C3*_10  and  O3*_17
REMARK    5  A    between atoms: C4*_12  and  C5*_15
REMARK    6  A    between atoms: C5*_15  and  O5*_16
REMARK                            x       y       z     vdW  Elec       q    Type
REMARK                         _______ _______ _______ _____ _____    ______ ____
ROOT
ATOM      1  C1* UNL     1       8.795  -0.310  23.708  0.00  0.00    +0.270 C 
ATOM      2  O4* UNL     1       7.624   0.113  22.969  0.00  0.00    -0.344 OA
ATOM      3  C4* UNL     1       8.033   1.218  22.121  0.00  0.00    +0.177 C 
ATOM      4  C3* UNL     1       9.484   1.548  22.487  0.00  0.00    +0.178 C 
ATOM      5  C2* UNL     1      10.013   0.191  22.926  0.00  0.00    +0.196 C 
ENDROOT
BRANCH   1   7
ATOM      6  C   UNL     1       8.063  -2.639  23.186  0.00  0.00    +0.223 A 
ATOM      7  N   UNL     1       8.691  -1.727  23.978  0.00  0.00    -0.220 N 
ATOM      8  N   UNL     1       9.135  -2.294  25.120  0.00  0.00    -0.142 NA
ATOM      9  C   UNL     1       8.756  -3.580  24.955  0.00  0.00    +0.236 A 
ATOM     10  N   UNL     1       8.074  -3.813  23.768  0.00  0.00    -0.211 NA
BRANCH   9  11
ATOM     11  C   UNL     1       9.006  -4.664  25.927  0.00  0.00    +0.281 C 
ATOM     12  N   UNL     1       9.954  -5.570  25.520  0.00  0.00    -0.323 N 
ATOM     13  H   UNL     1      10.196  -6.339  26.127  0.00  0.00    +0.145 HD
ATOM     14  H   UNL     1      10.414  -5.448  24.625  0.00  0.00    +0.145 HD
ATOM     15  O   UNL     1       8.435  -4.787  27.008  0.00  0.00    -0.267 OA
ENDBRANCH   9  11
ENDBRANCH   1   7
BRANCH   4  16
ATOM     16  O3* UNL     1      10.212   2.081  21.388  0.00  0.00    -0.386 OA
ATOM     17  H3* UNL     1      11.157   1.998  21.633  0.00  0.00    +0.210 HD
ENDBRANCH   4  16
BRANCH   5  18
ATOM     18  O2* UNL     1      10.311  -0.563  21.738  0.00  0.00    -0.385 OA
ATOM     19  H2* UNL     1      10.079   0.020  20.980  0.00  0.00    +0.210 HD
ENDBRANCH   5  18
BRANCH   3  20
ATOM     20  C5* UNL     1       7.075   2.380  22.365  0.00  0.00    +0.190 C 
BRANCH  20  21
ATOM     21  O5* UNL     1       7.703   3.615  22.007  0.00  0.00    -0.392 OA
ATOM     22  H5* UNL     1       7.272   3.901  21.181  0.00  0.00    +0.210 HD
ENDBRANCH  20  21
ENDBRANCH   3  20
TORSDOF 6
ENDMDL
MODEL 5
REMARK VINA RESULT:      -5.6      2.624      3.436
REMARK  Name = 
REMARK  6 active torsions:
REMARK  status: ('A' for Active; 'I' for Inactive)
REMARK    1  A    between atoms: C_3  and  C_19
REMARK    2  A    between atoms: N_5  and  C1*_6
REMARK    3  A    between atoms: C2*_8  and  O2*_18
REMARK    4  A    between atoms: C3*_10  and  O3*_17
REMARK    5  A    between atoms: C4*_12  and  C5*_15
REMARK    6  A    between atoms: C5*_15  and  O5*_16
REMARK                            x       y       z     vdW  Elec       q    Type
REMARK                         _______ _______ _______ _____ _____    ______ ____
ROOT
ATOM      1  C1* UNL     1       7.744  -3.087  23.412  0.00  0.00    +0.270 C 
ATOM      2  O4* UNL     1       7.946  -3.872  22.213  0.00  0.00    -0.344 OA
ATOM      3  C4* UNL     1       6.697  -4.559  21.939  0.00  0.00    +0.177 C 
ATOM      4  C3* UNL     1       5.761  -4.270  23.117  0.00  0.00    +0.178 C 
ATOM      5  C2* UNL     1       6.233  -2.893  23.561  0.00  0.00    +0.196 C 
ENDROOT
BRANCH   1   7
ATOM      6  C   UNL     1       9.553  -1.582  24.245  0.00  0.00    +0.223 A 
ATOM      7  N   UNL     1       8.582  -1.911  23.348  0.00  0.00    -0.220 N 
ATOM      8  N   UNL     1       8.422  -0.941  22.423  0.00  0.00    -0.142 NA
ATOM      9  C   UNL     1       9.352  -0.039  22.805  0.00  0.00    +0.236 A 
ATOM     10  N   UNL     1      10.056  -0.410  23.943  0.00  0.00    -0.211 NA
BRANCH   9  11
ATOM     11  C   UNL     1       9.618   1.240  22.116  0.00  0.00    +0.281 C 
ATOM     12  N   UNL     1       8.842   1.447  21.003  0.00  0.00    -0.323 N 
ATOM     13  H   UNL     1       8.949   2.301  20.477  0.00  0.00    +0.145 HD
ATOM     14  H   UNL     1       8.156   0.751  20.732  0.00  0.00    +0.145 HD
ATOM     15  O   UNL     1      10.455   2.069  22.468  0.00  0.00    -0.267 OA
ENDBRANCH   9  11
ENDBRANCH   1   7
BRANCH   4  16
ATOM     16  O3* UNL     1       4.392  -4.274  22.734  0.00  0.00    -0.386 OA
ATOM     17  H3* UNL     1       4.126  -5.217  22.715  0.00  0.00    +0.210 HD
ENDBRANCH   4  16
BRANCH   5  18
ATOM     18  O2* UNL     1       5.663  -1.929  22.658  0.00  0.00    -0.385 OA
ATOM     19  H2* UNL     1       6.184  -1.103  22.778  0.00  0.00    +0.210 HD
ENDBRANCH   5  18
BRANCH   3  20
ATOM     20  C5* UNL     1       7.002  -6.045  21.767  0.00  0.00    +0.190 C 
BRANCH  20  21
ATOM     21  O5* UNL     1       5.896  -6.827  22.227  0.00  0.00    -0.392 OA
ATOM     22  H5* UNL     1       6.286  -7.608  22.661  0.00  0.00    +0.210 HD
ENDBRANCH  20  21
ENDBRANCH   3  20
TORSDOF 6
ENDMDL
MODEL 6
REMARK VINA RESULT:      -5.6      2.406      6.086
REMARK  Name = 
REMARK  6 active torsions:
REMARK  status: ('A' for Active; 'I' for Inactive)
REMARK    1  A    between atoms: C_3  and  C_19
REMARK    2  A    between atoms: N_5  and  C1*_6
REMARK    3  A    between atoms: C2*_8  and  O2*_18
REMARK    4  A    between atoms: C3*_10  and  O3*_17
REMARK    5  A    between atoms: C4*_12  and  C5*_15
REMARK    6  A    between atoms: C5*_15  and  O5*_16
REMARK                            x       y       z     vdW  Elec       q    Type
REMARK                         _______ _______ _______ _____ _____    ______ ____
ROOT
ATOM      1  C1* UNL     1       7.810  -0.739  24.247  0.00  0.00    +0.270 C 
ATOM      2  O4* UNL     1       8.730  -0.935  23.146  0.00  0.00    -0.344 OA
ATOM      3  C4* UNL     1       9.529   0.272  23.041  0.00  0.00    +0.177 C 
ATOM      4  C3* UNL     1       8.952   1.278  24.042  0.00  0.00    +0.178 C 
ATOM      5  C2* UNL     1       8.406   0.362  25.127  0.00  0.00    +0.196 C 
ENDROOT
BRANCH   1   7
ATOM      6  C   UNL     1       6.293  -2.586  24.968  0.00  0.00    +0.223 A 
ATOM      7  N   UNL     1       7.526  -2.021  24.853  0.00  0.00    -0.220 N 
ATOM      8  N   UNL     1       8.466  -2.769  25.470  0.00  0.00    -0.142 NA
ATOM      9  C   UNL     1       7.734  -3.804  25.935  0.00  0.00    +0.236 A 
ATOM     10  N   UNL     1       6.379  -3.703  25.647  0.00  0.00    -0.211 NA
BRANCH   9  11
ATOM     11  C   UNL     1       8.278  -4.948  26.695  0.00  0.00    +0.281 C 
ATOM     12  N   UNL     1       9.596  -5.220  26.426  0.00  0.00    -0.323 N 
ATOM     13  H   UNL     1      10.052  -5.979  26.910  0.00  0.00    +0.145 HD
ATOM     14  H   UNL     1      10.102  -4.647  25.761  0.00  0.00    +0.145 HD
ATOM     15  O   UNL     1       7.641  -5.626  27.499  0.00  0.00    -0.267 OA
ENDBRANCH   9  11
ENDBRANCH   1   7
BRANCH   4  16
ATOM     16  O3* UNL     1       9.938   2.174  24.539  0.00  0.00    -0.386 OA
ATOM     17  H3* UNL     1      10.684   1.610  24.829  0.00  0.00    +0.210 HD
ENDBRANCH   4  16
BRANCH   5  18
ATOM     18  O2* UNL     1       9.517  -0.058  25.939  0.00  0.00    -0.385 OA
ATOM     19  H2* UNL     1      10.150  -0.499  25.328  0.00  0.00    +0.210 HD
ENDBRANCH   5  18
BRANCH   3  20
ATOM     20  C5* UNL     1       9.462   0.760  21.597  0.00  0.00    +0.190 C 
BRANCH  20  21
ATOM     21  O5* UNL     1       9.929   2.109  21.514  0.00  0.00    -0.392 OA
ATOM     22  H5* UNL     1       9.726   2.406  20.608  0.00  0.00    +0.210 HD
ENDBRANCH  20  21
ENDBRANCH   3  20
TORSDOF 6
ENDMDL
MODEL 7
REMARK VINA RESULT:      -5.5      2.295      6.176
REMARK  Name = 
REMARK  6 active torsions:
REMARK  status: ('A' for Active; 'I' for Inactive)
REMARK    1  A    between atoms: C_3  and  C_19
REMARK    2  A    between atoms: N_5  and  C1*_6
REMARK    3  A    between atoms: C2*_8  and  O2*_18
REMARK    4  A    between atoms: C3*_10  and  O3*_17
REMARK    5  A    between atoms: C4*_12  and  C5*_15
REMARK    6  A    between atoms: C5*_15  and  O5*_16
REMARK                            x       y       z     vdW  Elec       q    Type
REMARK                         _______ _______ _______ _____ _____    ______ ____
ROOT
ATOM      1  C1* UNL     1       8.032  -0.597  24.040  0.00  0.00    +0.270 C 
ATOM      2  O4* UNL     1       8.995  -0.013  23.130  0.00  0.00    -0.344 OA
ATOM      3  C4* UNL     1       9.142   1.381  23.505  0.00  0.00    +0.177 C 
ATOM      4  C3* UNL     1       8.107   1.661  24.599  0.00  0.00    +0.178 C 
ATOM      5  C2* UNL     1       7.995   0.304  25.277  0.00  0.00    +0.196 C 
ENDROOT
BRANCH   1   7
ATOM      6  C   UNL     1       8.456  -2.918  23.225  0.00  0.00    +0.223 A 
ATOM      7  N   UNL     1       8.348  -1.996  24.221  0.00  0.00    -0.220 N 
ATOM      8  N   UNL     1       8.479  -2.571  25.436  0.00  0.00    -0.142 NA
ATOM      9  C   UNL     1       8.687  -3.865  25.108  0.00  0.00    +0.236 A 
ATOM     10  N   UNL     1       8.661  -4.105  23.741  0.00  0.00    -0.211 NA
BRANCH   9  11
ATOM     11  C   UNL     1       8.908  -4.956  26.079  0.00  0.00    +0.281 C 
ATOM     12  N   UNL     1       9.866  -5.860  25.694  0.00  0.00    -0.323 N 
ATOM     13  H   UNL     1      10.089  -6.633  26.303  0.00  0.00    +0.145 HD
ATOM     14  H   UNL     1      10.352  -5.733  24.814  0.00  0.00    +0.145 HD
ATOM     15  O   UNL     1       8.304  -5.085  27.143  0.00  0.00    -0.267 OA
ENDBRANCH   9  11
ENDBRANCH   1   7
BRANCH   4  16
ATOM     16  O3* UNL     1       8.530   2.678  25.497  0.00  0.00    -0.386 OA
ATOM     17  H3* UNL     1       9.389   2.998  25.148  0.00  0.00    +0.210 HD
ENDBRANCH   4  16
BRANCH   5  18
ATOM     18  O2* UNL     1       9.126   0.162  26.154  0.00  0.00    -0.385 OA
ATOM     19  H2* UNL     1       9.924   0.228  25.582  0.00  0.00    +0.210 HD
ENDBRANCH   5  18
BRANCH   3  20
ATOM     20  C5* UNL     1       8.934   2.231  22.254  0.00  0.00    +0.190 C 
BRANCH  20  21
ATOM     21  O5* UNL     1      10.151   2.307  21.507  0.00  0.00    -0.392 OA
ATOM     22  H5* UNL     1       9.888   2.292  20.569  0.00  0.00    +0.210 HD
ENDBRANCH  20  21
ENDBRANCH   3  20
TORSDOF 6
ENDMDL
MODEL 8
REMARK VINA RESULT:      -5.5      1.527      2.341
REMARK  Name = 
REMARK  6 active torsions:
REMARK  status: ('A' for Active; 'I' for Inactive)
REMARK    1  A    between atoms: C_3  and  C_19
REMARK    2  A    between atoms: N_5  and  C1*_6
REMARK    3  A    between atoms: C2*_8  and  O2*_18
REMARK    4  A    between atoms: C3*_10  and  O3*_17
REMARK    5  A    between atoms: C4*_12  and  C5*_15
REMARK    6  A    between atoms: C5*_15  and  O5*_16
REMARK                            x       y       z     vdW  Elec       q    Type
REMARK                         _______ _______ _______ _____ _____    ______ ____
ROOT
ATOM      1  C1* UNL     1       9.512  -2.298  24.690  0.00  0.00    +0.270 C 
ATOM      2  O4* UNL     1       9.232  -3.563  24.044  0.00  0.00    -0.344 OA
ATOM      3  C4* UNL     1       8.438  -4.347  24.972  0.00  0.00    +0.177 C 
ATOM      4  C3* UNL     1       8.369  -3.555  26.281  0.00  0.00    +0.178 C 
ATOM      5  C2* UNL     1       8.455  -2.120  25.783  0.00  0.00    +0.196 C 
ENDROOT
BRANCH   1   7
ATOM      6  C   UNL     1       9.861  -1.490  22.354  0.00  0.00    +0.223 A 
ATOM      7  N   UNL     1       9.630  -1.272  23.678  0.00  0.00    -0.220 N 
ATOM      8  N   UNL     1       9.619   0.048  23.962  0.00  0.00    -0.142 NA
ATOM      9  C   UNL     1       9.835   0.593  22.745  0.00  0.00    +0.236 A 
ATOM     10  N   UNL     1      10.003  -0.345  21.735  0.00  0.00    -0.211 NA
BRANCH   9  11
ATOM     11  C   UNL     1       9.909   2.043  22.472  0.00  0.00    +0.281 C 
ATOM     12  N   UNL     1       8.958   2.494  21.592  0.00  0.00    -0.323 N 
ATOM     13  H   UNL     1       8.928   3.475  21.356  0.00  0.00    +0.145 HD
ATOM     14  H   UNL     1       8.284   1.845  21.202  0.00  0.00    +0.145 HD
ATOM     15  O   UNL     1      10.736   2.810  22.961  0.00  0.00    -0.267 OA
ENDBRANCH   9  11
ENDBRANCH   1   7
BRANCH   4  16
ATOM     16  O3* UNL     1       7.170  -3.804  27.002  0.00  0.00    -0.386 OA
ATOM     17  H3* UNL     1       6.653  -2.973  26.950  0.00  0.00    +0.210 HD
ENDBRANCH   4  16
BRANCH   5  18
ATOM     18  O2* UNL     1       7.152  -1.750  25.299  0.00  0.00    -0.385 OA
ATOM     19  H2* UNL     1       6.577  -1.676  26.094  0.00  0.00    +0.210 HD
ENDBRANCH   5  18
BRANCH   3  20
ATOM     20  C5* UNL     1       9.106  -5.710  25.132  0.00  0.00    +0.190 C 
BRANCH  20  21
ATOM     21  O5* UNL     1      10.494  -5.542  25.435  0.00  0.00    -0.392 OA
ATOM     22  H5* UNL     1      10.871  -5.047  24.685  0.00  0.00    +0.210 HD
ENDBRANCH  20  21
ENDBRANCH   3  20
TORSDOF 6
ENDMDL
MODEL 9
REMARK VINA RESULT:      -5.4      2.560      6.026
REMARK  Name = 
REMARK  6 active torsions:
REMARK  status: ('A' for Active; 'I' for Inactive)
REMARK    1  A    between atoms: C_3  and  C_19
REMARK    2  A    between atoms: N_5  and  C1*_6
REMARK    3  A    between atoms: C2*_8  and  O2*_18
REMARK    4  A    between atoms: C3*_10  and  O3*_17
REMARK    5  A    between atoms: C4*_12  and  C5*_15
REMARK    6  A    between atoms: C5*_15  and  O5*_16
REMARK                            x       y       z     vdW  Elec       q    Type
REMARK                         _______ _______ _______ _____ _____    ______ ____
ROOT
ATOM      1  C1* UNL     1       9.306  -1.614  24.229  0.00  0.00    +0.270 C 
ATOM      2  O4* UNL     1       8.908  -0.222  24.248  0.00  0.00    -0.344 OA
ATOM      3  C4* UNL     1       9.144   0.306  22.917  0.00  0.00    +0.177 C 
ATOM      4  C3* UNL     1       9.847  -0.796  22.118  0.00  0.00    +0.178 C 
ATOM      5  C2* UNL     1       9.288  -2.056  22.764  0.00  0.00    +0.196 C 
ENDROOT
BRANCH   1   7
ATOM      6  C   UNL     1       7.852  -1.808  26.249  0.00  0.00    +0.223 A 
ATOM      7  N   UNL     1       8.494  -2.346  25.175  0.00  0.00    -0.220 N 
ATOM      8  N   UNL     1       8.361  -3.689  25.148  0.00  0.00    -0.142 NA
ATOM      9  C   UNL     1       7.599  -3.913  26.240  0.00  0.00    +0.236 A 
ATOM     10  N   UNL     1       7.284  -2.759  26.947  0.00  0.00    -0.211 NA
BRANCH   9  11
ATOM     11  C   UNL     1       7.135  -5.242  26.687  0.00  0.00    +0.281 C 
ATOM     12  N   UNL     1       6.221  -5.826  25.846  0.00  0.00    -0.323 N 
ATOM     13  H   UNL     1       5.859  -6.741  26.068  0.00  0.00    +0.145 HD
ATOM     14  H   UNL     1       5.935  -5.343  25.002  0.00  0.00    +0.145 HD
ATOM     15  O   UNL     1       7.501  -5.807  27.716  0.00  0.00    -0.267 OA
ENDBRANCH   9  11
ENDBRANCH   1   7
BRANCH   4  16
ATOM     16  O3* UNL     1       9.554  -0.728  20.728  0.00  0.00    -0.386 OA
ATOM     17  H3* UNL     1      10.229  -1.288  20.289  0.00  0.00    +0.210 HD
ENDBRANCH   4  16
BRANCH   5  18
ATOM     18  O2* UNL     1       7.973  -2.274  22.222  0.00  0.00    -0.385 OA
ATOM     19  H2* UNL     1       7.510  -2.862  22.860  0.00  0.00    +0.210 HD
ENDBRANCH   5  18
BRANCH   3  20
ATOM     20  C5* UNL     1       9.982   1.574  23.052  0.00  0.00    +0.190 C 
BRANCH  20  21
ATOM     21  O5* UNL     1      10.290   2.097  21.757  0.00  0.00    -0.392 OA
ATOM     22  H5* UNL     1       9.449   2.096  21.264  0.00  0.00    +0.210 HD
ENDBRANCH  20  21
ENDBRANCH   3  20
TORSDOF 6
ENDMDL
