MODEL 1
REMARK VINA RESULT:      -6.6      0.000      0.000
REMARK  Name = 
REMARK  18 active torsions:
REMARK  status: ('A' for Active; 'I' for Inactive)
REMARK    1  A    between atoms: C_1  and  C_2
REMARK    2  A    between atoms: C_2  and  C_3
REMARK    3  A    between atoms: C_3  and  C_4
REMARK    4  A    between atoms: C_4  and  C_5
REMARK    5  A    between atoms: C_4  and  N_13
REMARK    6  A    between atoms: C_5  and  C_7
REMARK    7  A    between atoms: N_9  and  C_10
REMARK    8  A    between atoms: C_14  and  C_16
REMARK    9  A    between atoms: C_27  and  C_29
REMARK   10  A    between atoms: C_29  and  C_31
REMARK   11  A    between atoms: C_29  and  N_35
REMARK   12  A    between atoms: C_31  and  C_32
REMARK   13  A    between atoms: C_31  and  C_33
REMARK   14  A    between atoms: C_31  and  C_34
REMARK   15  A    between atoms: C_36  and  C_38
REMARK   16  A    between atoms: C_38  and  C_40
REMARK   17  A    between atoms: C_38  and  N_46
REMARK   18  A    between atoms: C_47  and  C_49
REMARK                            x       y       z     vdW  Elec       q    Type
REMARK                         _______ _______ _______ _____ _____    ______ ____
ROOT
ATOM      1  C   UNL     1       6.813   3.387  24.496  0.00  0.00    +0.165 C 
ATOM      2  N   UNL     1       6.706   2.674  23.218  0.00  0.00    -0.288 N 
ATOM      3  C   UNL     1       7.556   1.669  22.745  0.00  0.00    +0.237 C 
ATOM      4  O   UNL     1       7.694   1.481  21.532  0.00  0.00    -0.274 OA
ATOM      5  C   UNL     1       6.026   3.529  22.240  0.00  0.00    +0.112 C 
ATOM      6  C   UNL     1       5.605   4.805  22.977  0.00  0.00    +0.012 C 
ATOM      7  C   UNL     1       6.547   6.008  22.816  0.00  0.00    +0.005 C 
ATOM      8  C   UNL     1       6.862   6.527  24.220  0.00  0.00    +0.001 C 
ATOM      9  C   UNL     1       5.995   5.728  25.179  0.00  0.00    +0.006 C 
ATOM     10  C   UNL     1       5.684   4.431  24.448  0.00  0.00    +0.023 C 
ENDROOT
BRANCH   1  13
ATOM     11  N   UNL     1       5.439   2.010  26.005  0.00  0.00    -0.304 N 
ATOM     12  H   UNL     1       4.800   1.990  25.218  0.00  0.00    +0.149 HD
ATOM     13  C   UNL     1       6.659   2.610  25.798  0.00  0.00    +0.234 C 
ATOM     14  O   UNL     1       7.568   2.654  26.622  0.00  0.00    -0.274 OA
BRANCH  11  15
ATOM     15  C   UNL     1       5.089   1.180  27.179  0.00  0.00    +0.149 C 
BRANCH  15  16
ATOM     16  C   UNL     1       3.845   0.378  26.800  0.00  0.00    +0.237 C 
ATOM     17  O   UNL     1       2.761   0.865  26.484  0.00  0.00    -0.285 OA
BRANCH  16  18
ATOM     18  C   UNL     1       3.962  -1.145  26.871  0.00  0.00    +0.282 C 
ATOM     19  N   UNL     1       4.114  -1.615  28.160  0.00  0.00    -0.306 N 
ATOM     20  H   UNL     1       4.109  -0.921  28.905  0.00  0.00    +0.149 HD
ATOM     21  O   UNL     1       3.925  -1.821  25.857  0.00  0.00    -0.267 OA
BRANCH  19  22
ATOM     22  C   UNL     1       4.268  -2.997  28.471  0.00  0.00    +0.073 C 
ATOM     23  C   UNL     1       3.075  -3.907  28.564  0.00  0.00    +0.024 C 
ATOM     24  C   UNL     1       3.826  -3.529  29.807  0.00  0.00    +0.024 C 
ENDBRANCH  19  22
ENDBRANCH  16  18
ENDBRANCH  15  16
BRANCH  15  25
ATOM     25  C   UNL     1       4.799   1.995  28.449  0.00  0.00    +0.030 C 
BRANCH  25  27
ATOM     26  C   UNL     1       6.841   1.486  29.777  0.00  0.00    +0.004 C 
ATOM     27  C   UNL     1       5.318   1.411  29.757  0.00  0.00    -0.001 C 
ENDBRANCH  25  27
ENDBRANCH  15  25
ENDBRANCH  11  15
ENDBRANCH   1  13
BRANCH   3  28
ATOM     28  C   UNL     1       8.261   0.697  23.754  0.00  0.00    +0.164 C 
BRANCH  28  29
ATOM     29  N   UNL     1       7.909  -0.693  23.380  0.00  0.00    -0.302 N 
ATOM     30  H   UNL     1       8.096  -0.969  22.421  0.00  0.00    +0.150 HD
ATOM     31  C   UNL     1       7.466  -1.628  24.295  0.00  0.00    +0.234 C 
ATOM     32  O   UNL     1       7.210  -1.303  25.463  0.00  0.00    -0.274 OA
BRANCH  31  33
ATOM     33  C   UNL     1       7.328  -3.091  23.808  0.00  0.00    +0.162 C 
BRANCH  33  34
ATOM     34  C   UNL     1       6.489  -3.371  22.523  0.00  0.00    +0.018 C 
ATOM     35  C   UNL     1       5.037  -3.841  22.739  0.00  0.00    +0.006 C 
ATOM     36  C   UNL     1       4.813  -5.350  22.833  0.00  0.00    +0.000 C 
ATOM     37  C   UNL     1       5.652  -6.185  21.874  0.00  0.00    +0.000 C 
ATOM     38  C   UNL     1       7.105  -5.738  21.820  0.00  0.00    +0.000 C 
ATOM     39  C   UNL     1       7.193  -4.256  21.485  0.00  0.00    +0.006 C 
ENDBRANCH  33  34
BRANCH  33  40
ATOM     40  N   UNL     1       6.767  -3.851  24.950  0.00  0.00    -0.298 N 
ATOM     41  H   UNL     1       5.933  -3.480  25.406  0.00  0.00    +0.150 HD
ATOM     42  C   UNL     1       7.346  -4.979  25.477  0.00  0.00    +0.264 C 
ATOM     43  O   UNL     1       8.395  -5.453  25.045  0.00  0.00    -0.268 OA
BRANCH  42  44
ATOM     44  C   UNL     1       6.634  -5.639  26.619  0.00  0.00    +0.143 A 
ATOM     45  C   UNL     1       5.428  -6.290  26.384  0.00  0.00    +0.143 A 
ATOM     46  N   UNL     1       4.699  -6.868  27.375  0.00  0.00    -0.259 NA
ATOM     47  C   UNL     1       5.231  -6.768  28.613  0.00  0.00    +0.130 A 
ATOM     48  C   UNL     1       6.443  -6.130  28.852  0.00  0.00    +0.131 A 
ATOM     49  N   UNL     1       7.176  -5.545  27.869  0.00  0.00    -0.247 NA
ENDBRANCH  42  44
ENDBRANCH  33  40
ENDBRANCH  31  33
ENDBRANCH  28  29
BRANCH  28  50
ATOM     50  C   UNL     1       9.815   0.840  23.881  0.00  0.00    -0.011 C 
ATOM     51  C   UNL     1      10.486  -0.032  22.794  0.00  0.00    +0.013 C 
ATOM     52  C   UNL     1      10.355   0.358  25.235  0.00  0.00    +0.013 C 
ATOM     53  C   UNL     1      10.282   2.298  23.702  0.00  0.00    +0.013 C 
ENDBRANCH  28  50
ENDBRANCH   3  28
TORSDOF 14
ENDMDL
MODEL 2
REMARK VINA RESULT:      -6.5      2.472      6.564
REMARK  Name = 
REMARK  18 active torsions:
REMARK  status: ('A' for Active; 'I' for Inactive)
REMARK    1  A    between atoms: C_1  and  C_2
REMARK    2  A    between atoms: C_2  and  C_3
REMARK    3  A    between atoms: C_3  and  C_4
REMARK    4  A    between atoms: C_4  and  C_5
REMARK    5  A    between atoms: C_4  and  N_13
REMARK    6  A    between atoms: C_5  and  C_7
REMARK    7  A    between atoms: N_9  and  C_10
REMARK    8  A    between atoms: C_14  and  C_16
REMARK    9  A    between atoms: C_27  and  C_29
REMARK   10  A    between atoms: C_29  and  C_31
REMARK   11  A    between atoms: C_29  and  N_35
REMARK   12  A    between atoms: C_31  and  C_32
REMARK   13  A    between atoms: C_31  and  C_33
REMARK   14  A    between atoms: C_31  and  C_34
REMARK   15  A    between atoms: C_36  and  C_38
REMARK   16  A    between atoms: C_38  and  C_40
REMARK   17  A    between atoms: C_38  and  N_46
REMARK   18  A    between atoms: C_47  and  C_49
REMARK                            x       y       z     vdW  Elec       q    Type
REMARK                         _______ _______ _______ _____ _____    ______ ____
ROOT
ATOM      1  C   UNL     1       4.919   3.463  26.892  0.00  0.00    +0.165 C 
ATOM      2  N   UNL     1       6.206   3.065  27.473  0.00  0.00    -0.288 N 
ATOM      3  C   UNL     1       6.635   1.761  27.744  0.00  0.00    +0.237 C 
ATOM      4  O   UNL     1       7.462   1.544  28.635  0.00  0.00    -0.274 OA
ATOM      5  C   UNL     1       6.722   4.156  28.307  0.00  0.00    +0.112 C 
ATOM      6  C   UNL     1       5.748   5.330  28.159  0.00  0.00    +0.012 C 
ATOM      7  C   UNL     1       4.703   5.472  29.276  0.00  0.00    +0.005 C 
ATOM      8  C   UNL     1       3.334   5.585  28.603  0.00  0.00    +0.001 C 
ATOM      9  C   UNL     1       3.594   5.659  27.107  0.00  0.00    +0.006 C 
ATOM     10  C   UNL     1       4.951   5.002  26.907  0.00  0.00    +0.023 C 
ENDROOT
BRANCH   1  13
ATOM     11  N   UNL     1       5.309   3.615  24.466  0.00  0.00    -0.304 N 
ATOM     12  H   UNL     1       6.119   4.157  24.746  0.00  0.00    +0.149 HD
ATOM     13  C   UNL     1       4.576   3.029  25.472  0.00  0.00    +0.234 C 
ATOM     14  O   UNL     1       3.614   2.286  25.298  0.00  0.00    -0.274 OA
BRANCH  11  15
ATOM     15  C   UNL     1       5.166   3.312  23.025  0.00  0.00    +0.149 C 
BRANCH  15  16
ATOM     16  C   UNL     1       6.486   3.697  22.357  0.00  0.00    +0.237 C 
ATOM     17  O   UNL     1       7.102   2.996  21.557  0.00  0.00    -0.285 OA
BRANCH  16  18
ATOM     18  C   UNL     1       7.094   5.040  22.764  0.00  0.00    +0.282 C 
ATOM     19  N   UNL     1       8.453   4.968  22.994  0.00  0.00    -0.306 N 
ATOM     20  H   UNL     1       8.896   4.063  22.851  0.00  0.00    +0.149 HD
ATOM     21  O   UNL     1       6.397   6.036  22.863  0.00  0.00    -0.267 OA
BRANCH  19  22
ATOM     22  C   UNL     1       9.232   6.088  23.407  0.00  0.00    +0.073 C 
ATOM     23  C   UNL     1      10.694   5.939  23.724  0.00  0.00    +0.024 C 
ATOM     24  C   UNL     1       9.712   6.197  24.828  0.00  0.00    +0.024 C 
ENDBRANCH  19  22
ENDBRANCH  16  18
ENDBRANCH  15  16
BRANCH  15  25
ATOM     25  C   UNL     1       4.015   4.068  22.345  0.00  0.00    +0.030 C 
BRANCH  25  27
ATOM     26  C   UNL     1       1.978   3.951  20.919  0.00  0.00    +0.004 C 
ATOM     27  C   UNL     1       2.774   3.247  22.013  0.00  0.00    -0.001 C 
ENDBRANCH  25  27
ENDBRANCH  15  25
ENDBRANCH  11  15
ENDBRANCH   1  13
BRANCH   3  28
ATOM     28  C   UNL     1       6.150   0.572  26.844  0.00  0.00    +0.164 C 
BRANCH  28  29
ATOM     29  N   UNL     1       7.345  -0.176  26.384  0.00  0.00    -0.302 N 
ATOM     30  H   UNL     1       7.830  -0.733  27.079  0.00  0.00    +0.150 HD
ATOM     31  C   UNL     1       7.729  -0.234  25.059  0.00  0.00    +0.234 C 
ATOM     32  O   UNL     1       7.163   0.458  24.201  0.00  0.00    -0.274 OA
BRANCH  31  33
ATOM     33  C   UNL     1       8.873  -1.211  24.692  0.00  0.00    +0.162 C 
BRANCH  33  34
ATOM     34  C   UNL     1      10.210  -0.621  24.147  0.00  0.00    +0.018 C 
ATOM     35  C   UNL     1      10.636   0.749  24.708  0.00  0.00    +0.006 C 
ATOM     36  C   UNL     1      10.148   1.982  23.947  0.00  0.00    +0.000 C 
ATOM     37  C   UNL     1      10.160   1.846  22.429  0.00  0.00    +0.000 C 
ATOM     38  C   UNL     1       9.600   0.515  21.953  0.00  0.00    +0.000 C 
ATOM     39  C   UNL     1      10.336  -0.640  22.617  0.00  0.00    +0.006 C 
ENDBRANCH  33  34
BRANCH  33  40
ATOM     40  N   UNL     1       8.301  -2.158  23.706  0.00  0.00    -0.298 N 
ATOM     41  H   UNL     1       8.336  -1.897  22.720  0.00  0.00    +0.150 HD
ATOM     42  C   UNL     1       7.663  -3.325  24.046  0.00  0.00    +0.264 C 
ATOM     43  O   UNL     1       7.503  -3.682  25.211  0.00  0.00    -0.268 OA
BRANCH  42  44
ATOM     44  C   UNL     1       7.163  -4.180  22.920  0.00  0.00    +0.143 A 
ATOM     45  C   UNL     1       6.306  -3.628  21.975  0.00  0.00    +0.143 A 
ATOM     46  N   UNL     1       5.771  -4.353  20.956  0.00  0.00    -0.259 NA
ATOM     47  C   UNL     1       6.137  -5.653  20.921  0.00  0.00    +0.130 A 
ATOM     48  C   UNL     1       7.005  -6.206  21.855  0.00  0.00    +0.131 A 
ATOM     49  N   UNL     1       7.539  -5.492  22.881  0.00  0.00    -0.247 NA
ENDBRANCH  42  44
ENDBRANCH  33  40
ENDBRANCH  31  33
ENDBRANCH  28  29
BRANCH  28  50
ATOM     50  C   UNL     1       5.120  -0.412  27.494  0.00  0.00    -0.011 C 
ATOM     51  C   UNL     1       4.818   0.063  28.935  0.00  0.00    +0.013 C 
ATOM     52  C   UNL     1       5.647  -1.850  27.600  0.00  0.00    +0.013 C 
ATOM     53  C   UNL     1       3.797  -0.473  26.707  0.00  0.00    +0.013 C 
ENDBRANCH  28  50
ENDBRANCH   3  28
TORSDOF 14
ENDMDL
MODEL 3
REMARK VINA RESULT:      -6.2      2.469      8.424
REMARK  Name = 
REMARK  18 active torsions:
REMARK  status: ('A' for Active; 'I' for Inactive)
REMARK    1  A    between atoms: C_1  and  C_2
REMARK    2  A    between atoms: C_2  and  C_3
REMARK    3  A    between atoms: C_3  and  C_4
REMARK    4  A    between atoms: C_4  and  C_5
REMARK    5  A    between atoms: C_4  and  N_13
REMARK    6  A    between atoms: C_5  and  C_7
REMARK    7  A    between atoms: N_9  and  C_10
REMARK    8  A    between atoms: C_14  and  C_16
REMARK    9  A    between atoms: C_27  and  C_29
REMARK   10  A    between atoms: C_29  and  C_31
REMARK   11  A    between atoms: C_29  and  N_35
REMARK   12  A    between atoms: C_31  and  C_32
REMARK   13  A    between atoms: C_31  and  C_33
REMARK   14  A    between atoms: C_31  and  C_34
REMARK   15  A    between atoms: C_36  and  C_38
REMARK   16  A    between atoms: C_38  and  C_40
REMARK   17  A    between atoms: C_38  and  N_46
REMARK   18  A    between atoms: C_47  and  C_49
REMARK                            x       y       z     vdW  Elec       q    Type
REMARK                         _______ _______ _______ _____ _____    ______ ____
ROOT
ATOM      1  C   UNL     1       5.803  -2.356  26.830  0.00  0.00    +0.165 C 
ATOM      2  N   UNL     1       4.585  -1.663  26.396  0.00  0.00    -0.288 N 
ATOM      3  C   UNL     1       4.285  -0.308  26.569  0.00  0.00    +0.237 C 
ATOM      4  O   UNL     1       3.112   0.074  26.627  0.00  0.00    -0.274 OA
ATOM      5  C   UNL     1       3.476  -2.621  26.337  0.00  0.00    +0.112 C 
ATOM      6  C   UNL     1       4.058  -4.001  26.661  0.00  0.00    +0.012 C 
ATOM      7  C   UNL     1       3.892  -4.468  28.114  0.00  0.00    +0.005 C 
ATOM      8  C   UNL     1       5.273  -4.903  28.611  0.00  0.00    +0.001 C 
ATOM      9  C   UNL     1       6.204  -4.830  27.411  0.00  0.00    +0.006 C 
ATOM     10  C   UNL     1       5.556  -3.830  26.466  0.00  0.00    +0.023 C 
ENDROOT
BRANCH   1  13
ATOM     11  N   UNL     1       7.381  -2.385  24.939  0.00  0.00    -0.304 N 
ATOM     12  H   UNL     1       6.594  -2.786  24.439  0.00  0.00    +0.149 HD
ATOM     13  C   UNL     1       7.144  -1.957  26.225  0.00  0.00    +0.234 C 
ATOM     14  O   UNL     1       7.966  -1.386  26.936  0.00  0.00    -0.274 OA
BRANCH  11  15
ATOM     15  C   UNL     1       8.595  -2.080  24.152  0.00  0.00    +0.149 C 
BRANCH  15  16
ATOM     16  C   UNL     1       8.191  -2.115  22.679  0.00  0.00    +0.237 C 
ATOM     17  O   UNL     1       8.768  -1.514  21.774  0.00  0.00    -0.285 OA
BRANCH  16  18
ATOM     18  C   UNL     1       6.943  -2.926  22.329  0.00  0.00    +0.282 C 
ATOM     19  N   UNL     1       7.231  -4.221  21.947  0.00  0.00    -0.306 N 
ATOM     20  H   UNL     1       8.211  -4.496  21.960  0.00  0.00    +0.149 HD
ATOM     21  O   UNL     1       5.834  -2.425  22.395  0.00  0.00    -0.267 OA
BRANCH  19  22
ATOM     22  C   UNL     1       6.231  -5.157  21.552  0.00  0.00    +0.073 C 
ATOM     23  C   UNL     1       5.220  -5.671  22.538  0.00  0.00    +0.024 C 
ATOM     24  C   UNL     1       6.295  -6.583  22.025  0.00  0.00    +0.024 C 
ENDBRANCH  19  22
ENDBRANCH  16  18
ENDBRANCH  15  16
BRANCH  15  25
ATOM     25  C   UNL     1       9.748  -3.069  24.384  0.00  0.00    +0.030 C 
BRANCH  25  27
ATOM     26  C   UNL     1       9.689  -4.763  26.207  0.00  0.00    +0.004 C 
ATOM     27  C   UNL     1       9.349  -4.494  24.744  0.00  0.00    -0.001 C 
ENDBRANCH  25  27
ENDBRANCH  15  25
ENDBRANCH  11  15
ENDBRANCH   1  13
BRANCH   3  28
ATOM     28  C   UNL     1       5.438   0.756  26.585  0.00  0.00    +0.164 C 
BRANCH  28  29
ATOM     29  N   UNL     1       5.225   1.683  25.447  0.00  0.00    -0.302 N 
ATOM     30  H   UNL     1       4.736   2.549  25.650  0.00  0.00    +0.150 HD
ATOM     31  C   UNL     1       5.762   1.468  24.193  0.00  0.00    +0.234 C 
ATOM     32  O   UNL     1       6.342   0.407  23.922  0.00  0.00    -0.274 OA
BRANCH  31  33
ATOM     33  C   UNL     1       5.631   2.612  23.158  0.00  0.00    +0.162 C 
BRANCH  33  34
ATOM     34  C   UNL     1       6.902   3.442  22.800  0.00  0.00    +0.018 C 
ATOM     35  C   UNL     1       7.992   2.714  21.988  0.00  0.00    +0.006 C 
ATOM     36  C   UNL     1       9.074   1.992  22.791  0.00  0.00    +0.000 C 
ATOM     37  C   UNL     1       9.547   2.727  24.039  0.00  0.00    +0.000 C 
ATOM     38  C   UNL     1       8.398   3.302  24.853  0.00  0.00    +0.000 C 
ATOM     39  C   UNL     1       7.524   4.195  23.984  0.00  0.00    +0.006 C 
ENDBRANCH  33  34
BRANCH  33  40
ATOM     40  N   UNL     1       4.572   3.511  23.675  0.00  0.00    -0.298 N 
ATOM     41  H   UNL     1       4.701   3.915  24.603  0.00  0.00    +0.150 HD
ATOM     42  C   UNL     1       3.397   3.771  23.012  0.00  0.00    +0.264 C 
ATOM     43  O   UNL     1       3.120   3.267  21.927  0.00  0.00    -0.268 OA
BRANCH  42  44
ATOM     44  C   UNL     1       2.444   4.725  23.668  0.00  0.00    +0.143 A 
ATOM     45  C   UNL     1       1.608   5.503  22.875  0.00  0.00    +0.143 A 
ATOM     46  N   UNL     1       0.754   6.426  23.393  0.00  0.00    -0.259 NA
ATOM     47  C   UNL     1       0.771   6.533  24.740  0.00  0.00    +0.130 A 
ATOM     48  C   UNL     1       1.594   5.746  25.537  0.00  0.00    +0.131 A 
ATOM     49  N   UNL     1       2.455   4.826  25.029  0.00  0.00    -0.247 NA
ENDBRANCH  42  44
ENDBRANCH  33  40
ENDBRANCH  31  33
ENDBRANCH  28  29
BRANCH  28  50
ATOM     50  C   UNL     1       5.612   1.568  27.912  0.00  0.00    -0.011 C 
ATOM     51  C   UNL     1       7.070   2.078  27.996  0.00  0.00    +0.013 C 
ATOM     52  C   UNL     1       5.362   0.725  29.170  0.00  0.00    +0.013 C 
ATOM     53  C   UNL     1       4.661   2.778  27.983  0.00  0.00    +0.013 C 
ENDBRANCH  28  50
ENDBRANCH   3  28
TORSDOF 14
ENDMDL
MODEL 4
REMARK VINA RESULT:      -6.2      2.137      8.120
REMARK  Name = 
REMARK  18 active torsions:
REMARK  status: ('A' for Active; 'I' for Inactive)
REMARK    1  A    between atoms: C_1  and  C_2
REMARK    2  A    between atoms: C_2  and  C_3
REMARK    3  A    between atoms: C_3  and  C_4
REMARK    4  A    between atoms: C_4  and  C_5
REMARK    5  A    between atoms: C_4  and  N_13
REMARK    6  A    between atoms: C_5  and  C_7
REMARK    7  A    between atoms: N_9  and  C_10
REMARK    8  A    between atoms: C_14  and  C_16
REMARK    9  A    between atoms: C_27  and  C_29
REMARK   10  A    between atoms: C_29  and  C_31
REMARK   11  A    between atoms: C_29  and  N_35
REMARK   12  A    between atoms: C_31  and  C_32
REMARK   13  A    between atoms: C_31  and  C_33
REMARK   14  A    between atoms: C_31  and  C_34
REMARK   15  A    between atoms: C_36  and  C_38
REMARK   16  A    between atoms: C_38  and  C_40
REMARK   17  A    between atoms: C_38  and  N_46
REMARK   18  A    between atoms: C_47  and  C_49
REMARK                            x       y       z     vdW  Elec       q    Type
REMARK                         _______ _______ _______ _____ _____    ______ ____
ROOT
ATOM      1  C   UNL     1       5.066  -2.969  26.848  0.00  0.00    +0.165 C 
ATOM      2  N   UNL     1       4.273  -1.852  26.322  0.00  0.00    -0.288 N 
ATOM      3  C   UNL     1       4.659  -0.510  26.253  0.00  0.00    +0.237 C 
ATOM      4  O   UNL     1       3.812   0.389  26.265  0.00  0.00    -0.274 OA
ATOM      5  C   UNL     1       2.846  -2.162  26.461  0.00  0.00    +0.112 C 
ATOM      6  C   UNL     1       2.749  -3.587  27.017  0.00  0.00    +0.012 C 
ATOM      7  C   UNL     1       2.538  -3.696  28.534  0.00  0.00    +0.005 C 
ATOM      8  C   UNL     1       3.601  -4.657  29.072  0.00  0.00    +0.001 C 
ATOM      9  C   UNL     1       4.327  -5.216  27.859  0.00  0.00    +0.006 C 
ATOM     10  C   UNL     1       4.125  -4.183  26.762  0.00  0.00    +0.023 C 
ENDROOT
BRANCH   1  13
ATOM     11  N   UNL     1       6.241  -4.009  24.950  0.00  0.00    -0.304 N 
ATOM     12  H   UNL     1       5.313  -4.042  24.543  0.00  0.00    +0.149 HD
ATOM     13  C   UNL     1       6.367  -3.352  26.153  0.00  0.00    +0.234 C 
ATOM     14  O   UNL     1       7.429  -3.161  26.739  0.00  0.00    -0.274 OA
BRANCH  11  15
ATOM     15  C   UNL     1       7.368  -4.437  24.094  0.00  0.00    +0.149 C 
BRANCH  15  16
ATOM     16  C   UNL     1       6.774  -5.276  22.964  0.00  0.00    +0.237 C 
ATOM     17  O   UNL     1       7.418  -6.009  22.215  0.00  0.00    -0.285 OA
BRANCH  16  18
ATOM     18  C   UNL     1       5.269  -5.146  22.731  0.00  0.00    +0.282 C 
ATOM     19  N   UNL     1       4.563  -6.264  23.127  0.00  0.00    -0.306 N 
ATOM     20  H   UNL     1       5.100  -7.023  23.540  0.00  0.00    +0.149 HD
ATOM     21  O   UNL     1       4.799  -4.135  22.236  0.00  0.00    -0.267 OA
BRANCH  19  22
ATOM     22  C   UNL     1       3.150  -6.383  22.985  0.00  0.00    +0.073 C 
ATOM     23  C   UNL     1       2.216  -5.721  23.960  0.00  0.00    +0.024 C 
ATOM     24  C   UNL     1       2.355  -7.215  23.954  0.00  0.00    +0.024 C 
ENDBRANCH  19  22
ENDBRANCH  16  18
ENDBRANCH  15  16
BRANCH  15  25
ATOM     25  C   UNL     1       8.429  -5.265  24.835  0.00  0.00    +0.030 C 
BRANCH  25  27
ATOM     26  C   UNL     1       9.805  -3.263  24.294  0.00  0.00    +0.004 C 
ATOM     27  C   UNL     1       9.822  -4.653  24.921  0.00  0.00    -0.001 C 
ENDBRANCH  25  27
ENDBRANCH  15  25
ENDBRANCH  11  15
ENDBRANCH   1  13
BRANCH   3  28
ATOM     28  C   UNL     1       6.168  -0.135  26.051  0.00  0.00    +0.164 C 
BRANCH  28  29
ATOM     29  N   UNL     1       6.257   0.835  24.933  0.00  0.00    -0.302 N 
ATOM     30  H   UNL     1       6.148   1.815  25.170  0.00  0.00    +0.150 HD
ATOM     31  C   UNL     1       6.596   0.466  23.646  0.00  0.00    +0.234 C 
ATOM     32  O   UNL     1       6.711  -0.727  23.334  0.00  0.00    -0.274 OA
BRANCH  31  33
ATOM     33  C   UNL     1       6.849   1.603  22.625  0.00  0.00    +0.162 C 
BRANCH  33  34
ATOM     34  C   UNL     1       8.314   1.876  22.162  0.00  0.00    +0.018 C 
ATOM     35  C   UNL     1       9.050   0.704  21.484  0.00  0.00    +0.006 C 
ATOM     36  C   UNL     1       9.847  -0.225  22.401  0.00  0.00    +0.000 C 
ATOM     37  C   UNL     1      10.595   0.473  23.530  0.00  0.00    +0.000 C 
ATOM     38  C   UNL     1       9.750   1.525  24.233  0.00  0.00    +0.000 C 
ATOM     39  C   UNL     1       9.205   2.529  23.228  0.00  0.00    +0.006 C 
ENDBRANCH  33  34
BRANCH  33  40
ATOM     40  N   UNL     1       6.275   2.829  23.228  0.00  0.00    -0.298 N 
ATOM     41  H   UNL     1       6.738   3.218  24.049  0.00  0.00    +0.150 HD
ATOM     42  C   UNL     1       5.117   3.426  22.793  0.00  0.00    +0.264 C 
ATOM     43  O   UNL     1       4.448   2.982  21.862  0.00  0.00    -0.268 OA
BRANCH  42  44
ATOM     44  C   UNL     1       4.689   4.676  23.501  0.00  0.00    +0.143 A 
ATOM     45  C   UNL     1       5.078   4.878  24.820  0.00  0.00    +0.143 A 
ATOM     46  N   UNL     1       4.688   5.961  25.544  0.00  0.00    -0.259 NA
ATOM     47  C   UNL     1       3.894   6.835  24.888  0.00  0.00    +0.130 A 
ATOM     48  C   UNL     1       3.515   6.645  23.564  0.00  0.00    +0.131 A 
ATOM     49  N   UNL     1       3.894   5.564  22.835  0.00  0.00    -0.247 NA
ENDBRANCH  42  44
ENDBRANCH  33  40
ENDBRANCH  31  33
ENDBRANCH  28  29
BRANCH  28  50
ATOM     50  C   UNL     1       6.916   0.426  27.307  0.00  0.00    -0.011 C 
ATOM     51  C   UNL     1       7.091   1.954  27.142  0.00  0.00    +0.013 C 
ATOM     52  C   UNL     1       8.320  -0.168  27.485  0.00  0.00    +0.013 C 
ATOM     53  C   UNL     1       6.143   0.156  28.613  0.00  0.00    +0.013 C 
ENDBRANCH  28  50
ENDBRANCH   3  28
TORSDOF 14
ENDMDL
MODEL 5
REMARK VINA RESULT:      -6.0      2.431      8.866
REMARK  Name = 
REMARK  18 active torsions:
REMARK  status: ('A' for Active; 'I' for Inactive)
REMARK    1  A    between atoms: C_1  and  C_2
REMARK    2  A    between atoms: C_2  and  C_3
REMARK    3  A    between atoms: C_3  and  C_4
REMARK    4  A    between atoms: C_4  and  C_5
REMARK    5  A    between atoms: C_4  and  N_13
REMARK    6  A    between atoms: C_5  and  C_7
REMARK    7  A    between atoms: N_9  and  C_10
REMARK    8  A    between atoms: C_14  and  C_16
REMARK    9  A    between atoms: C_27  and  C_29
REMARK   10  A    between atoms: C_29  and  C_31
REMARK   11  A    between atoms: C_29  and  N_35
REMARK   12  A    between atoms: C_31  and  C_32
REMARK   13  A    between atoms: C_31  and  C_33
REMARK   14  A    between atoms: C_31  and  C_34
REMARK   15  A    between atoms: C_36  and  C_38
REMARK   16  A    between atoms: C_38  and  C_40
REMARK   17  A    between atoms: C_38  and  N_46
REMARK   18  A    between atoms: C_47  and  C_49
REMARK                            x       y       z     vdW  Elec       q    Type
REMARK                         _______ _______ _______ _____ _____    ______ ____
ROOT
ATOM      1  C   UNL     1       6.443  -1.796  26.637  0.00  0.00    +0.165 C 
ATOM      2  N   UNL     1       5.268  -0.925  26.520  0.00  0.00    -0.288 N 
ATOM      3  C   UNL     1       5.094   0.331  27.111  0.00  0.00    +0.237 C 
ATOM      4  O   UNL     1       3.963   0.754  27.366  0.00  0.00    -0.274 OA
ATOM      5  C   UNL     1       4.079  -1.745  26.262  0.00  0.00    +0.112 C 
ATOM      6  C   UNL     1       4.558  -3.193  26.116  0.00  0.00    +0.012 C 
ATOM      7  C   UNL     1       4.427  -4.066  27.373  0.00  0.00    +0.005 C 
ATOM      8  C   UNL     1       5.789  -4.721  27.614  0.00  0.00    +0.001 C 
ATOM      9  C   UNL     1       6.660  -4.351  26.425  0.00  0.00    +0.006 C 
ATOM     10  C   UNL     1       6.053  -3.072  25.870  0.00  0.00    +0.023 C 
ENDROOT
BRANCH   1  13
ATOM     11  N   UNL     1       7.851  -1.176  24.713  0.00  0.00    -0.304 N 
ATOM     12  H   UNL     1       6.977  -1.235  24.202  0.00  0.00    +0.149 HD
ATOM     13  C   UNL     1       7.780  -1.322  26.080  0.00  0.00    +0.234 C 
ATOM     14  O   UNL     1       8.732  -1.207  26.847  0.00  0.00    -0.274 OA
BRANCH  11  15
ATOM     15  C   UNL     1       9.036  -0.695  23.970  0.00  0.00    +0.149 C 
BRANCH  15  16
ATOM     16  C   UNL     1       9.581  -1.886  23.185  0.00  0.00    +0.237 C 
ATOM     17  O   UNL     1      10.419  -1.815  22.287  0.00  0.00    -0.285 OA
BRANCH  16  18
ATOM     18  C   UNL     1       8.995  -3.257  23.522  0.00  0.00    +0.282 C 
ATOM     19  N   UNL     1       7.960  -3.622  22.684  0.00  0.00    -0.306 N 
ATOM     20  H   UNL     1       7.720  -2.970  21.940  0.00  0.00    +0.149 HD
ATOM     21  O   UNL     1       9.434  -3.912  24.452  0.00  0.00    -0.267 OA
BRANCH  19  22
ATOM     22  C   UNL     1       7.243  -4.846  22.820  0.00  0.00    +0.073 C 
ATOM     23  C   UNL     1       6.715  -5.572  21.614  0.00  0.00    +0.024 C 
ATOM     24  C   UNL     1       5.763  -4.894  22.556  0.00  0.00    +0.024 C 
ENDBRANCH  19  22
ENDBRANCH  16  18
ENDBRANCH  15  16
BRANCH  15  25
ATOM     25  C   UNL     1      10.145  -0.131  24.872  0.00  0.00    +0.030 C 
BRANCH  25  27
ATOM     26  C   UNL     1      10.125   1.654  23.138  0.00  0.00    +0.004 C 
ATOM     27  C   UNL     1      10.684   1.243  24.496  0.00  0.00    -0.001 C 
ENDBRANCH  25  27
ENDBRANCH  15  25
ENDBRANCH  11  15
ENDBRANCH   1  13
BRANCH   3  28
ATOM     28  C   UNL     1       6.332   1.262  27.356  0.00  0.00    +0.164 C 
BRANCH  28  29
ATOM     29  N   UNL     1       6.096   2.541  26.644  0.00  0.00    -0.302 N 
ATOM     30  H   UNL     1       5.712   3.303  27.191  0.00  0.00    +0.150 HD
ATOM     31  C   UNL     1       6.486   2.755  25.336  0.00  0.00    +0.234 C 
ATOM     32  O   UNL     1       6.936   1.829  24.646  0.00  0.00    -0.274 OA
BRANCH  31  33
ATOM     33  C   UNL     1       6.361   4.196  24.784  0.00  0.00    +0.162 C 
BRANCH  33  34
ATOM     34  C   UNL     1       5.723   4.400  23.375  0.00  0.00    +0.018 C 
ATOM     35  C   UNL     1       6.696   4.691  22.216  0.00  0.00    +0.006 C 
ATOM     36  C   UNL     1       7.010   6.162  21.940  0.00  0.00    +0.000 C 
ATOM     37  C   UNL     1       5.824   7.108  22.072  0.00  0.00    +0.000 C 
ATOM     38  C   UNL     1       4.990   6.836  23.314  0.00  0.00    +0.000 C 
ATOM     39  C   UNL     1       4.543   5.382  23.348  0.00  0.00    +0.006 C 
ENDBRANCH  33  34
BRANCH  33  40
ATOM     40  N   UNL     1       7.731   4.761  24.803  0.00  0.00    -0.298 N 
ATOM     41  H   UNL     1       8.359   4.515  24.037  0.00  0.00    +0.150 HD
ATOM     42  C   UNL     1       8.227   5.532  25.825  0.00  0.00    +0.264 C 
ATOM     43  O   UNL     1       7.571   5.813  26.826  0.00  0.00    -0.268 OA
BRANCH  42  44
ATOM     44  C   UNL     1       9.628   6.043  25.673  0.00  0.00    +0.143 A 
ATOM     45  C   UNL     1      10.324   5.782  24.498  0.00  0.00    +0.143 A 
ATOM     46  N   UNL     1      11.614   6.168  24.306  0.00  0.00    -0.259 NA
ATOM     47  C   UNL     1      12.175   6.831  25.341  0.00  0.00    +0.130 A 
ATOM     48  C   UNL     1      11.479   7.107  26.512  0.00  0.00    +0.131 A 
ATOM     49  N   UNL     1      10.193   6.720  26.716  0.00  0.00    -0.247 NA
ENDBRANCH  42  44
ENDBRANCH  33  40
ENDBRANCH  31  33
ENDBRANCH  28  29
BRANCH  28  50
ATOM     50  C   UNL     1       6.702   1.542  28.851  0.00  0.00    -0.011 C 
ATOM     51  C   UNL     1       6.868   3.067  29.046  0.00  0.00    +0.013 C 
ATOM     52  C   UNL     1       8.027   0.892  29.274  0.00  0.00    +0.013 C 
ATOM     53  C   UNL     1       5.620   1.034  29.823  0.00  0.00    +0.013 C 
ENDBRANCH  28  50
ENDBRANCH   3  28
TORSDOF 14
ENDMDL
MODEL 6
REMARK VINA RESULT:      -5.9      1.999      8.040
REMARK  Name = 
REMARK  18 active torsions:
REMARK  status: ('A' for Active; 'I' for Inactive)
REMARK    1  A    between atoms: C_1  and  C_2
REMARK    2  A    between atoms: C_2  and  C_3
REMARK    3  A    between atoms: C_3  and  C_4
REMARK    4  A    between atoms: C_4  and  C_5
REMARK    5  A    between atoms: C_4  and  N_13
REMARK    6  A    between atoms: C_5  and  C_7
REMARK    7  A    between atoms: N_9  and  C_10
REMARK    8  A    between atoms: C_14  and  C_16
REMARK    9  A    between atoms: C_27  and  C_29
REMARK   10  A    between atoms: C_29  and  C_31
REMARK   11  A    between atoms: C_29  and  N_35
REMARK   12  A    between atoms: C_31  and  C_32
REMARK   13  A    between atoms: C_31  and  C_33
REMARK   14  A    between atoms: C_31  and  C_34
REMARK   15  A    between atoms: C_36  and  C_38
REMARK   16  A    between atoms: C_38  and  C_40
REMARK   17  A    between atoms: C_38  and  N_46
REMARK   18  A    between atoms: C_47  and  C_49
REMARK                            x       y       z     vdW  Elec       q    Type
REMARK                         _______ _______ _______ _____ _____    ______ ____
ROOT
ATOM      1  C   UNL     1       3.698  -2.111  27.182  0.00  0.00    +0.165 C 
ATOM      2  N   UNL     1       3.376  -0.739  26.770  0.00  0.00    -0.288 N 
ATOM      3  C   UNL     1       4.278   0.315  26.592  0.00  0.00    +0.237 C 
ATOM      4  O   UNL     1       3.909   1.486  26.726  0.00  0.00    -0.274 OA
ATOM      5  C   UNL     1       2.001  -0.422  27.170  0.00  0.00    +0.112 C 
ATOM      6  C   UNL     1       1.406  -1.697  27.778  0.00  0.00    +0.012 C 
ATOM      7  C   UNL     1       1.436  -1.778  29.312  0.00  0.00    +0.005 C 
ATOM      8  C   UNL     1       2.065  -3.123  29.682  0.00  0.00    +0.001 C 
ATOM      9  C   UNL     1       2.262  -3.879  28.378  0.00  0.00    +0.006 C 
ATOM     10  C   UNL     1       2.331  -2.806  27.303  0.00  0.00    +0.023 C 
ENDROOT
BRANCH   1  13
ATOM     11  N   UNL     1       5.576  -3.678  26.901  0.00  0.00    -0.304 N 
ATOM     12  H   UNL     1       5.561  -3.698  27.915  0.00  0.00    +0.149 HD
ATOM     13  C   UNL     1       4.570  -2.976  26.279  0.00  0.00    +0.234 C 
ATOM     14  O   UNL     1       4.405  -2.914  25.064  0.00  0.00    -0.274 OA
BRANCH  11  15
ATOM     15  C   UNL     1       6.511  -4.602  26.223  0.00  0.00    +0.149 C 
BRANCH  15  16
ATOM     16  C   UNL     1       5.768  -5.923  26.030  0.00  0.00    +0.237 C 
ATOM     17  O   UNL     1       5.529  -6.735  26.923  0.00  0.00    -0.285 OA
BRANCH  16  18
ATOM     18  C   UNL     1       5.337  -6.267  24.604  0.00  0.00    +0.282 C 
ATOM     19  N   UNL     1       5.802  -5.365  23.668  0.00  0.00    -0.306 N 
ATOM     20  H   UNL     1       6.383  -4.604  24.013  0.00  0.00    +0.149 HD
ATOM     21  O   UNL     1       4.647  -7.247  24.380  0.00  0.00    -0.267 OA
BRANCH  19  22
ATOM     22  C   UNL     1       5.508  -5.466  22.278  0.00  0.00    +0.073 C 
ATOM     23  C   UNL     1       6.556  -5.907  21.295  0.00  0.00    +0.024 C 
ATOM     24  C   UNL     1       6.093  -4.480  21.303  0.00  0.00    +0.024 C 
ENDBRANCH  19  22
ENDBRANCH  16  18
ENDBRANCH  15  16
BRANCH  15  25
ATOM     25  C   UNL     1       7.806  -4.859  27.008  0.00  0.00    +0.030 C 
BRANCH  25  27
ATOM     26  C   UNL     1       8.824  -3.864  24.967  0.00  0.00    +0.004 C 
ATOM     27  C   UNL     1       9.109  -4.640  26.249  0.00  0.00    -0.001 C 
ENDBRANCH  25  27
ENDBRANCH  15  25
ENDBRANCH  11  15
ENDBRANCH   1  13
BRANCH   3  28
ATOM     28  C   UNL     1       5.743   0.024  26.114  0.00  0.00    +0.164 C 
BRANCH  28  29
ATOM     29  N   UNL     1       6.017   0.868  24.926  0.00  0.00    -0.302 N 
ATOM     30  H   UNL     1       5.935   1.871  25.050  0.00  0.00    +0.150 HD
ATOM     31  C   UNL     1       6.483   0.353  23.732  0.00  0.00    +0.234 C 
ATOM     32  O   UNL     1       6.566  -0.870  23.555  0.00  0.00    -0.274 OA
BRANCH  31  33
ATOM     33  C   UNL     1       6.917   1.365  22.643  0.00  0.00    +0.162 C 
BRANCH  33  34
ATOM     34  C   UNL     1       8.415   1.394  22.209  0.00  0.00    +0.018 C 
ATOM     35  C   UNL     1       9.101   0.028  22.013  0.00  0.00    +0.006 C 
ATOM     36  C   UNL     1       9.794  -0.571  23.237  0.00  0.00    +0.000 C 
ATOM     37  C   UNL     1      10.537   0.432  24.111  0.00  0.00    +0.000 C 
ATOM     38  C   UNL     1       9.734   1.700  24.364  0.00  0.00    +0.000 C 
ATOM     39  C   UNL     1       9.301   2.327  23.047  0.00  0.00    +0.006 C 
ENDBRANCH  33  34
BRANCH  33  40
ATOM     40  N   UNL     1       6.510   2.700  23.141  0.00  0.00    -0.298 N 
ATOM     41  H   UNL     1       7.082   3.131  23.869  0.00  0.00    +0.150 HD
ATOM     42  C   UNL     1       5.373   3.355  22.737  0.00  0.00    +0.264 C 
ATOM     43  O   UNL     1       4.583   2.878  21.925  0.00  0.00    -0.268 OA
BRANCH  42  44
ATOM     44  C   UNL     1       5.124   4.711  23.324  0.00  0.00    +0.143 A 
ATOM     45  C   UNL     1       6.149   5.356  24.006  0.00  0.00    +0.143 A 
ATOM     46  N   UNL     1       5.986   6.564  24.609  0.00  0.00    -0.259 NA
ATOM     47  C   UNL     1       4.750   7.100  24.496  0.00  0.00    +0.130 A 
ATOM     48  C   UNL     1       3.726   6.466  23.803  0.00  0.00    +0.131 A 
ATOM     49  N   UNL     1       3.878   5.256  23.203  0.00  0.00    -0.247 NA
ENDBRANCH  42  44
ENDBRANCH  33  40
ENDBRANCH  31  33
ENDBRANCH  28  29
BRANCH  28  50
ATOM     50  C   UNL     1       6.871   0.221  27.182  0.00  0.00    -0.011 C 
ATOM     51  C   UNL     1       6.272  -0.014  28.589  0.00  0.00    +0.013 C 
ATOM     52  C   UNL     1       7.460   1.638  27.179  0.00  0.00    +0.013 C 
ATOM     53  C   UNL     1       8.044  -0.756  26.975  0.00  0.00    +0.013 C 
ENDBRANCH  28  50
ENDBRANCH   3  28
TORSDOF 14
ENDMDL
MODEL 7
REMARK VINA RESULT:      -5.9      1.957      5.258
REMARK  Name = 
REMARK  18 active torsions:
REMARK  status: ('A' for Active; 'I' for Inactive)
REMARK    1  A    between atoms: C_1  and  C_2
REMARK    2  A    between atoms: C_2  and  C_3
REMARK    3  A    between atoms: C_3  and  C_4
REMARK    4  A    between atoms: C_4  and  C_5
REMARK    5  A    between atoms: C_4  and  N_13
REMARK    6  A    between atoms: C_5  and  C_7
REMARK    7  A    between atoms: N_9  and  C_10
REMARK    8  A    between atoms: C_14  and  C_16
REMARK    9  A    between atoms: C_27  and  C_29
REMARK   10  A    between atoms: C_29  and  C_31
REMARK   11  A    between atoms: C_29  and  N_35
REMARK   12  A    between atoms: C_31  and  C_32
REMARK   13  A    between atoms: C_31  and  C_33
REMARK   14  A    between atoms: C_31  and  C_34
REMARK   15  A    between atoms: C_36  and  C_38
REMARK   16  A    between atoms: C_38  and  C_40
REMARK   17  A    between atoms: C_38  and  N_46
REMARK   18  A    between atoms: C_47  and  C_49
REMARK                            x       y       z     vdW  Elec       q    Type
REMARK                         _______ _______ _______ _____ _____    ______ ____
ROOT
ATOM      1  C   UNL     1       5.110   3.539  27.251  0.00  0.00    +0.165 C 
ATOM      2  N   UNL     1       5.883   2.552  28.014  0.00  0.00    -0.288 N 
ATOM      3  C   UNL     1       5.461   1.275  28.401  0.00  0.00    +0.237 C 
ATOM      4  O   UNL     1       5.940   0.732  29.402  0.00  0.00    -0.274 OA
ATOM      5  C   UNL     1       6.865   3.247  28.852  0.00  0.00    +0.112 C 
ATOM      6  C   UNL     1       6.760   4.739  28.521  0.00  0.00    +0.012 C 
ATOM      7  C   UNL     1       5.903   5.575  29.484  0.00  0.00    +0.005 C 
ATOM      8  C   UNL     1       4.906   6.365  28.634  0.00  0.00    +0.001 C 
ATOM      9  C   UNL     1       5.277   6.105  27.183  0.00  0.00    +0.006 C 
ATOM     10  C   UNL     1       6.020   4.778  27.194  0.00  0.00    +0.023 C 
ENDROOT
BRANCH   1  13
ATOM     11  N   UNL     1       5.682   3.287  24.869  0.00  0.00    -0.304 N 
ATOM     12  H   UNL     1       6.633   3.387  25.206  0.00  0.00    +0.149 HD
ATOM     13  C   UNL     1       4.691   3.215  25.821  0.00  0.00    +0.234 C 
ATOM     14  O   UNL     1       3.502   3.023  25.583  0.00  0.00    -0.274 OA
BRANCH  11  15
ATOM     15  C   UNL     1       5.504   2.979  23.433  0.00  0.00    +0.149 C 
BRANCH  15  16
ATOM     16  C   UNL     1       6.879   2.597  22.888  0.00  0.00    +0.237 C 
ATOM     17  O   UNL     1       7.176   2.549  21.695  0.00  0.00    -0.285 OA
BRANCH  16  18
ATOM     18  C   UNL     1       7.940   2.202  23.915  0.00  0.00    +0.282 C 
ATOM     19  N   UNL     1       8.167   0.841  23.960  0.00  0.00    -0.306 N 
ATOM     20  H   UNL     1       7.637   0.266  23.309  0.00  0.00    +0.149 HD
ATOM     21  O   UNL     1       8.490   3.047  24.601  0.00  0.00    -0.267 OA
BRANCH  19  22
ATOM     22  C   UNL     1       9.094   0.236  24.857  0.00  0.00    +0.073 C 
ATOM     23  C   UNL     1      10.568   0.231  24.561  0.00  0.00    +0.024 C 
ATOM     24  C   UNL     1       9.786  -1.047  24.485  0.00  0.00    +0.024 C 
ENDBRANCH  19  22
ENDBRANCH  16  18
ENDBRANCH  15  16
BRANCH  15  25
ATOM     25  C   UNL     1       4.941   4.150  22.614  0.00  0.00    +0.030 C 
BRANCH  25  27
ATOM     26  C   UNL     1       4.310   6.383  23.513  0.00  0.00    +0.004 C 
ATOM     27  C   UNL     1       5.459   5.536  22.977  0.00  0.00    -0.001 C 
ENDBRANCH  25  27
ENDBRANCH  15  25
ENDBRANCH  11  15
ENDBRANCH   1  13
BRANCH   3  28
ATOM     28  C   UNL     1       4.453   0.476  27.506  0.00  0.00    +0.164 C 
BRANCH  28  29
ATOM     29  N   UNL     1       5.149  -0.726  26.987  0.00  0.00    -0.302 N 
ATOM     30  H   UNL     1       5.300  -1.485  27.643  0.00  0.00    +0.150 HD
ATOM     31  C   UNL     1       5.474  -0.887  25.654  0.00  0.00    +0.234 C 
ATOM     32  O   UNL     1       5.318   0.037  24.844  0.00  0.00    -0.274 OA
BRANCH  31  33
ATOM     33  C   UNL     1       6.015  -2.271  25.217  0.00  0.00    +0.162 C 
BRANCH  33  34
ATOM     34  C   UNL     1       5.532  -2.863  23.858  0.00  0.00    +0.018 C 
ATOM     35  C   UNL     1       5.117  -4.348  23.863  0.00  0.00    +0.006 C 
ATOM     36  C   UNL     1       6.215  -5.366  23.557  0.00  0.00    +0.000 C 
ATOM     37  C   UNL     1       7.193  -4.948  22.465  0.00  0.00    +0.000 C 
ATOM     38  C   UNL     1       7.655  -3.506  22.610  0.00  0.00    +0.000 C 
ATOM     39  C   UNL     1       6.458  -2.567  22.670  0.00  0.00    +0.006 C 
ENDBRANCH  33  34
BRANCH  33  40
ATOM     40  N   UNL     1       5.685  -3.205  26.319  0.00  0.00    -0.298 N 
ATOM     41  H   UNL     1       4.720  -3.230  26.650  0.00  0.00    +0.150 HD
ATOM     42  C   UNL     1       6.613  -3.981  26.969  0.00  0.00    +0.264 C 
ATOM     43  O   UNL     1       7.811  -3.958  26.693  0.00  0.00    -0.268 OA
BRANCH  42  44
ATOM     44  C   UNL     1       6.104  -4.890  28.047  0.00  0.00    +0.143 A 
ATOM     45  C   UNL     1       4.950  -4.544  28.741  0.00  0.00    +0.143 A 
ATOM     46  N   UNL     1       4.456  -5.291  29.764  0.00  0.00    -0.259 NA
ATOM     47  C   UNL     1       5.166  -6.402  30.060  0.00  0.00    +0.130 A 
ATOM     48  C   UNL     1       6.312  -6.760  29.360  0.00  0.00    +0.131 A 
ATOM     49  N   UNL     1       6.818  -6.017  28.341  0.00  0.00    -0.247 NA
ENDBRANCH  42  44
ENDBRANCH  33  40
ENDBRANCH  31  33
ENDBRANCH  28  29
BRANCH  28  50
ATOM     50  C   UNL     1       3.104   0.062  28.184  0.00  0.00    -0.011 C 
ATOM     51  C   UNL     1       1.990   0.043  27.110  0.00  0.00    +0.013 C 
ATOM     52  C   UNL     1       2.653   1.043  29.275  0.00  0.00    +0.013 C 
ATOM     53  C   UNL     1       3.184  -1.332  28.837  0.00  0.00    +0.013 C 
ENDBRANCH  28  50
ENDBRANCH   3  28
TORSDOF 14
ENDMDL
MODEL 8
REMARK VINA RESULT:      -5.8      2.113      8.644
REMARK  Name = 
REMARK  18 active torsions:
REMARK  status: ('A' for Active; 'I' for Inactive)
REMARK    1  A    between atoms: C_1  and  C_2
REMARK    2  A    between atoms: C_2  and  C_3
REMARK    3  A    between atoms: C_3  and  C_4
REMARK    4  A    between atoms: C_4  and  C_5
REMARK    5  A    between atoms: C_4  and  N_13
REMARK    6  A    between atoms: C_5  and  C_7
REMARK    7  A    between atoms: N_9  and  C_10
REMARK    8  A    between atoms: C_14  and  C_16
REMARK    9  A    between atoms: C_27  and  C_29
REMARK   10  A    between atoms: C_29  and  C_31
REMARK   11  A    between atoms: C_29  and  N_35
REMARK   12  A    between atoms: C_31  and  C_32
REMARK   13  A    between atoms: C_31  and  C_33
REMARK   14  A    between atoms: C_31  and  C_34
REMARK   15  A    between atoms: C_36  and  C_38
REMARK   16  A    between atoms: C_38  and  C_40
REMARK   17  A    between atoms: C_38  and  N_46
REMARK   18  A    between atoms: C_47  and  C_49
REMARK                            x       y       z     vdW  Elec       q    Type
REMARK                         _______ _______ _______ _____ _____    ______ ____
ROOT
ATOM      1  C   UNL     1       3.975  -4.281  26.431  0.00  0.00    +0.165 C 
ATOM      2  N   UNL     1       3.002  -3.385  25.796  0.00  0.00    -0.288 N 
ATOM      3  C   UNL     1       2.392  -2.266  26.374  0.00  0.00    +0.237 C 
ATOM      4  O   UNL     1       1.285  -1.882  25.984  0.00  0.00    -0.274 OA
ATOM      5  C   UNL     1       2.272  -4.118  24.757  0.00  0.00    +0.112 C 
ATOM      6  C   UNL     1       2.891  -5.518  24.677  0.00  0.00    +0.012 C 
ATOM      7  C   UNL     1       2.148  -6.618  25.450  0.00  0.00    +0.005 C 
ATOM      8  C   UNL     1       3.179  -7.330  26.328  0.00  0.00    +0.001 C 
ATOM      9  C   UNL     1       4.534  -6.748  25.959  0.00  0.00    +0.006 C 
ATOM     10  C   UNL     1       4.232  -5.375  25.379  0.00  0.00    +0.023 C 
ENDROOT
BRANCH   1  13
ATOM     11  N   UNL     1       6.176  -3.350  25.835  0.00  0.00    -0.304 N 
ATOM     12  H   UNL     1       5.778  -3.311  24.902  0.00  0.00    +0.149 HD
ATOM     13  C   UNL     1       5.332  -3.729  26.853  0.00  0.00    +0.234 C 
ATOM     14  O   UNL     1       5.636  -3.757  28.042  0.00  0.00    -0.274 OA
BRANCH  11  15
ATOM     15  C   UNL     1       7.518  -2.757  26.021  0.00  0.00    +0.149 C 
BRANCH  15  16
ATOM     16  C   UNL     1       7.975  -2.254  24.652  0.00  0.00    +0.237 C 
ATOM     17  O   UNL     1       8.930  -1.504  24.459  0.00  0.00    -0.285 OA
BRANCH  16  18
ATOM     18  C   UNL     1       7.140  -2.689  23.448  0.00  0.00    +0.282 C 
ATOM     19  N   UNL     1       7.479  -3.942  22.980  0.00  0.00    -0.306 N 
ATOM     20  H   UNL     1       8.211  -4.438  23.485  0.00  0.00    +0.149 HD
ATOM     21  O   UNL     1       6.280  -1.957  22.987  0.00  0.00    -0.267 OA
BRANCH  19  22
ATOM     22  C   UNL     1       6.854  -4.548  21.852  0.00  0.00    +0.073 C 
ATOM     23  C   UNL     1       5.694  -5.489  22.022  0.00  0.00    +0.024 C 
ATOM     24  C   UNL     1       7.028  -6.018  21.584  0.00  0.00    +0.024 C 
ENDBRANCH  19  22
ENDBRANCH  16  18
ENDBRANCH  15  16
BRANCH  15  25
ATOM     25  C   UNL     1       8.559  -3.743  26.571  0.00  0.00    +0.030 C 
BRANCH  25  27
ATOM     26  C   UNL     1       9.455  -5.642  25.235  0.00  0.00    +0.004 C 
ATOM     27  C   UNL     1       8.360  -5.208  26.203  0.00  0.00    -0.001 C 
ENDBRANCH  25  27
ENDBRANCH  15  25
ENDBRANCH  11  15
ENDBRANCH   1  13
BRANCH   3  28
ATOM     28  C   UNL     1       3.159  -1.423  27.451  0.00  0.00    +0.164 C 
BRANCH  28  29
ATOM     29  N   UNL     1       3.633  -0.173  26.807  0.00  0.00    -0.302 N 
ATOM     30  H   UNL     1       2.932   0.395  26.344  0.00  0.00    +0.150 HD
ATOM     31  C   UNL     1       4.931   0.284  26.923  0.00  0.00    +0.234 C 
ATOM     32  O   UNL     1       5.804  -0.407  27.464  0.00  0.00    -0.274 OA
BRANCH  31  33
ATOM     33  C   UNL     1       5.237   1.699  26.372  0.00  0.00    +0.162 C 
BRANCH  33  34
ATOM     34  C   UNL     1       4.048   2.579  25.879  0.00  0.00    +0.018 C 
ATOM     35  C   UNL     1       4.049   2.962  24.386  0.00  0.00    +0.006 C 
ATOM     36  C   UNL     1       4.757   4.265  24.014  0.00  0.00    +0.000 C 
ATOM     37  C   UNL     1       4.554   5.410  24.999  0.00  0.00    +0.000 C 
ATOM     38  C   UNL     1       4.700   4.972  26.449  0.00  0.00    +0.000 C 
ATOM     39  C   UNL     1       3.765   3.811  26.751  0.00  0.00    +0.006 C 
ENDBRANCH  33  34
BRANCH  33  40
ATOM     40  N   UNL     1       6.211   1.506  25.271  0.00  0.00    -0.298 N 
ATOM     41  H   UNL     1       6.008   0.786  24.576  0.00  0.00    +0.150 HD
ATOM     42  C   UNL     1       7.401   2.184  25.174  0.00  0.00    +0.264 C 
ATOM     43  O   UNL     1       7.766   3.012  26.006  0.00  0.00    -0.268 OA
BRANCH  42  44
ATOM     44  C   UNL     1       8.259   1.885  23.981  0.00  0.00    +0.143 A 
ATOM     45  C   UNL     1       9.604   2.234  24.006  0.00  0.00    +0.143 A 
ATOM     46  N   UNL     1      10.433   2.042  22.946  0.00  0.00    -0.259 NA
ATOM     47  C   UNL     1       9.857   1.481  21.860  0.00  0.00    +0.130 A 
ATOM     48  C   UNL     1       8.516   1.116  21.836  0.00  0.00    +0.131 A 
ATOM     49  N   UNL     1       7.678   1.311  22.887  0.00  0.00    -0.247 NA
ENDBRANCH  42  44
ENDBRANCH  33  40
ENDBRANCH  31  33
ENDBRANCH  28  29
BRANCH  28  50
ATOM     50  C   UNL     1       2.366  -1.084  28.757  0.00  0.00    -0.011 C 
ATOM     51  C   UNL     1       3.347  -1.095  29.953  0.00  0.00    +0.013 C 
ATOM     52  C   UNL     1       1.266  -2.106  29.075  0.00  0.00    +0.013 C 
ATOM     53  C   UNL     1       1.690   0.299  28.686  0.00  0.00    +0.013 C 
ENDBRANCH  28  50
ENDBRANCH   3  28
TORSDOF 14
ENDMDL
MODEL 9
REMARK VINA RESULT:      -5.7      2.476      9.016
REMARK  Name = 
REMARK  18 active torsions:
REMARK  status: ('A' for Active; 'I' for Inactive)
REMARK    1  A    between atoms: C_1  and  C_2
REMARK    2  A    between atoms: C_2  and  C_3
REMARK    3  A    between atoms: C_3  and  C_4
REMARK    4  A    between atoms: C_4  and  C_5
REMARK    5  A    between atoms: C_4  and  N_13
REMARK    6  A    between atoms: C_5  and  C_7
REMARK    7  A    between atoms: N_9  and  C_10
REMARK    8  A    between atoms: C_14  and  C_16
REMARK    9  A    between atoms: C_27  and  C_29
REMARK   10  A    between atoms: C_29  and  C_31
REMARK   11  A    between atoms: C_29  and  N_35
REMARK   12  A    between atoms: C_31  and  C_32
REMARK   13  A    between atoms: C_31  and  C_33
REMARK   14  A    between atoms: C_31  and  C_34
REMARK   15  A    between atoms: C_36  and  C_38
REMARK   16  A    between atoms: C_38  and  C_40
REMARK   17  A    between atoms: C_38  and  N_46
REMARK   18  A    between atoms: C_47  and  C_49
REMARK                            x       y       z     vdW  Elec       q    Type
REMARK                         _______ _______ _______ _____ _____    ______ ____
ROOT
ATOM      1  C   UNL     1       6.951  -1.880  25.802  0.00  0.00    +0.165 C 
ATOM      2  N   UNL     1       5.523  -1.668  25.539  0.00  0.00    -0.288 N 
ATOM      3  C   UNL     1       4.616  -0.974  26.347  0.00  0.00    +0.237 C 
ATOM      4  O   UNL     1       3.412  -1.247  26.319  0.00  0.00    -0.274 OA
ATOM      5  C   UNL     1       5.016  -2.759  24.701  0.00  0.00    +0.112 C 
ATOM      6  C   UNL     1       6.215  -3.645  24.346  0.00  0.00    +0.012 C 
ATOM      7  C   UNL     1       6.396  -4.898  25.215  0.00  0.00    +0.005 C 
ATOM      8  C   UNL     1       7.845  -4.902  25.709  0.00  0.00    +0.001 C 
ATOM      9  C   UNL     1       8.539  -3.743  25.012  0.00  0.00    +0.006 C 
ATOM     10  C   UNL     1       7.426  -2.775  24.644  0.00  0.00    +0.023 C 
ENDROOT
BRANCH   1  13
ATOM     11  N   UNL     1       7.976   0.076  24.711  0.00  0.00    -0.304 N 
ATOM     12  H   UNL     1       7.303  -0.125  23.979  0.00  0.00    +0.149 HD
ATOM     13  C   UNL     1       7.885  -0.677  25.860  0.00  0.00    +0.234 C 
ATOM     14  O   UNL     1       8.575  -0.512  26.862  0.00  0.00    -0.274 OA
BRANCH  11  15
ATOM     15  C   UNL     1       8.791   1.301  24.561  0.00  0.00    +0.149 C 
BRANCH  15  16
ATOM     16  C   UNL     1       7.987   2.264  23.689  0.00  0.00    +0.237 C 
ATOM     17  O   UNL     1       7.141   1.928  22.861  0.00  0.00    -0.285 OA
BRANCH  16  18
ATOM     18  C   UNL     1       8.305   3.752  23.837  0.00  0.00    +0.282 C 
ATOM     19  N   UNL     1       7.892   4.502  22.754  0.00  0.00    -0.306 N 
ATOM     20  H   UNL     1       7.415   4.004  22.006  0.00  0.00    +0.149 HD
ATOM     21  O   UNL     1       8.873   4.173  24.831  0.00  0.00    -0.267 OA
BRANCH  19  22
ATOM     22  C   UNL     1       8.102   5.908  22.656  0.00  0.00    +0.073 C 
ATOM     23  C   UNL     1       7.202   6.877  23.371  0.00  0.00    +0.024 C 
ATOM     24  C   UNL     1       7.146   6.768  21.876  0.00  0.00    +0.024 C 
ENDBRANCH  19  22
ENDBRANCH  16  18
ENDBRANCH  15  16
BRANCH  15  25
ATOM     25  C   UNL     1      10.162   1.056  23.914  0.00  0.00    +0.030 C 
BRANCH  25  27
ATOM     26  C   UNL     1       9.869  -0.143  21.753  0.00  0.00    +0.004 C 
ATOM     27  C   UNL     1      10.340  -0.277  23.197  0.00  0.00    -0.001 C 
ENDBRANCH  25  27
ENDBRANCH  15  25
ENDBRANCH  11  15
ENDBRANCH   1  13
BRANCH   3  28
ATOM     28  C   UNL     1       5.106   0.234  27.219  0.00  0.00    +0.164 C 
BRANCH  28  29
ATOM     29  N   UNL     1       4.768   1.488  26.504  0.00  0.00    -0.302 N 
ATOM     30  H   UNL     1       3.826   1.562  26.134  0.00  0.00    +0.150 HD
ATOM     31  C   UNL     1       5.625   2.568  26.436  0.00  0.00    +0.234 C 
ATOM     32  O   UNL     1       6.786   2.487  26.861  0.00  0.00    -0.274 OA
BRANCH  31  33
ATOM     33  C   UNL     1       5.068   3.881  25.834  0.00  0.00    +0.162 C 
BRANCH  33  34
ATOM     34  C   UNL     1       4.590   5.002  26.806  0.00  0.00    +0.018 C 
ATOM     35  C   UNL     1       3.112   4.951  27.241  0.00  0.00    +0.006 C 
ATOM     36  C   UNL     1       2.116   5.718  26.370  0.00  0.00    +0.000 C 
ATOM     37  C   UNL     1       2.616   7.061  25.853  0.00  0.00    +0.000 C 
ATOM     38  C   UNL     1       4.039   6.994  25.320  0.00  0.00    +0.000 C 
ATOM     39  C   UNL     1       4.976   6.425  26.376  0.00  0.00    +0.006 C 
ENDBRANCH  33  34
BRANCH  33  40
ATOM     40  N   UNL     1       3.955   3.481  24.940  0.00  0.00    -0.298 N 
ATOM     41  H   UNL     1       3.194   2.934  25.344  0.00  0.00    +0.150 HD
ATOM     42  C   UNL     1       3.926   3.736  23.592  0.00  0.00    +0.264 C 
ATOM     43  O   UNL     1       4.836   4.317  23.004  0.00  0.00    -0.268 OA
BRANCH  42  44
ATOM     44  C   UNL     1       2.711   3.282  22.840  0.00  0.00    +0.143 A 
ATOM     45  C   UNL     1       2.731   3.283  21.450  0.00  0.00    +0.143 A 
ATOM     46  N   UNL     1       1.653   2.933  20.699  0.00  0.00    -0.259 NA
ATOM     47  C   UNL     1       0.554   2.580  21.400  0.00  0.00    +0.130 A 
ATOM     48  C   UNL     1       0.533   2.563  22.790  0.00  0.00    +0.131 A 
ATOM     49  N   UNL     1       1.603   2.917  23.549  0.00  0.00    -0.247 NA
ENDBRANCH  42  44
ENDBRANCH  33  40
ENDBRANCH  31  33
ENDBRANCH  28  29
BRANCH  28  50
ATOM     50  C   UNL     1       4.564   0.292  28.687  0.00  0.00    -0.011 C 
ATOM     51  C   UNL     1       4.239  -1.146  29.156  0.00  0.00    +0.013 C 
ATOM     52  C   UNL     1       3.270   1.106  28.818  0.00  0.00    +0.013 C 
ATOM     53  C   UNL     1       5.586   0.910  29.661  0.00  0.00    +0.013 C 
ENDBRANCH  28  50
ENDBRANCH   3  28
TORSDOF 14
ENDMDL
