MODEL 1
REMARK VINA RESULT:      -7.5      0.000      0.000
REMARK  Name = 
REMARK  19 active torsions:
REMARK  status: ('A' for Active; 'I' for Inactive)
REMARK    1  A    between atoms: C_1  and  C_2
REMARK    2  A    between atoms: C_2  and  C_3
REMARK    3  A    between atoms: C_2  and  C_4
REMARK    4  A    between atoms: C_4  and  C_6
REMARK    5  A    between atoms: C_4  and  N_66
REMARK    6  A    between atoms: C_12  and  C_14
REMARK    7  A    between atoms: C_17  and  C_19
REMARK    8  A    between atoms: C_26  and  C_60
REMARK    9  A    between atoms: C_35  and  C_37
REMARK   10  A    between atoms: C_40  and  C_42
REMARK   11  A    between atoms: C_48  and  C_50
REMARK   12  A    between atoms: C_50  and  C_52
REMARK   13  A    between atoms: C_50  and  N_55
REMARK   14  A    between atoms: C_52  and  C_53
REMARK   15  A    between atoms: C_52  and  C_54
REMARK   16  A    between atoms: C_56  and  O_58
REMARK   17  A    between atoms: O_58  and  C_59
REMARK   18  A    between atoms: C_67  and  O_69
REMARK   19  A    between atoms: O_69  and  C_70
REMARK                            x       y       z     vdW  Elec       q    Type
REMARK                         _______ _______ _______ _____ _____    ______ ____
ROOT
ATOM      1  C   UNL     1       9.746   1.006  24.288  0.00  0.00    +0.000 A 
ATOM      2  C   UNL     1      10.255  -0.139  23.657  0.00  0.00    +0.012 A 
ATOM      3  C   UNL     1       9.829  -1.429  24.003  0.00  0.00    +0.027 A 
ATOM      4  C   UNL     1       8.864  -1.546  25.010  0.00  0.00    +0.053 A 
ATOM      5  N   UNL     1       8.213  -2.641  25.532  0.00  0.00    -0.300 N 
ATOM      6  C   UNL     1       7.310  -2.258  26.499  0.00  0.00    +0.057 A 
ATOM      7  C   UNL     1       7.374  -0.888  26.605  0.00  0.00    +0.036 A 
ATOM      8  C   UNL     1       6.502  -3.295  27.112  0.00  0.00    +0.040 A 
ATOM      9  C   UNL     1       5.305  -3.035  27.767  0.00  0.00    +0.014 A 
ATOM     10  C   UNL     1       4.543  -4.099  28.260  0.00  0.00    +0.011 A 
ATOM     11  C   UNL     1       4.976  -5.434  28.137  0.00  0.00    +0.003 A 
ATOM     12  C   UNL     1       6.198  -5.685  27.500  0.00  0.00    +0.056 A 
ATOM     13  C   UNL     1       6.928  -4.624  26.960  0.00  0.00    +0.133 A 
ATOM     14  O   UNL     1       8.071  -4.929  26.243  0.00  0.00    -0.464 OA
ATOM     15  C   UNL     1       8.279  -4.043  25.097  0.00  0.00    +0.308 C 
ATOM     16  C   UNL     1       8.336  -0.425  25.662  0.00  0.00    +0.001 A 
ATOM     17  C   UNL     1       8.783   0.859  25.295  0.00  0.00    +0.020 A 
ENDROOT
BRANCH   1  21
ATOM     18  C   UNL     1      10.275   4.569  23.814  0.00  0.00    +0.128 A 
ATOM     19  N   UNL     1       9.569   3.490  24.281  0.00  0.00    -0.340 N 
ATOM     20  H   UNL     1       8.720   3.545  24.822  0.00  0.00    +0.167 HD
ATOM     21  C   UNL     1      10.195   2.336  23.890  0.00  0.00    +0.066 A 
ATOM     22  C   UNL     1      11.225   2.788  23.089  0.00  0.00    +0.139 A 
ATOM     23  N   UNL     1      11.281   4.161  23.067  0.00  0.00    -0.238 NA
BRANCH  18  26
ATOM     24  C   UNL     1       7.515   5.838  25.062  0.00  0.00    +0.237 C 
ATOM     25  N   UNL     1       8.885   6.001  25.212  0.00  0.00    -0.290 N 
ATOM     26  C   UNL     1       9.913   5.986  24.168  0.00  0.00    +0.142 C 
ATOM     27  C   UNL     1      11.122   6.699  24.799  0.00  0.00    +0.032 C 
ATOM     28  C   UNL     1      10.685   7.107  26.208  0.00  0.00    +0.021 C 
ATOM     29  C   UNL     1       9.479   6.242  26.514  0.00  0.00    +0.108 C 
ATOM     30  O   UNL     1       6.797   5.711  26.055  0.00  0.00    -0.274 OA
BRANCH  24  31
ATOM     31  C   UNL     1       6.949   5.743  23.616  0.00  0.00    +0.165 C 
BRANCH  31  32
ATOM     32  N   UNL     1       6.226   4.486  23.483  0.00  0.00    -0.270 N 
ATOM     33  H   UNL     1       5.371   4.331  23.996  0.00  0.00    +0.153 HD
ATOM     34  C   UNL     1       6.574   3.512  22.605  0.00  0.00    +0.401 C 
ATOM     35  O   UNL     1       7.528   3.550  21.847  0.00  0.00    -0.226 OA
BRANCH  34  36
ATOM     36  O   UNL     1       5.670   2.502  22.692  0.00  0.00    -0.454 OA
ATOM     37  C   UNL     1       5.451   2.026  24.019  0.00  0.00    +0.282 C 
ENDBRANCH  34  36
ENDBRANCH  31  32
BRANCH  31  39
ATOM     38  C   UNL     1       5.654   6.911  21.697  0.00  0.00    +0.009 C 
ATOM     39  C   UNL     1       6.058   6.930  23.174  0.00  0.00    +0.012 C 
ATOM     40  C   UNL     1       4.816   7.072  24.058  0.00  0.00    +0.009 C 
ENDBRANCH  31  39
ENDBRANCH  24  31
ENDBRANCH  18  26
ENDBRANCH   1  21
BRANCH  11  41
ATOM     41  C   UNL     1       4.117  -6.517  28.620  0.00  0.00    +0.066 A 
ATOM     42  N   UNL     1       3.138  -7.139  27.872  0.00  0.00    -0.340 N 
ATOM     43  H   UNL     1       2.913  -6.914  26.914  0.00  0.00    +0.167 HD
ATOM     44  C   UNL     1       2.366  -7.917  28.712  0.00  0.00    +0.128 A 
ATOM     45  N   UNL     1       2.911  -7.954  29.913  0.00  0.00    -0.238 NA
ATOM     46  C   UNL     1       3.970  -7.085  29.871  0.00  0.00    +0.139 A 
BRANCH  44  47
ATOM     47  C   UNL     1       0.994  -8.411  28.300  0.00  0.00    +0.142 C 
ATOM     48  N   UNL     1       1.054  -9.339  27.163  0.00  0.00    -0.290 N 
ATOM     49  C   UNL     1       0.872  -9.172  25.808  0.00  0.00    +0.237 C 
ATOM     50  O   UNL     1       0.987 -10.157  25.059  0.00  0.00    -0.274 OA
ATOM     51  C   UNL     1       1.128 -10.718  27.645  0.00  0.00    +0.108 C 
ATOM     52  C   UNL     1       1.129 -10.644  29.163  0.00  0.00    +0.021 C 
ATOM     53  C   UNL     1       0.448  -9.306  29.430  0.00  0.00    +0.032 C 
BRANCH  49  54
ATOM     54  C   UNL     1       0.595  -7.805  25.124  0.00  0.00    +0.165 C 
BRANCH  54  55
ATOM     55  N   UNL     1       0.446  -6.658  26.002  0.00  0.00    -0.270 N 
ATOM     56  H   UNL     1      -0.179  -6.673  26.792  0.00  0.00    +0.153 HD
ATOM     57  C   UNL     1       1.057  -5.474  25.712  0.00  0.00    +0.401 C 
ATOM     58  O   UNL     1       1.818  -5.282  24.777  0.00  0.00    -0.226 OA
BRANCH  57  59
ATOM     59  O   UNL     1       0.642  -4.528  26.589  0.00  0.00    -0.454 OA
ATOM     60  C   UNL     1       0.596  -3.212  26.030  0.00  0.00    +0.282 C 
ENDBRANCH  57  59
ENDBRANCH  54  55
BRANCH  54  61
ATOM     61  C   UNL     1       1.500  -7.551  23.894  0.00  0.00    +0.012 C 
ATOM     62  C   UNL     1       1.149  -8.380  22.661  0.00  0.00    +0.009 C 
ATOM     63  C   UNL     1       2.979  -7.747  24.260  0.00  0.00    +0.009 C 
ENDBRANCH  54  61
ENDBRANCH  49  54
ENDBRANCH  44  47
ENDBRANCH  11  41
BRANCH  15  64
ATOM     64  C   UNL     1       7.284  -4.409  23.989  0.00  0.00    +0.014 A 
ATOM     65  C   UNL     1       7.558  -5.524  23.174  0.00  0.00    +0.009 A 
ATOM     66  C   UNL     1       6.629  -5.971  22.231  0.00  0.00    +0.000 A 
ATOM     67  C   UNL     1       5.417  -5.304  22.075  0.00  0.00    +0.000 A 
ATOM     68  C   UNL     1       5.141  -4.179  22.846  0.00  0.00    +0.000 A 
ATOM     69  C   UNL     1       6.069  -3.731  23.788  0.00  0.00    +0.009 A 
ENDBRANCH  15  64
TORSDOF 13
ENDMDL
