MODEL 1
REMARK VINA RESULT:      -7.1      0.000      0.000
REMARK  Name = 
REMARK  16 active torsions:
REMARK  status: ('A' for Active; 'I' for Inactive)
REMARK    1  A    between atoms: C_1  and  C_2
REMARK    2  A    between atoms: C_2  and  C_3
REMARK    3  A    between atoms: C_2  and  C_4
REMARK    4  A    between atoms: C_4  and  N_5
REMARK    5  A    between atoms: N_5  and  C_6
REMARK    6  A    between atoms: N_5  and  S_34
REMARK    7  A    between atoms: C_6  and  C_7
REMARK    8  A    between atoms: C_7  and  C_9
REMARK    9  A    between atoms: C_7  and  O_33
REMARK   10  A    between atoms: C_9  and  C_11
REMARK   11  A    between atoms: C_9  and  N_18
REMARK   12  A    between atoms: C_11  and  C_12
REMARK   13  A    between atoms: C_19  and  O_21
REMARK   14  A    between atoms: O_21  and  C_22
REMARK   15  A    between atoms: S_34  and  C_37
REMARK   16  A    between atoms: C_40  and  N_43
REMARK                            x       y       z     vdW  Elec       q    Type
REMARK                         _______ _______ _______ _____ _____    ______ ____
ROOT
ATOM      1  C   UNL     1       8.281  -1.842  25.750  0.00  0.00    +0.151 C 
ENDROOT
BRANCH   1   2
ATOM      2  O   UNL     1       8.524  -1.375  27.093  0.00  0.00    -0.389 OA
ATOM      3  H   UNL     1       8.001  -0.563  27.221  0.00  0.00    +0.210 HD
ENDBRANCH   1   2
BRANCH   1   4
ATOM      4  C   UNL     1       7.012  -1.210  25.176  0.00  0.00    +0.142 C 
BRANCH   4   5
ATOM      5  N   UNL     1       7.126  -0.079  24.175  0.00  0.00    -0.174 NA
BRANCH   5   6
ATOM      6  S   UNL     1       6.408   1.344  25.059  0.00  0.00    +0.061 S 
ATOM      7  O   UNL     1       7.184   1.489  26.270  0.00  0.00    -0.153 OA
ATOM      8  O   UNL     1       4.972   1.172  25.114  0.00  0.00    -0.153 OA
BRANCH   6   9
ATOM      9  C   UNL     1       6.732   2.739  24.018  0.00  0.00    +0.106 A 
ATOM     10  C   UNL     1       6.145   2.822  22.752  0.00  0.00    +0.030 A 
ATOM     11  C   UNL     1       6.408   3.931  21.943  0.00  0.00    +0.024 A 
ATOM     12  C   UNL     1       7.222   4.970  22.404  0.00  0.00    +0.025 A 
ATOM     13  C   UNL     1       7.883   4.817  23.629  0.00  0.00    +0.024 A 
ATOM     14  C   UNL     1       7.629   3.715  24.448  0.00  0.00    +0.030 A 
BRANCH  12  15
ATOM     15  N   UNL     1       7.549   6.034  21.558  0.00  0.00    -0.358 N 
ATOM     16  H   UNL     1       6.937   6.839  21.656  0.00  0.00    +0.142 HD
ATOM     17  H   UNL     1       8.530   6.297  21.595  0.00  0.00    +0.142 HD
ENDBRANCH  12  15
ENDBRANCH   6   9
ENDBRANCH   5   6
BRANCH   5  18
ATOM     18  C   UNL     1       8.517   0.308  23.687  0.00  0.00    +0.112 C 
BRANCH  18  20
ATOM     19  C   UNL     1       9.697   1.509  21.829  0.00  0.00    +0.008 C 
ATOM     20  C   UNL     1       8.846   0.267  22.172  0.00  0.00    -0.001 C 
ATOM     21  C   UNL     1       9.712  -0.917  21.718  0.00  0.00    +0.008 C 
ENDBRANCH  18  20
ENDBRANCH   5  18
ENDBRANCH   4   5
ENDBRANCH   1   4
BRANCH   1  22
ATOM     22  C   UNL     1       8.426  -3.391  25.704  0.00  0.00    +0.110 C 
BRANCH  22  23
ATOM     23  N   UNL     1       7.084  -3.963  25.978  0.00  0.00    -0.275 N 
ATOM     24  H   UNL     1       6.291  -3.577  25.482  0.00  0.00    +0.152 HD
ATOM     25  C   UNL     1       6.800  -4.982  26.829  0.00  0.00    +0.401 C 
ATOM     26  O   UNL     1       7.609  -5.624  27.476  0.00  0.00    -0.226 OA
BRANCH  25  27
ATOM     27  O   UNL     1       5.455  -5.130  26.878  0.00  0.00    -0.444 OA
BRANCH  27  28
ATOM     28  C   UNL     1       4.925  -6.371  26.387  0.00  0.00    +0.212 C 
ATOM     29  C   UNL     1       4.653  -6.293  24.897  0.00  0.00    +0.090 C 
ATOM     30  C   UNL     1       4.065  -4.979  24.404  0.00  0.00    +0.040 C 
ATOM     31  C   UNL     1       3.069  -5.421  23.358  0.00  0.00    +0.163 C 
ATOM     32  O   UNL     1       2.628  -6.730  23.721  0.00  0.00    -0.351 OA
ATOM     33  C   UNL     1       3.527  -7.280  24.682  0.00  0.00    +0.257 C 
ATOM     34  O   UNL     1       2.870  -7.483  25.936  0.00  0.00    -0.347 OA
ATOM     35  C   UNL     1       3.544  -6.711  26.938  0.00  0.00    +0.208 C 
ENDBRANCH  27  28
ENDBRANCH  25  27
ENDBRANCH  22  23
BRANCH  22  36
ATOM     36  C   UNL     1       8.936  -3.987  24.376  0.00  0.00    +0.060 C 
BRANCH  36  37
ATOM     37  C   UNL     1       7.923  -4.391  23.334  0.00  0.00    -0.046 A 
ATOM     38  C   UNL     1       7.784  -5.750  23.007  0.00  0.00    +0.004 A 
ATOM     39  C   UNL     1       6.909  -6.159  22.000  0.00  0.00    +0.000 A 
ATOM     40  C   UNL     1       6.164  -5.216  21.301  0.00  0.00    +0.000 A 
ATOM     41  C   UNL     1       6.300  -3.862  21.609  0.00  0.00    +0.000 A 
ATOM     42  C   UNL     1       7.181  -3.448  22.616  0.00  0.00    +0.004 A 
ENDBRANCH  36  37
ENDBRANCH  22  36
ENDBRANCH   1  22
TORSDOF 14
ENDMDL
MODEL 2
REMARK VINA RESULT:      -6.9      2.438      6.822
REMARK  Name = 
REMARK  16 active torsions:
REMARK  status: ('A' for Active; 'I' for Inactive)
REMARK    1  A    between atoms: C_1  and  C_2
REMARK    2  A    between atoms: C_2  and  C_3
REMARK    3  A    between atoms: C_2  and  C_4
REMARK    4  A    between atoms: C_4  and  N_5
REMARK    5  A    between atoms: N_5  and  C_6
REMARK    6  A    between atoms: N_5  and  S_34
REMARK    7  A    between atoms: C_6  and  C_7
REMARK    8  A    between atoms: C_7  and  C_9
REMARK    9  A    between atoms: C_7  and  O_33
REMARK   10  A    between atoms: C_9  and  C_11
REMARK   11  A    between atoms: C_9  and  N_18
REMARK   12  A    between atoms: C_11  and  C_12
REMARK   13  A    between atoms: C_19  and  O_21
REMARK   14  A    between atoms: O_21  and  C_22
REMARK   15  A    between atoms: S_34  and  C_37
REMARK   16  A    between atoms: C_40  and  N_43
REMARK                            x       y       z     vdW  Elec       q    Type
REMARK                         _______ _______ _______ _____ _____    ______ ____
ROOT
ATOM      1  C   UNL     1       9.749   0.716  24.694  0.00  0.00    +0.151 C 
ENDROOT
BRANCH   1   2
ATOM      2  O   UNL     1      10.230  -0.543  25.211  0.00  0.00    -0.389 OA
ATOM      3  H   UNL     1       9.505  -1.188  25.135  0.00  0.00    +0.210 HD
ENDBRANCH   1   2
BRANCH   1   4
ATOM      4  C   UNL     1       8.384   1.062  25.292  0.00  0.00    +0.142 C 
BRANCH   4   5
ATOM      5  N   UNL     1       7.166   0.259  24.888  0.00  0.00    -0.174 NA
BRANCH   5   6
ATOM      6  S   UNL     1       6.439  -0.241  26.483  0.00  0.00    +0.061 S 
ATOM      7  O   UNL     1       5.007  -0.142  26.313  0.00  0.00    -0.153 OA
ATOM      8  O   UNL     1       7.111   0.483  27.540  0.00  0.00    -0.153 OA
BRANCH   6   9
ATOM      9  C   UNL     1       6.863  -1.951  26.662  0.00  0.00    +0.106 A 
ATOM     10  C   UNL     1       8.167  -2.383  26.399  0.00  0.00    +0.030 A 
ATOM     11  C   UNL     1       8.487  -3.734  26.549  0.00  0.00    +0.024 A 
ATOM     12  C   UNL     1       7.527  -4.647  26.992  0.00  0.00    +0.025 A 
ATOM     13  C   UNL     1       6.204  -4.215  27.147  0.00  0.00    +0.024 A 
ATOM     14  C   UNL     1       5.870  -2.866  27.002  0.00  0.00    +0.030 A 
BRANCH  12  15
ATOM     15  N   UNL     1       7.831  -6.011  27.057  0.00  0.00    -0.358 N 
ATOM     16  H   UNL     1       7.023  -6.603  27.223  0.00  0.00    +0.142 HD
ATOM     17  H   UNL     1       8.388  -6.342  26.274  0.00  0.00    +0.142 HD
ENDBRANCH  12  15
ENDBRANCH   6   9
ENDBRANCH   5   6
BRANCH   5  18
ATOM     18  C   UNL     1       6.089   0.954  24.064  0.00  0.00    +0.112 C 
BRANCH  18  20
ATOM     19  C   UNL     1       5.611   2.952  22.626  0.00  0.00    +0.008 C 
ATOM     20  C   UNL     1       6.002   2.502  24.051  0.00  0.00    -0.001 C 
ATOM     21  C   UNL     1       4.912   3.108  24.947  0.00  0.00    +0.008 C 
ENDBRANCH  18  20
ENDBRANCH   5  18
ENDBRANCH   4   5
ENDBRANCH   1   4
BRANCH   1  22
ATOM     22  C   UNL     1       9.910   0.737  23.146  0.00  0.00    +0.110 C 
BRANCH  22  23
ATOM     23  N   UNL     1       9.042  -0.337  22.603  0.00  0.00    -0.275 N 
ATOM     24  H   UNL     1       8.096  -0.096  22.335  0.00  0.00    +0.152 HD
ATOM     25  C   UNL     1       9.392  -1.635  22.407  0.00  0.00    +0.401 C 
ATOM     26  O   UNL     1      10.492  -2.119  22.605  0.00  0.00    -0.226 OA
BRANCH  25  27
ATOM     27  O   UNL     1       8.292  -2.313  22.003  0.00  0.00    -0.444 OA
BRANCH  27  28
ATOM     28  C   UNL     1       7.411  -2.787  23.034  0.00  0.00    +0.212 C 
ATOM     29  C   UNL     1       7.402  -4.303  23.085  0.00  0.00    +0.090 C 
ATOM     30  C   UNL     1       7.425  -5.005  21.736  0.00  0.00    +0.040 C 
ATOM     31  C   UNL     1       6.495  -6.177  21.945  0.00  0.00    +0.163 C 
ATOM     32  O   UNL     1       5.550  -5.793  22.945  0.00  0.00    -0.351 OA
ATOM     33  C   UNL     1       6.032  -4.638  23.630  0.00  0.00    +0.257 C 
ATOM     34  O   UNL     1       5.177  -3.516  23.401  0.00  0.00    -0.347 OA
ATOM     35  C   UNL     1       5.941  -2.475  22.779  0.00  0.00    +0.208 C 
ENDBRANCH  27  28
ENDBRANCH  25  27
ENDBRANCH  22  23
BRANCH  22  36
ATOM     36  C   UNL     1       9.533   2.057  22.442  0.00  0.00    +0.060 C 
BRANCH  36  37
ATOM     37  C   UNL     1       9.997   3.355  23.053  0.00  0.00    -0.046 A 
ATOM     38  C   UNL     1       9.040   4.275  23.510  0.00  0.00    +0.004 A 
ATOM     39  C   UNL     1       9.424   5.517  24.018  0.00  0.00    +0.000 A 
ATOM     40  C   UNL     1      10.770   5.860  24.072  0.00  0.00    +0.000 A 
ATOM     41  C   UNL     1      11.732   4.959  23.612  0.00  0.00    +0.000 A 
ATOM     42  C   UNL     1      11.349   3.713  23.098  0.00  0.00    +0.004 A 
ENDBRANCH  36  37
ENDBRANCH  22  36
ENDBRANCH   1  22
TORSDOF 14
ENDMDL
MODEL 3
REMARK VINA RESULT:      -6.8      2.777      8.241
REMARK  Name = 
REMARK  16 active torsions:
REMARK  status: ('A' for Active; 'I' for Inactive)
REMARK    1  A    between atoms: C_1  and  C_2
REMARK    2  A    between atoms: C_2  and  C_3
REMARK    3  A    between atoms: C_2  and  C_4
REMARK    4  A    between atoms: C_4  and  N_5
REMARK    5  A    between atoms: N_5  and  C_6
REMARK    6  A    between atoms: N_5  and  S_34
REMARK    7  A    between atoms: C_6  and  C_7
REMARK    8  A    between atoms: C_7  and  C_9
REMARK    9  A    between atoms: C_7  and  O_33
REMARK   10  A    between atoms: C_9  and  C_11
REMARK   11  A    between atoms: C_9  and  N_18
REMARK   12  A    between atoms: C_11  and  C_12
REMARK   13  A    between atoms: C_19  and  O_21
REMARK   14  A    between atoms: O_21  and  C_22
REMARK   15  A    between atoms: S_34  and  C_37
REMARK   16  A    between atoms: C_40  and  N_43
REMARK                            x       y       z     vdW  Elec       q    Type
REMARK                         _______ _______ _______ _____ _____    ______ ____
ROOT
ATOM      1  C   UNL     1       9.387  -3.262  25.028  0.00  0.00    +0.151 C 
ENDROOT
BRANCH   1   2
ATOM      2  O   UNL     1       9.627  -4.618  24.595  0.00  0.00    -0.389 OA
ATOM      3  H   UNL     1       9.976  -5.112  25.358  0.00  0.00    +0.210 HD
ENDBRANCH   1   2
BRANCH   1   4
ATOM      4  C   UNL     1       8.567  -3.241  26.318  0.00  0.00    +0.142 C 
BRANCH   4   5
ATOM      5  N   UNL     1       7.076  -3.505  26.261  0.00  0.00    -0.174 NA
BRANCH   5   6
ATOM      6  S   UNL     1       6.915  -5.183  26.952  0.00  0.00    +0.061 S 
ATOM      7  O   UNL     1       6.411  -5.010  28.296  0.00  0.00    -0.153 OA
ATOM      8  O   UNL     1       8.149  -5.899  26.710  0.00  0.00    -0.153 OA
BRANCH   6   9
ATOM      9  C   UNL     1       5.655  -5.959  25.979  0.00  0.00    +0.106 A 
ATOM     10  C   UNL     1       5.693  -5.874  24.584  0.00  0.00    +0.030 A 
ATOM     11  C   UNL     1       4.694  -6.494  23.830  0.00  0.00    +0.024 A 
ATOM     12  C   UNL     1       3.682  -7.225  24.457  0.00  0.00    +0.025 A 
ATOM     13  C   UNL     1       3.602  -7.209  25.855  0.00  0.00    +0.024 A 
ATOM     14  C   UNL     1       4.595  -6.594  26.621  0.00  0.00    +0.030 A 
BRANCH  12  15
ATOM     15  N   UNL     1       2.638  -7.771  23.701  0.00  0.00    -0.358 N 
ATOM     16  H   UNL     1       2.479  -7.295  22.818  0.00  0.00    +0.142 HD
ATOM     17  H   UNL     1       2.704  -8.777  23.582  0.00  0.00    +0.142 HD
ENDBRANCH  12  15
ENDBRANCH   6   9
ENDBRANCH   5   6
BRANCH   5  18
ATOM     18  C   UNL     1       6.153  -2.573  27.036  0.00  0.00    +0.112 C 
BRANCH  18  20
ATOM     19  C   UNL     1       4.129  -1.092  26.999  0.00  0.00    +0.008 C 
ATOM     20  C   UNL     1       4.642  -2.517  26.693  0.00  0.00    -0.001 C 
ATOM     21  C   UNL     1       4.294  -2.730  25.213  0.00  0.00    +0.008 C 
ENDBRANCH  18  20
ENDBRANCH   5  18
ENDBRANCH   4   5
ENDBRANCH   1   4
BRANCH   1  22
ATOM     22  C   UNL     1       8.897  -2.410  23.821  0.00  0.00    +0.110 C 
BRANCH  22  23
ATOM     23  N   UNL     1       8.112  -1.280  24.376  0.00  0.00    -0.275 N 
ATOM     24  H   UNL     1       8.449  -0.833  25.219  0.00  0.00    +0.152 HD
ATOM     25  C   UNL     1       6.972  -0.757  23.855  0.00  0.00    +0.401 C 
ATOM     26  O   UNL     1       6.431  -1.104  22.820  0.00  0.00    -0.226 OA
BRANCH  25  27
ATOM     27  O   UNL     1       6.508   0.183  24.712  0.00  0.00    -0.444 OA
BRANCH  27  28
ATOM     28  C   UNL     1       5.998   1.392  24.128  0.00  0.00    +0.212 C 
ATOM     29  C   UNL     1       7.008   2.517  24.243  0.00  0.00    +0.090 C 
ATOM     30  C   UNL     1       7.772   2.583  25.557  0.00  0.00    +0.040 C 
ATOM     31  C   UNL     1       7.865   4.066  25.825  0.00  0.00    +0.163 C 
ATOM     32  O   UNL     1       6.736   4.680  25.203  0.00  0.00    -0.351 OA
ATOM     33  C   UNL     1       6.157   3.767  24.272  0.00  0.00    +0.257 C 
ATOM     34  O   UNL     1       4.838   3.394  24.679  0.00  0.00    -0.347 OA
ATOM     35  C   UNL     1       4.798   1.974  24.867  0.00  0.00    +0.208 C 
ENDBRANCH  27  28
ENDBRANCH  25  27
ENDBRANCH  22  23
BRANCH  22  36
ATOM     36  C   UNL     1       9.997  -1.825  22.911  0.00  0.00    +0.060 C 
BRANCH  36  37
ATOM     37  C   UNL     1      10.191  -0.330  22.889  0.00  0.00    -0.046 A 
ATOM     38  C   UNL     1      10.760   0.301  24.007  0.00  0.00    +0.004 A 
ATOM     39  C   UNL     1      10.893   1.690  24.057  0.00  0.00    +0.000 A 
ATOM     40  C   UNL     1      10.454   2.468  22.992  0.00  0.00    +0.000 A 
ATOM     41  C   UNL     1       9.877   1.855  21.879  0.00  0.00    +0.000 A 
ATOM     42  C   UNL     1       9.738   0.462  21.829  0.00  0.00    +0.004 A 
ENDBRANCH  36  37
ENDBRANCH  22  36
ENDBRANCH   1  22
TORSDOF 14
ENDMDL
MODEL 4
REMARK VINA RESULT:      -6.7      2.501      6.188
REMARK  Name = 
REMARK  16 active torsions:
REMARK  status: ('A' for Active; 'I' for Inactive)
REMARK    1  A    between atoms: C_1  and  C_2
REMARK    2  A    between atoms: C_2  and  C_3
REMARK    3  A    between atoms: C_2  and  C_4
REMARK    4  A    between atoms: C_4  and  N_5
REMARK    5  A    between atoms: N_5  and  C_6
REMARK    6  A    between atoms: N_5  and  S_34
REMARK    7  A    between atoms: C_6  and  C_7
REMARK    8  A    between atoms: C_7  and  C_9
REMARK    9  A    between atoms: C_7  and  O_33
REMARK   10  A    between atoms: C_9  and  C_11
REMARK   11  A    between atoms: C_9  and  N_18
REMARK   12  A    between atoms: C_11  and  C_12
REMARK   13  A    between atoms: C_19  and  O_21
REMARK   14  A    between atoms: O_21  and  C_22
REMARK   15  A    between atoms: S_34  and  C_37
REMARK   16  A    between atoms: C_40  and  N_43
REMARK                            x       y       z     vdW  Elec       q    Type
REMARK                         _______ _______ _______ _____ _____    ______ ____
ROOT
ATOM      1  C   UNL     1       8.668  -1.038  25.668  0.00  0.00    +0.151 C 
ENDROOT
BRANCH   1   2
ATOM      2  O   UNL     1       9.503  -0.305  26.589  0.00  0.00    -0.389 OA
ATOM      3  H   UNL     1       9.313   0.642  26.467  0.00  0.00    +0.210 HD
ENDBRANCH   1   2
BRANCH   1   4
ATOM      4  C   UNL     1       7.389  -1.515  26.356  0.00  0.00    +0.142 C 
BRANCH   4   5
ATOM      5  N   UNL     1       6.085  -1.530  25.584  0.00  0.00    -0.174 NA
BRANCH   5   6
ATOM      6  S   UNL     1       4.828  -1.785  26.879  0.00  0.00    +0.061 S 
ATOM      7  O   UNL     1       3.550  -1.593  26.231  0.00  0.00    -0.153 OA
ATOM      8  O   UNL     1       5.196  -1.000  28.037  0.00  0.00    -0.153 OA
BRANCH   6   9
ATOM      9  C   UNL     1       4.976  -3.491  27.329  0.00  0.00    +0.106 A 
ATOM     10  C   UNL     1       6.238  -4.079  27.451  0.00  0.00    +0.030 A 
ATOM     11  C   UNL     1       6.339  -5.425  27.810  0.00  0.00    +0.024 A 
ATOM     12  C   UNL     1       5.192  -6.175  28.083  0.00  0.00    +0.025 A 
ATOM     13  C   UNL     1       3.937  -5.598  27.853  0.00  0.00    +0.024 A 
ATOM     14  C   UNL     1       3.821  -4.253  27.494  0.00  0.00    +0.030 A 
BRANCH  12  15
ATOM     15  N   UNL     1       5.295  -7.542  28.358  0.00  0.00    -0.358 N 
ATOM     16  H   UNL     1       6.244  -7.852  28.547  0.00  0.00    +0.142 HD
ATOM     17  H   UNL     1       4.644  -7.865  29.068  0.00  0.00    +0.142 HD
ENDBRANCH  12  15
ENDBRANCH   6   9
ENDBRANCH   5   6
BRANCH   5  18
ATOM     18  C   UNL     1       5.711  -0.288  24.786  0.00  0.00    +0.112 C 
BRANCH  18  20
ATOM     19  C   UNL     1       6.685   2.005  24.493  0.00  0.00    +0.008 C 
ATOM     20  C   UNL     1       5.839   1.117  25.432  0.00  0.00    -0.001 C 
ATOM     21  C   UNL     1       4.523   1.890  25.593  0.00  0.00    +0.008 C 
ENDBRANCH  18  20
ENDBRANCH   5  18
ENDBRANCH   4   5
ENDBRANCH   1   4
BRANCH   1  22
ATOM     22  C   UNL     1       9.533  -2.079  24.899  0.00  0.00    +0.110 C 
BRANCH  22  23
ATOM     23  N   UNL     1       8.624  -3.177  24.484  0.00  0.00    -0.275 N 
ATOM     24  H   UNL     1       7.731  -2.930  24.078  0.00  0.00    +0.152 HD
ATOM     25  C   UNL     1       8.873  -4.509  24.578  0.00  0.00    +0.401 C 
ATOM     26  O   UNL     1       9.904  -5.020  24.980  0.00  0.00    -0.226 OA
BRANCH  25  27
ATOM     27  O   UNL     1       7.758  -5.176  24.199  0.00  0.00    -0.444 OA
BRANCH  27  28
ATOM     28  C   UNL     1       6.756  -4.415  23.507  0.00  0.00    +0.212 C 
ATOM     29  C   UNL     1       5.368  -4.752  24.020  0.00  0.00    +0.090 C 
ATOM     30  C   UNL     1       5.119  -6.221  24.322  0.00  0.00    +0.040 C 
ATOM     31  C   UNL     1       3.700  -6.431  23.848  0.00  0.00    +0.163 C 
ATOM     32  O   UNL     1       3.461  -5.491  22.800  0.00  0.00    -0.351 OA
ATOM     33  C   UNL     1       4.469  -4.482  22.834  0.00  0.00    +0.257 C 
ATOM     34  O   UNL     1       5.270  -4.523  21.651  0.00  0.00    -0.347 OA
ATOM     35  C   UNL     1       6.633  -4.761  22.027  0.00  0.00    +0.208 C 
ENDBRANCH  27  28
ENDBRANCH  25  27
ENDBRANCH  22  23
BRANCH  22  36
ATOM     36  C   UNL     1      10.261  -1.562  23.641  0.00  0.00    +0.060 C 
BRANCH  36  37
ATOM     37  C   UNL     1       9.916  -0.188  23.126  0.00  0.00    -0.046 A 
ATOM     38  C   UNL     1       8.980  -0.062  22.086  0.00  0.00    +0.004 A 
ATOM     39  C   UNL     1       8.684   1.184  21.533  0.00  0.00    +0.000 A 
ATOM     40  C   UNL     1       9.324   2.324  22.008  0.00  0.00    +0.000 A 
ATOM     41  C   UNL     1      10.263   2.213  23.034  0.00  0.00    +0.000 A 
ATOM     42  C   UNL     1      10.565   0.963  23.588  0.00  0.00    +0.004 A 
ENDBRANCH  36  37
ENDBRANCH  22  36
ENDBRANCH   1  22
TORSDOF 14
ENDMDL
MODEL 5
REMARK VINA RESULT:      -6.7      2.012      4.181
REMARK  Name = 
REMARK  16 active torsions:
REMARK  status: ('A' for Active; 'I' for Inactive)
REMARK    1  A    between atoms: C_1  and  C_2
REMARK    2  A    between atoms: C_2  and  C_3
REMARK    3  A    between atoms: C_2  and  C_4
REMARK    4  A    between atoms: C_4  and  N_5
REMARK    5  A    between atoms: N_5  and  C_6
REMARK    6  A    between atoms: N_5  and  S_34
REMARK    7  A    between atoms: C_6  and  C_7
REMARK    8  A    between atoms: C_7  and  C_9
REMARK    9  A    between atoms: C_7  and  O_33
REMARK   10  A    between atoms: C_9  and  C_11
REMARK   11  A    between atoms: C_9  and  N_18
REMARK   12  A    between atoms: C_11  and  C_12
REMARK   13  A    between atoms: C_19  and  O_21
REMARK   14  A    between atoms: O_21  and  C_22
REMARK   15  A    between atoms: S_34  and  C_37
REMARK   16  A    between atoms: C_40  and  N_43
REMARK                            x       y       z     vdW  Elec       q    Type
REMARK                         _______ _______ _______ _____ _____    ______ ____
ROOT
ATOM      1  C   UNL     1       8.697  -0.691  26.085  0.00  0.00    +0.151 C 
ENDROOT
BRANCH   1   2
ATOM      2  O   UNL     1       9.170  -0.680  27.448  0.00  0.00    -0.389 OA
ATOM      3  H   UNL     1       9.942  -1.272  27.496  0.00  0.00    +0.210 HD
ENDBRANCH   1   2
BRANCH   1   4
ATOM      4  C   UNL     1       7.180  -0.506  26.035  0.00  0.00    +0.142 C 
BRANCH   4   5
ATOM      5  N   UNL     1       6.590   0.881  26.181  0.00  0.00    -0.174 NA
BRANCH   5   6
ATOM      6  S   UNL     1       5.933   1.240  24.519  0.00  0.00    +0.061 S 
ATOM      7  O   UNL     1       4.532   1.542  24.705  0.00  0.00    -0.153 OA
ATOM      8  O   UNL     1       6.351   0.185  23.622  0.00  0.00    -0.153 OA
BRANCH   6   9
ATOM      9  C   UNL     1       6.761   2.722  24.012  0.00  0.00    +0.106 A 
ATOM     10  C   UNL     1       6.620   3.191  22.702  0.00  0.00    +0.030 A 
ATOM     11  C   UNL     1       7.276   4.363  22.318  0.00  0.00    +0.024 A 
ATOM     12  C   UNL     1       8.039   5.085  23.240  0.00  0.00    +0.025 A 
ATOM     13  C   UNL     1       8.253   4.542  24.513  0.00  0.00    +0.024 A 
ATOM     14  C   UNL     1       7.603   3.372  24.911  0.00  0.00    +0.030 A 
BRANCH  12  15
ATOM     15  N   UNL     1       8.762   6.210  22.826  0.00  0.00    -0.358 N 
ATOM     16  H   UNL     1       8.309   7.091  23.046  0.00  0.00    +0.142 HD
ATOM     17  H   UNL     1       9.734   6.199  23.120  0.00  0.00    +0.142 HD
ENDBRANCH  12  15
ENDBRANCH   6   9
ENDBRANCH   5   6
BRANCH   5  18
ATOM     18  C   UNL     1       5.472   1.082  27.195  0.00  0.00    +0.112 C 
BRANCH  18  20
ATOM     19  C   UNL     1       6.954   2.569  28.566  0.00  0.00    +0.008 C 
ATOM     20  C   UNL     1       5.493   2.313  28.139  0.00  0.00    -0.001 C 
ATOM     21  C   UNL     1       5.051   3.638  27.504  0.00  0.00    +0.008 C 
ENDBRANCH  18  20
ENDBRANCH   5  18
ENDBRANCH   4   5
ENDBRANCH   1   4
BRANCH   1  22
ATOM     22  C   UNL     1       9.325  -1.896  25.326  0.00  0.00    +0.110 C 
BRANCH  22  23
ATOM     23  N   UNL     1       8.261  -2.921  25.180  0.00  0.00    -0.275 N 
ATOM     24  H   UNL     1       7.298  -2.625  25.274  0.00  0.00    +0.152 HD
ATOM     25  C   UNL     1       8.443  -4.240  24.911  0.00  0.00    +0.401 C 
ATOM     26  O   UNL     1       9.510  -4.789  24.702  0.00  0.00    -0.226 OA
BRANCH  25  27
ATOM     27  O   UNL     1       7.237  -4.853  24.967  0.00  0.00    -0.444 OA
BRANCH  27  28
ATOM     28  C   UNL     1       6.164  -4.234  24.239  0.00  0.00    +0.212 C 
ATOM     29  C   UNL     1       4.833  -4.868  24.592  0.00  0.00    +0.090 C 
ATOM     30  C   UNL     1       4.849  -6.379  24.762  0.00  0.00    +0.040 C 
ATOM     31  C   UNL     1       3.541  -6.808  24.141  0.00  0.00    +0.163 C 
ATOM     32  O   UNL     1       3.208  -5.839  23.146  0.00  0.00    -0.351 OA
ATOM     33  C   UNL     1       3.995  -4.666  23.349  0.00  0.00    +0.257 C 
ATOM     34  O   UNL     1       4.881  -4.452  22.248  0.00  0.00    -0.347 OA
ATOM     35  C   UNL     1       6.230  -4.464  22.733  0.00  0.00    +0.208 C 
ENDBRANCH  27  28
ENDBRANCH  25  27
ENDBRANCH  22  23
BRANCH  22  36
ATOM     36  C   UNL     1       9.893  -1.596  23.924  0.00  0.00    +0.060 C 
BRANCH  36  37
ATOM     37  C   UNL     1      10.064  -0.155  23.513  0.00  0.00    -0.046 A 
ATOM     38  C   UNL     1       9.576   0.262  22.264  0.00  0.00    +0.004 A 
ATOM     39  C   UNL     1       9.775   1.568  21.815  0.00  0.00    +0.000 A 
ATOM     40  C   UNL     1      10.471   2.476  22.606  0.00  0.00    +0.000 A 
ATOM     41  C   UNL     1      10.971   2.073  23.845  0.00  0.00    +0.000 A 
ATOM     42  C   UNL     1      10.776   0.761  24.296  0.00  0.00    +0.004 A 
ENDBRANCH  36  37
ENDBRANCH  22  36
ENDBRANCH   1  22
TORSDOF 14
ENDMDL
MODEL 6
REMARK VINA RESULT:      -6.7      2.774      6.672
REMARK  Name = 
REMARK  16 active torsions:
REMARK  status: ('A' for Active; 'I' for Inactive)
REMARK    1  A    between atoms: C_1  and  C_2
REMARK    2  A    between atoms: C_2  and  C_3
REMARK    3  A    between atoms: C_2  and  C_4
REMARK    4  A    between atoms: C_4  and  N_5
REMARK    5  A    between atoms: N_5  and  C_6
REMARK    6  A    between atoms: N_5  and  S_34
REMARK    7  A    between atoms: C_6  and  C_7
REMARK    8  A    between atoms: C_7  and  C_9
REMARK    9  A    between atoms: C_7  and  O_33
REMARK   10  A    between atoms: C_9  and  C_11
REMARK   11  A    between atoms: C_9  and  N_18
REMARK   12  A    between atoms: C_11  and  C_12
REMARK   13  A    between atoms: C_19  and  O_21
REMARK   14  A    between atoms: O_21  and  C_22
REMARK   15  A    between atoms: S_34  and  C_37
REMARK   16  A    between atoms: C_40  and  N_43
REMARK                            x       y       z     vdW  Elec       q    Type
REMARK                         _______ _______ _______ _____ _____    ______ ____
ROOT
ATOM      1  C   UNL     1       7.752  -2.374  26.415  0.00  0.00    +0.151 C 
ENDROOT
BRANCH   1   2
ATOM      2  O   UNL     1       8.642  -1.305  26.801  0.00  0.00    -0.389 OA
ATOM      3  H   UNL     1       8.277  -0.476  26.443  0.00  0.00    +0.210 HD
ENDBRANCH   1   2
BRANCH   1   4
ATOM      4  C   UNL     1       8.152  -2.950  25.056  0.00  0.00    +0.142 C 
BRANCH   4   5
ATOM      5  N   UNL     1       7.819  -2.183  23.792  0.00  0.00    -0.174 NA
BRANCH   5   6
ATOM      6  S   UNL     1       9.425  -2.049  22.942  0.00  0.00    +0.061 S 
ATOM      7  O   UNL     1       9.166  -2.372  21.556  0.00  0.00    -0.153 OA
ATOM      8  O   UNL     1      10.410  -2.787  23.703  0.00  0.00    -0.153 OA
BRANCH   6   9
ATOM      9  C   UNL     1       9.855  -0.335  23.044  0.00  0.00    +0.106 A 
ATOM     10  C   UNL     1      10.437   0.175  24.209  0.00  0.00    +0.030 A 
ATOM     11  C   UNL     1      10.773   1.530  24.273  0.00  0.00    +0.024 A 
ATOM     12  C   UNL     1      10.566   2.366  23.173  0.00  0.00    +0.025 A 
ATOM     13  C   UNL     1       9.886   1.861  22.058  0.00  0.00    +0.024 A 
ATOM     14  C   UNL     1       9.545   0.509  21.980  0.00  0.00    +0.030 A 
BRANCH  12  15
ATOM     15  N   UNL     1      10.825   3.737  23.274  0.00  0.00    -0.358 N 
ATOM     16  H   UNL     1      10.067   4.268  23.692  0.00  0.00    +0.142 HD
ATOM     17  H   UNL     1      11.720   3.952  23.706  0.00  0.00    +0.142 HD
ENDBRANCH  12  15
ENDBRANCH   6   9
ENDBRANCH   5   6
BRANCH   5  18
ATOM     18  C   UNL     1       6.811  -2.795  22.828  0.00  0.00    +0.112 C 
BRANCH  18  20
ATOM     19  C   UNL     1       4.863  -4.373  22.782  0.00  0.00    +0.008 C 
ATOM     20  C   UNL     1       6.391  -4.280  22.984  0.00  0.00    -0.001 C 
ATOM     21  C   UNL     1       6.967  -5.241  21.934  0.00  0.00    +0.008 C 
ENDBRANCH  18  20
ENDBRANCH   5  18
ENDBRANCH   4   5
ENDBRANCH   1   4
BRANCH   1  22
ATOM     22  C   UNL     1       6.277  -1.925  26.628  0.00  0.00    +0.110 C 
BRANCH  22  23
ATOM     23  N   UNL     1       6.059  -0.728  25.777  0.00  0.00    -0.275 N 
ATOM     24  H   UNL     1       6.442  -0.734  24.840  0.00  0.00    +0.152 HD
ATOM     25  C   UNL     1       5.373   0.392  26.121  0.00  0.00    +0.401 C 
ATOM     26  O   UNL     1       4.785   0.580  27.172  0.00  0.00    -0.226 OA
BRANCH  25  27
ATOM     27  O   UNL     1       5.497   1.290  25.115  0.00  0.00    -0.444 OA
BRANCH  27  28
ATOM     28  C   UNL     1       6.125   2.540  25.440  0.00  0.00    +0.212 C 
ATOM     29  C   UNL     1       6.054   3.503  24.270  0.00  0.00    +0.090 C 
ATOM     30  C   UNL     1       6.278   2.886  22.898  0.00  0.00    +0.040 C 
ATOM     31  C   UNL     1       7.091   3.936  22.179  0.00  0.00    +0.163 C 
ATOM     32  O   UNL     1       7.826   4.654  23.171  0.00  0.00    -0.351 OA
ATOM     33  C   UNL     1       7.266   4.388  24.456  0.00  0.00    +0.257 C 
ATOM     34  O   UNL     1       8.200   3.691  25.284  0.00  0.00    -0.347 OA
ATOM     35  C   UNL     1       7.628   2.433  25.666  0.00  0.00    +0.208 C 
ENDBRANCH  27  28
ENDBRANCH  25  27
ENDBRANCH  22  23
BRANCH  22  36
ATOM     36  C   UNL     1       5.192  -2.963  26.277  0.00  0.00    +0.060 C 
BRANCH  36  37
ATOM     37  C   UNL     1       5.222  -4.298  26.978  0.00  0.00    -0.046 A 
ATOM     38  C   UNL     1       5.016  -5.468  26.229  0.00  0.00    +0.004 A 
ATOM     39  C   UNL     1       4.966  -6.717  26.850  0.00  0.00    +0.000 A 
ATOM     40  C   UNL     1       5.117  -6.815  28.229  0.00  0.00    +0.000 A 
ATOM     41  C   UNL     1       5.313  -5.660  28.986  0.00  0.00    +0.000 A 
ATOM     42  C   UNL     1       5.359  -4.404  28.366  0.00  0.00    +0.004 A 
ENDBRANCH  36  37
ENDBRANCH  22  36
ENDBRANCH   1  22
TORSDOF 14
ENDMDL
MODEL 7
REMARK VINA RESULT:      -6.7      2.441      5.140
REMARK  Name = 
REMARK  16 active torsions:
REMARK  status: ('A' for Active; 'I' for Inactive)
REMARK    1  A    between atoms: C_1  and  C_2
REMARK    2  A    between atoms: C_2  and  C_3
REMARK    3  A    between atoms: C_2  and  C_4
REMARK    4  A    between atoms: C_4  and  N_5
REMARK    5  A    between atoms: N_5  and  C_6
REMARK    6  A    between atoms: N_5  and  S_34
REMARK    7  A    between atoms: C_6  and  C_7
REMARK    8  A    between atoms: C_7  and  C_9
REMARK    9  A    between atoms: C_7  and  O_33
REMARK   10  A    between atoms: C_9  and  C_11
REMARK   11  A    between atoms: C_9  and  N_18
REMARK   12  A    between atoms: C_11  and  C_12
REMARK   13  A    between atoms: C_19  and  O_21
REMARK   14  A    between atoms: O_21  and  C_22
REMARK   15  A    between atoms: S_34  and  C_37
REMARK   16  A    between atoms: C_40  and  N_43
REMARK                            x       y       z     vdW  Elec       q    Type
REMARK                         _______ _______ _______ _____ _____    ______ ____
ROOT
ATOM      1  C   UNL     1       7.795  -2.233  26.245  0.00  0.00    +0.151 C 
ENDROOT
BRANCH   1   2
ATOM      2  O   UNL     1       8.828  -1.405  26.819  0.00  0.00    -0.389 OA
ATOM      3  H   UNL     1       8.905  -1.642  27.760  0.00  0.00    +0.210 HD
ENDBRANCH   1   2
BRANCH   1   4
ATOM      4  C   UNL     1       8.252  -2.825  24.910  0.00  0.00    +0.142 C 
BRANCH   4   5
ATOM      5  N   UNL     1       7.884  -2.126  23.618  0.00  0.00    -0.174 NA
BRANCH   5   6
ATOM      6  S   UNL     1       9.490  -1.890  22.790  0.00  0.00    +0.061 S 
ATOM      7  O   UNL     1       9.256  -2.161  21.389  0.00  0.00    -0.153 OA
ATOM      8  O   UNL     1      10.498  -2.621  23.527  0.00  0.00    -0.153 OA
BRANCH   6   9
ATOM      9  C   UNL     1       9.850  -0.166  22.972  0.00  0.00    +0.106 A 
ATOM     10  C   UNL     1      10.183   0.353  24.227  0.00  0.00    +0.030 A 
ATOM     11  C   UNL     1      10.467   1.715  24.354  0.00  0.00    +0.024 A 
ATOM     12  C   UNL     1      10.456   2.551  23.234  0.00  0.00    +0.025 A 
ATOM     13  C   UNL     1      10.016   2.034  22.009  0.00  0.00    +0.024 A 
ATOM     14  C   UNL     1       9.730   0.674  21.868  0.00  0.00    +0.030 A 
BRANCH  12  15
ATOM     15  N   UNL     1      10.657   3.927  23.383  0.00  0.00    -0.358 N 
ATOM     16  H   UNL     1      10.079   4.494  22.770  0.00  0.00    +0.142 HD
ATOM     17  H   UNL     1      10.610   4.244  24.347  0.00  0.00    +0.142 HD
ENDBRANCH  12  15
ENDBRANCH   6   9
ENDBRANCH   5   6
BRANCH   5  18
ATOM     18  C   UNL     1       6.946  -2.845  22.656  0.00  0.00    +0.112 C 
BRANCH  18  20
ATOM     19  C   UNL     1       4.993  -4.407  22.840  0.00  0.00    +0.008 C 
ATOM     20  C   UNL     1       6.532  -4.315  22.931  0.00  0.00    -0.001 C 
ATOM     21  C   UNL     1       7.030  -5.342  21.905  0.00  0.00    +0.008 C 
ENDBRANCH  18  20
ENDBRANCH   5  18
ENDBRANCH   4   5
ENDBRANCH   1   4
BRANCH   1  22
ATOM     22  C   UNL     1       6.435  -1.478  26.297  0.00  0.00    +0.110 C 
BRANCH  22  23
ATOM     23  N   UNL     1       5.494  -2.329  27.068  0.00  0.00    -0.275 N 
ATOM     24  H   UNL     1       5.761  -2.608  28.004  0.00  0.00    +0.152 HD
ATOM     25  C   UNL     1       4.280  -2.772  26.651  0.00  0.00    +0.401 C 
ATOM     26  O   UNL     1       3.745  -2.505  25.589  0.00  0.00    -0.226 OA
BRANCH  25  27
ATOM     27  O   UNL     1       3.786  -3.605  27.597  0.00  0.00    -0.444 OA
BRANCH  27  28
ATOM     28  C   UNL     1       3.869  -5.013  27.322  0.00  0.00    +0.212 C 
ATOM     29  C   UNL     1       4.175  -5.794  28.586  0.00  0.00    +0.090 C 
ATOM     30  C   UNL     1       5.183  -5.152  29.527  0.00  0.00    +0.040 C 
ATOM     31  C   UNL     1       5.985  -6.332  30.025  0.00  0.00    +0.163 C 
ATOM     32  O   UNL     1       5.948  -7.329  29.003  0.00  0.00    -0.351 OA
ATOM     33  C   UNL     1       4.900  -7.023  28.085  0.00  0.00    +0.257 C 
ATOM     34  O   UNL     1       5.429  -6.729  26.790  0.00  0.00    -0.347 OA
ATOM     35  C   UNL     1       5.042  -5.397  26.427  0.00  0.00    +0.208 C 
ENDBRANCH  27  28
ENDBRANCH  25  27
ENDBRANCH  22  23
BRANCH  22  36
ATOM     36  C   UNL     1       6.458  -0.081  26.949  0.00  0.00    +0.060 C 
BRANCH  36  37
ATOM     37  C   UNL     1       6.648   1.123  26.061  0.00  0.00    -0.046 A 
ATOM     38  C   UNL     1       6.404   1.001  24.683  0.00  0.00    +0.004 A 
ATOM     39  C   UNL     1       6.635   2.070  23.816  0.00  0.00    +0.000 A 
ATOM     40  C   UNL     1       7.118   3.275  24.313  0.00  0.00    +0.000 A 
ATOM     41  C   UNL     1       7.375   3.407  25.678  0.00  0.00    +0.000 A 
ATOM     42  C   UNL     1       7.148   2.334  26.550  0.00  0.00    +0.004 A 
ENDBRANCH  36  37
ENDBRANCH  22  36
ENDBRANCH   1  22
TORSDOF 14
ENDMDL
MODEL 8
REMARK VINA RESULT:      -6.5      2.813      5.395
REMARK  Name = 
REMARK  16 active torsions:
REMARK  status: ('A' for Active; 'I' for Inactive)
REMARK    1  A    between atoms: C_1  and  C_2
REMARK    2  A    between atoms: C_2  and  C_3
REMARK    3  A    between atoms: C_2  and  C_4
REMARK    4  A    between atoms: C_4  and  N_5
REMARK    5  A    between atoms: N_5  and  C_6
REMARK    6  A    between atoms: N_5  and  S_34
REMARK    7  A    between atoms: C_6  and  C_7
REMARK    8  A    between atoms: C_7  and  C_9
REMARK    9  A    between atoms: C_7  and  O_33
REMARK   10  A    between atoms: C_9  and  C_11
REMARK   11  A    between atoms: C_9  and  N_18
REMARK   12  A    between atoms: C_11  and  C_12
REMARK   13  A    between atoms: C_19  and  O_21
REMARK   14  A    between atoms: O_21  and  C_22
REMARK   15  A    between atoms: S_34  and  C_37
REMARK   16  A    between atoms: C_40  and  N_43
REMARK                            x       y       z     vdW  Elec       q    Type
REMARK                         _______ _______ _______ _____ _____    ______ ____
ROOT
ATOM      1  C   UNL     1       6.861  -5.497  26.318  0.00  0.00    +0.151 C 
ENDROOT
BRANCH   1   2
ATOM      2  O   UNL     1       7.944  -5.552  27.269  0.00  0.00    -0.389 OA
ATOM      3  H   UNL     1       8.515  -4.780  27.109  0.00  0.00    +0.210 HD
ENDBRANCH   1   2
BRANCH   1   4
ATOM      4  C   UNL     1       6.717  -4.089  25.739  0.00  0.00    +0.142 C 
BRANCH   4   5
ATOM      5  N   UNL     1       7.361  -3.758  24.408  0.00  0.00    -0.174 NA
BRANCH   5   6
ATOM      6  S   UNL     1       8.995  -3.101  24.879  0.00  0.00    +0.061 S 
ATOM      7  O   UNL     1       9.957  -4.091  24.452  0.00  0.00    -0.153 OA
ATOM      8  O   UNL     1       8.936  -2.672  26.260  0.00  0.00    -0.153 OA
BRANCH   6   9
ATOM      9  C   UNL     1       9.207  -1.651  23.885  0.00  0.00    +0.106 A 
ATOM     10  C   UNL     1       9.191  -0.385  24.477  0.00  0.00    +0.030 A 
ATOM     11  C   UNL     1       9.363   0.750  23.680  0.00  0.00    +0.024 A 
ATOM     12  C   UNL     1       9.586   0.626  22.307  0.00  0.00    +0.025 A 
ATOM     13  C   UNL     1       9.493  -0.642  21.719  0.00  0.00    +0.024 A 
ATOM     14  C   UNL     1       9.322  -1.784  22.503  0.00  0.00    +0.030 A 
BRANCH  12  15
ATOM     15  N   UNL     1       9.672   1.767  21.503  0.00  0.00    -0.358 N 
ATOM     16  H   UNL     1      10.330   2.461  21.846  0.00  0.00    +0.142 HD
ATOM     17  H   UNL     1       9.818   1.562  20.518  0.00  0.00    +0.142 HD
ENDBRANCH  12  15
ENDBRANCH   6   9
ENDBRANCH   5   6
BRANCH   5  18
ATOM     18  C   UNL     1       7.567  -4.891  23.410  0.00  0.00    +0.112 C 
BRANCH  18  20
ATOM     19  C   UNL     1       6.349  -6.026  21.534  0.00  0.00    +0.008 C 
ATOM     20  C   UNL     1       7.083  -4.730  21.945  0.00  0.00    -0.001 C 
ATOM     21  C   UNL     1       6.046  -3.623  21.711  0.00  0.00    +0.008 C 
ENDBRANCH  18  20
ENDBRANCH   5  18
ENDBRANCH   4   5
ENDBRANCH   1   4
BRANCH   1  22
ATOM     22  C   UNL     1       5.602  -6.185  26.923  0.00  0.00    +0.110 C 
BRANCH  22  23
ATOM     23  N   UNL     1       4.757  -5.111  27.504  0.00  0.00    -0.275 N 
ATOM     24  H   UNL     1       4.002  -4.742  26.941  0.00  0.00    +0.152 HD
ATOM     25  C   UNL     1       4.880  -4.570  28.743  0.00  0.00    +0.401 C 
ATOM     26  O   UNL     1       5.679  -4.909  29.598  0.00  0.00    -0.226 OA
BRANCH  25  27
ATOM     27  O   UNL     1       3.996  -3.550  28.848  0.00  0.00    -0.444 OA
BRANCH  27  28
ATOM     28  C   UNL     1       3.924  -2.641  27.738  0.00  0.00    +0.212 C 
ATOM     29  C   UNL     1       4.482  -1.281  28.114  0.00  0.00    +0.090 C 
ATOM     30  C   UNL     1       4.130  -0.790  29.510  0.00  0.00    +0.040 C 
ATOM     31  C   UNL     1       3.889   0.687  29.302  0.00  0.00    +0.163 C 
ATOM     32  O   UNL     1       3.445   0.857  27.955  0.00  0.00    -0.351 OA
ATOM     33  C   UNL     1       3.740  -0.323  27.210  0.00  0.00    +0.257 C 
ATOM     34  O   UNL     1       2.538  -0.965  26.776  0.00  0.00    -0.347 OA
ATOM     35  C   UNL     1       2.501  -2.290  27.322  0.00  0.00    +0.208 C 
ENDBRANCH  27  28
ENDBRANCH  25  27
ENDBRANCH  22  23
BRANCH  22  36
ATOM     36  C   UNL     1       4.733  -6.997  25.942  0.00  0.00    +0.060 C 
BRANCH  36  37
ATOM     37  C   UNL     1       3.599  -6.296  25.237  0.00  0.00    -0.046 A 
ATOM     38  C   UNL     1       2.288  -6.475  25.706  0.00  0.00    +0.004 A 
ATOM     39  C   UNL     1       1.203  -5.901  25.041  0.00  0.00    +0.000 A 
ATOM     40  C   UNL     1       1.413  -5.144  23.894  0.00  0.00    +0.000 A 
ATOM     41  C   UNL     1       2.710  -4.965  23.411  0.00  0.00    +0.000 A 
ATOM     42  C   UNL     1       3.800  -5.544  24.074  0.00  0.00    +0.004 A 
ENDBRANCH  36  37
ENDBRANCH  22  36
ENDBRANCH   1  22
TORSDOF 14
ENDMDL
MODEL 9
REMARK VINA RESULT:      -6.4      2.697      7.530
REMARK  Name = 
REMARK  16 active torsions:
REMARK  status: ('A' for Active; 'I' for Inactive)
REMARK    1  A    between atoms: C_1  and  C_2
REMARK    2  A    between atoms: C_2  and  C_3
REMARK    3  A    between atoms: C_2  and  C_4
REMARK    4  A    between atoms: C_4  and  N_5
REMARK    5  A    between atoms: N_5  and  C_6
REMARK    6  A    between atoms: N_5  and  S_34
REMARK    7  A    between atoms: C_6  and  C_7
REMARK    8  A    between atoms: C_7  and  C_9
REMARK    9  A    between atoms: C_7  and  O_33
REMARK   10  A    between atoms: C_9  and  C_11
REMARK   11  A    between atoms: C_9  and  N_18
REMARK   12  A    between atoms: C_11  and  C_12
REMARK   13  A    between atoms: C_19  and  O_21
REMARK   14  A    between atoms: O_21  and  C_22
REMARK   15  A    between atoms: S_34  and  C_37
REMARK   16  A    between atoms: C_40  and  N_43
REMARK                            x       y       z     vdW  Elec       q    Type
REMARK                         _______ _______ _______ _____ _____    ______ ____
ROOT
ATOM      1  C   UNL     1       9.216  -3.832  25.034  0.00  0.00    +0.151 C 
ENDROOT
BRANCH   1   2
ATOM      2  O   UNL     1       9.852  -5.034  24.551  0.00  0.00    -0.389 OA
ATOM      3  H   UNL     1      10.133  -4.869  23.634  0.00  0.00    +0.210 HD
ENDBRANCH   1   2
BRANCH   1   4
ATOM      4  C   UNL     1       8.021  -4.171  25.926  0.00  0.00    +0.142 C 
BRANCH   4   5
ATOM      5  N   UNL     1       7.041  -5.240  25.489  0.00  0.00    -0.174 NA
BRANCH   5   6
ATOM      6  S   UNL     1       6.069  -5.568  26.995  0.00  0.00    +0.061 S 
ATOM      7  O   UNL     1       6.941  -5.248  28.104  0.00  0.00    -0.153 OA
ATOM      8  O   UNL     1       5.470  -6.879  26.878  0.00  0.00    -0.153 OA
BRANCH   6   9
ATOM      9  C   UNL     1       4.755  -4.381  26.958  0.00  0.00    +0.106 A 
ATOM     10  C   UNL     1       5.009  -3.042  27.267  0.00  0.00    +0.030 A 
ATOM     11  C   UNL     1       3.962  -2.117  27.230  0.00  0.00    +0.024 A 
ATOM     12  C   UNL     1       2.676  -2.514  26.853  0.00  0.00    +0.025 A 
ATOM     13  C   UNL     1       2.421  -3.876  26.653  0.00  0.00    +0.024 A 
ATOM     14  C   UNL     1       3.458  -4.811  26.685  0.00  0.00    +0.030 A 
BRANCH  12  15
ATOM     15  N   UNL     1       1.617  -1.602  26.902  0.00  0.00    -0.358 N 
ATOM     16  H   UNL     1       1.265  -1.334  25.987  0.00  0.00    +0.142 HD
ATOM     17  H   UNL     1       0.868  -1.881  27.528  0.00  0.00    +0.142 HD
ENDBRANCH  12  15
ENDBRANCH   6   9
ENDBRANCH   5   6
BRANCH   5  18
ATOM     18  C   UNL     1       6.077  -4.908  24.356  0.00  0.00    +0.112 C 
BRANCH  18  20
ATOM     19  C   UNL     1       4.099  -5.791  23.093  0.00  0.00    +0.008 C 
ATOM     20  C   UNL     1       5.595  -6.027  23.396  0.00  0.00    -0.001 C 
ATOM     21  C   UNL     1       6.260  -6.039  22.012  0.00  0.00    +0.008 C 
ENDBRANCH  18  20
ENDBRANCH   5  18
ENDBRANCH   4   5
ENDBRANCH   1   4
BRANCH   1  22
ATOM     22  C   UNL     1       9.004  -2.844  23.850  0.00  0.00    +0.110 C 
BRANCH  22  23
ATOM     23  N   UNL     1       8.088  -1.780  24.330  0.00  0.00    -0.275 N 
ATOM     24  H   UNL     1       8.351  -1.262  25.159  0.00  0.00    +0.152 HD
ATOM     25  C   UNL     1       6.915  -1.407  23.756  0.00  0.00    +0.401 C 
ATOM     26  O   UNL     1       6.445  -1.856  22.726  0.00  0.00    -0.226 OA
BRANCH  25  27
ATOM     27  O   UNL     1       6.329  -0.483  24.554  0.00  0.00    -0.444 OA
BRANCH  27  28
ATOM     28  C   UNL     1       6.910   0.830  24.556  0.00  0.00    +0.212 C 
ATOM     29  C   UNL     1       7.499   1.160  25.914  0.00  0.00    +0.090 C 
ATOM     30  C   UNL     1       6.684   0.699  27.113  0.00  0.00    +0.040 C 
ATOM     31  C   UNL     1       6.838   1.840  28.090  0.00  0.00    +0.163 C 
ATOM     32  O   UNL     1       7.052   3.027  27.325  0.00  0.00    -0.351 OA
ATOM     33  C   UNL     1       7.409   2.668  25.991  0.00  0.00    +0.257 C 
ATOM     34  O   UNL     1       6.410   3.100  25.064  0.00  0.00    -0.347 OA
ATOM     35  C   UNL     1       5.895   1.953  24.376  0.00  0.00    +0.208 C 
ENDBRANCH  27  28
ENDBRANCH  25  27
ENDBRANCH  22  23
BRANCH  22  36
ATOM     36  C   UNL     1      10.274  -2.166  23.296  0.00  0.00    +0.060 C 
BRANCH  36  37
ATOM     37  C   UNL     1      10.261  -0.671  23.099  0.00  0.00    -0.046 A 
ATOM     38  C   UNL     1      10.669   0.161  24.154  0.00  0.00    +0.004 A 
ATOM     39  C   UNL     1      10.607   1.551  24.038  0.00  0.00    +0.000 A 
ATOM     40  C   UNL     1      10.130   2.129  22.867  0.00  0.00    +0.000 A 
ATOM     41  C   UNL     1       9.712   1.315  21.814  0.00  0.00    +0.000 A 
ATOM     42  C   UNL     1       9.770  -0.080  21.930  0.00  0.00    +0.004 A 
ENDBRANCH  36  37
ENDBRANCH  22  36
ENDBRANCH   1  22
TORSDOF 14
ENDMDL
