MODEL 1
REMARK VINA RESULT:      -6.8      0.000      0.000
REMARK  Name = 
REMARK  16 active torsions:
REMARK  status: ('A' for Active; 'I' for Inactive)
REMARK    1  A    between atoms: C_1  and  C_2
REMARK    2  A    between atoms: C_2  and  C_3
REMARK    3  A    between atoms: C_2  and  C_4
REMARK    4  A    between atoms: C_4  and  N_5
REMARK    5  A    between atoms: N_5  and  C_6
REMARK    6  A    between atoms: N_5  and  S_28
REMARK    7  A    between atoms: C_6  and  C_7
REMARK    8  A    between atoms: C_7  and  C_8
REMARK    9  A    between atoms: C_7  and  O_27
REMARK   10  A    between atoms: C_8  and  C_10
REMARK   11  A    between atoms: C_8  and  N_17
REMARK   12  A    between atoms: C_10  and  C_11
REMARK   13  A    between atoms: C_18  and  O_20
REMARK   14  A    between atoms: O_20  and  C_21
REMARK   15  A    between atoms: S_28  and  C_31
REMARK   16  A    between atoms: C_34  and  N_37
REMARK                            x       y       z     vdW  Elec       q    Type
REMARK                         _______ _______ _______ _____ _____    ______ ____
ROOT
ATOM      1  C   UNL     1       8.919  -4.664  25.606  0.00  0.00    +0.151 C 
ENDROOT
BRANCH   1   2
ATOM      2  O   UNL     1       9.850  -5.758  25.609  0.00  0.00    -0.389 OA
ATOM      3  H   UNL     1      10.753  -5.412  25.694  0.00  0.00    +0.210 HD
ENDBRANCH   1   2
BRANCH   1   4
ATOM      4  C   UNL     1       9.214  -3.741  24.417  0.00  0.00    +0.142 C 
BRANCH   4   5
ATOM      5  N   UNL     1       9.052  -2.217  24.510  0.00  0.00    -0.174 NA
BRANCH   5   6
ATOM      6  S   UNL     1       9.557  -1.689  22.854  0.00  0.00    +0.061 S 
ATOM      7  O   UNL     1       8.438  -1.962  21.978  0.00  0.00    -0.153 OA
ATOM      8  O   UNL     1      10.865  -2.254  22.574  0.00  0.00    -0.153 OA
BRANCH   6   9
ATOM      9  C   UNL     1       9.810   0.062  22.888  0.00  0.00    +0.106 A 
ATOM     10  C   UNL     1      10.568   0.624  23.920  0.00  0.00    +0.030 A 
ATOM     11  C   UNL     1      10.636   2.012  24.050  0.00  0.00    +0.024 A 
ATOM     12  C   UNL     1       9.984   2.845  23.137  0.00  0.00    +0.025 A 
ATOM     13  C   UNL     1       9.129   2.268  22.191  0.00  0.00    +0.024 A 
ATOM     14  C   UNL     1       9.046   0.880  22.054  0.00  0.00    +0.030 A 
BRANCH  12  15
ATOM     15  N   UNL     1       9.998   4.233  23.320  0.00  0.00    -0.358 N 
ATOM     16  H   UNL     1      10.176   4.750  22.464  0.00  0.00    +0.142 HD
ATOM     17  H   UNL     1       9.176   4.580  23.806  0.00  0.00    +0.142 HD
ENDBRANCH  12  15
ENDBRANCH   6   9
ENDBRANCH   5   6
BRANCH   5  18
ATOM     18  C   UNL     1       7.657  -1.681  24.833  0.00  0.00    +0.112 C 
BRANCH  18  20
ATOM     19  C   UNL     1       8.720  -0.709  26.972  0.00  0.00    +0.008 C 
ATOM     20  C   UNL     1       7.511  -0.714  26.039  0.00  0.00    -0.001 C 
ATOM     21  C   UNL     1       7.275   0.747  25.586  0.00  0.00    +0.008 C 
ENDBRANCH  18  20
ENDBRANCH   5  18
ENDBRANCH   4   5
ENDBRANCH   1   4
BRANCH   1  22
ATOM     22  C   UNL     1       7.439  -5.239  25.586  0.00  0.00    +0.110 C 
BRANCH  22  23
ATOM     23  N   UNL     1       6.618  -4.706  26.691  0.00  0.00    -0.275 N 
ATOM     24  H   UNL     1       5.987  -3.939  26.500  0.00  0.00    +0.152 HD
ATOM     25  C   UNL     1       6.469  -5.271  27.922  0.00  0.00    +0.401 C 
ATOM     26  O   UNL     1       7.092  -6.253  28.311  0.00  0.00    -0.226 OA
BRANCH  25  27
ATOM     27  O   UNL     1       5.516  -4.636  28.641  0.00  0.00    -0.445 OA
BRANCH  27  28
ATOM     28  C   UNL     1       4.362  -4.222  27.884  0.00  0.00    +0.206 C 
ATOM     29  C   UNL     1       3.616  -3.074  28.565  0.00  0.00    +0.204 C 
ATOM     30  O   UNL     1       2.206  -3.276  28.363  0.00  0.00    -0.376 OA
ATOM     31  C   UNL     1       2.038  -4.461  27.576  0.00  0.00    +0.163 C 
ATOM     32  C   UNL     1       3.284  -5.283  27.792  0.00  0.00    +0.075 C 
ENDBRANCH  27  28
ENDBRANCH  25  27
ENDBRANCH  22  23
BRANCH  22  33
ATOM     33  C   UNL     1       6.769  -5.216  24.169  0.00  0.00    +0.060 C 
BRANCH  33  34
ATOM     34  C   UNL     1       5.296  -5.602  24.121  0.00  0.00    -0.046 A 
ATOM     35  C   UNL     1       4.358  -4.722  23.546  0.00  0.00    +0.004 A 
ATOM     36  C   UNL     1       3.014  -5.080  23.421  0.00  0.00    +0.000 A 
ATOM     37  C   UNL     1       2.579  -6.314  23.887  0.00  0.00    +0.000 A 
ATOM     38  C   UNL     1       3.482  -7.167  24.528  0.00  0.00    +0.000 A 
ATOM     39  C   UNL     1       4.830  -6.807  24.655  0.00  0.00    +0.004 A 
ENDBRANCH  33  34
ENDBRANCH  22  33
ENDBRANCH   1  22
TORSDOF 14
ENDMDL
MODEL 2
REMARK VINA RESULT:      -6.7      2.315      3.580
REMARK  Name = 
REMARK  16 active torsions:
REMARK  status: ('A' for Active; 'I' for Inactive)
REMARK    1  A    between atoms: C_1  and  C_2
REMARK    2  A    between atoms: C_2  and  C_3
REMARK    3  A    between atoms: C_2  and  C_4
REMARK    4  A    between atoms: C_4  and  N_5
REMARK    5  A    between atoms: N_5  and  C_6
REMARK    6  A    between atoms: N_5  and  S_28
REMARK    7  A    between atoms: C_6  and  C_7
REMARK    8  A    between atoms: C_7  and  C_8
REMARK    9  A    between atoms: C_7  and  O_27
REMARK   10  A    between atoms: C_8  and  C_10
REMARK   11  A    between atoms: C_8  and  N_17
REMARK   12  A    between atoms: C_10  and  C_11
REMARK   13  A    between atoms: C_18  and  O_20
REMARK   14  A    between atoms: O_20  and  C_21
REMARK   15  A    between atoms: S_28  and  C_31
REMARK   16  A    between atoms: C_34  and  N_37
REMARK                            x       y       z     vdW  Elec       q    Type
REMARK                         _______ _______ _______ _____ _____    ______ ____
ROOT
ATOM      1  C   UNL     1       9.930  -1.798  23.564  0.00  0.00    +0.151 C 
ENDROOT
BRANCH   1   2
ATOM      2  O   UNL     1      10.928  -2.056  22.564  0.00  0.00    -0.389 OA
ATOM      3  H   UNL     1      10.493  -2.346  21.744  0.00  0.00    +0.210 HD
ENDBRANCH   1   2
BRANCH   1   4
ATOM      4  C   UNL     1       9.309  -0.416  23.329  0.00  0.00    +0.142 C 
BRANCH   4   5
ATOM      5  N   UNL     1       9.544   0.756  24.293  0.00  0.00    -0.174 NA
BRANCH   5   6
ATOM      6  S   UNL     1       9.980   2.092  23.152  0.00  0.00    +0.061 S 
ATOM      7  O   UNL     1      10.192   1.476  21.860  0.00  0.00    -0.153 OA
ATOM      8  O   UNL     1      11.026   2.893  23.765  0.00  0.00    -0.153 OA
BRANCH   6   9
ATOM      9  C   UNL     1       8.588   3.177  23.018  0.00  0.00    +0.106 A 
ATOM     10  C   UNL     1       7.498   2.797  22.230  0.00  0.00    +0.030 A 
ATOM     11  C   UNL     1       6.471   3.710  21.985  0.00  0.00    +0.024 A 
ATOM     12  C   UNL     1       6.506   4.988  22.549  0.00  0.00    +0.025 A 
ATOM     13  C   UNL     1       7.661   5.393  23.228  0.00  0.00    +0.024 A 
ATOM     14  C   UNL     1       8.699   4.491  23.475  0.00  0.00    +0.030 A 
BRANCH  12  15
ATOM     15  N   UNL     1       5.509   5.920  22.236  0.00  0.00    -0.358 N 
ATOM     16  H   UNL     1       5.655   6.826  22.672  0.00  0.00    +0.142 HD
ATOM     17  H   UNL     1       5.341   6.004  21.238  0.00  0.00    +0.142 HD
ENDBRANCH  12  15
ENDBRANCH   6   9
ENDBRANCH   5   6
BRANCH   5  18
ATOM     18  C   UNL     1       8.370   1.180  25.177  0.00  0.00    +0.112 C 
BRANCH  18  20
ATOM     19  C   UNL     1       7.018  -0.646  26.398  0.00  0.00    +0.008 C 
ATOM     20  C   UNL     1       7.106   0.278  25.185  0.00  0.00    -0.001 C 
ATOM     21  C   UNL     1       5.800   1.109  25.147  0.00  0.00    +0.008 C 
ENDBRANCH  18  20
ENDBRANCH   5  18
ENDBRANCH   4   5
ENDBRANCH   1   4
BRANCH   1  22
ATOM     22  C   UNL     1       8.854  -2.967  23.541  0.00  0.00    +0.110 C 
BRANCH  22  23
ATOM     23  N   UNL     1       8.610  -3.530  24.884  0.00  0.00    -0.275 N 
ATOM     24  H   UNL     1       8.074  -2.987  25.547  0.00  0.00    +0.152 HD
ATOM     25  C   UNL     1       8.867  -4.810  25.274  0.00  0.00    +0.401 C 
ATOM     26  O   UNL     1       9.442  -5.640  24.579  0.00  0.00    -0.226 OA
BRANCH  25  27
ATOM     27  O   UNL     1       8.370  -5.056  26.507  0.00  0.00    -0.445 OA
BRANCH  27  28
ATOM     28  C   UNL     1       6.935  -4.963  26.610  0.00  0.00    +0.206 C 
ATOM     29  C   UNL     1       6.447  -5.251  28.030  0.00  0.00    +0.204 C 
ATOM     30  O   UNL     1       5.210  -5.980  27.936  0.00  0.00    -0.376 OA
ATOM     31  C   UNL     1       4.892  -6.134  26.548  0.00  0.00    +0.163 C 
ATOM     32  C   UNL     1       6.200  -6.016  25.807  0.00  0.00    +0.075 C 
ENDBRANCH  27  28
ENDBRANCH  25  27
ENDBRANCH  22  23
BRANCH  22  33
ATOM     33  C   UNL     1       7.573  -2.633  22.701  0.00  0.00    +0.060 C 
BRANCH  33  34
ATOM     34  C   UNL     1       6.513  -3.725  22.638  0.00  0.00    -0.046 A 
ATOM     35  C   UNL     1       6.817  -4.966  22.046  0.00  0.00    +0.004 A 
ATOM     36  C   UNL     1       5.890  -6.011  22.041  0.00  0.00    +0.000 A 
ATOM     37  C   UNL     1       4.636  -5.828  22.610  0.00  0.00    +0.000 A 
ATOM     38  C   UNL     1       4.292  -4.579  23.135  0.00  0.00    +0.000 A 
ATOM     39  C   UNL     1       5.222  -3.530  23.138  0.00  0.00    +0.004 A 
ENDBRANCH  33  34
ENDBRANCH  22  33
ENDBRANCH   1  22
TORSDOF 14
ENDMDL
MODEL 3
REMARK VINA RESULT:      -6.7      2.386      3.817
REMARK  Name = 
REMARK  16 active torsions:
REMARK  status: ('A' for Active; 'I' for Inactive)
REMARK    1  A    between atoms: C_1  and  C_2
REMARK    2  A    between atoms: C_2  and  C_3
REMARK    3  A    between atoms: C_2  and  C_4
REMARK    4  A    between atoms: C_4  and  N_5
REMARK    5  A    between atoms: N_5  and  C_6
REMARK    6  A    between atoms: N_5  and  S_28
REMARK    7  A    between atoms: C_6  and  C_7
REMARK    8  A    between atoms: C_7  and  C_8
REMARK    9  A    between atoms: C_7  and  O_27
REMARK   10  A    between atoms: C_8  and  C_10
REMARK   11  A    between atoms: C_8  and  N_17
REMARK   12  A    between atoms: C_10  and  C_11
REMARK   13  A    between atoms: C_18  and  O_20
REMARK   14  A    between atoms: O_20  and  C_21
REMARK   15  A    between atoms: S_28  and  C_31
REMARK   16  A    between atoms: C_34  and  N_37
REMARK                            x       y       z     vdW  Elec       q    Type
REMARK                         _______ _______ _______ _____ _____    ______ ____
ROOT
ATOM      1  C   UNL     1       9.827  -2.149  24.078  0.00  0.00    +0.151 C 
ENDROOT
BRANCH   1   2
ATOM      2  O   UNL     1      10.329  -1.617  22.842  0.00  0.00    -0.389 OA
ATOM      3  H   UNL     1       9.930  -0.746  22.681  0.00  0.00    +0.210 HD
ENDBRANCH   1   2
BRANCH   1   4
ATOM      4  C   UNL     1       9.139  -1.035  24.876  0.00  0.00    +0.142 C 
BRANCH   4   5
ATOM      5  N   UNL     1       8.863   0.349  24.270  0.00  0.00    -0.174 NA
BRANCH   5   6
ATOM      6  S   UNL     1       7.202   0.702  24.896  0.00  0.00    +0.061 S 
ATOM      7  O   UNL     1       7.340   0.939  26.317  0.00  0.00    -0.153 OA
ATOM      8  O   UNL     1       6.301  -0.327  24.407  0.00  0.00    -0.153 OA
BRANCH   6   9
ATOM      9  C   UNL     1       6.638   2.202  24.144  0.00  0.00    +0.106 A 
ATOM     10  C   UNL     1       6.400   2.229  22.767  0.00  0.00    +0.030 A 
ATOM     11  C   UNL     1       6.116   3.443  22.139  0.00  0.00    +0.024 A 
ATOM     12  C   UNL     1       6.032   4.625  22.880  0.00  0.00    +0.025 A 
ATOM     13  C   UNL     1       6.397   4.600  24.231  0.00  0.00    +0.024 A 
ATOM     14  C   UNL     1       6.690   3.392  24.871  0.00  0.00    +0.030 A 
BRANCH  12  15
ATOM     15  N   UNL     1       5.820   5.847  22.230  0.00  0.00    -0.358 N 
ATOM     16  H   UNL     1       6.613   6.148  21.672  0.00  0.00    +0.142 HD
ATOM     17  H   UNL     1       4.955   5.871  21.699  0.00  0.00    +0.142 HD
ENDBRANCH  12  15
ENDBRANCH   6   9
ENDBRANCH   5   6
BRANCH   5  18
ATOM     18  C   UNL     1       9.820   1.480  24.647  0.00  0.00    +0.112 C 
BRANCH  18  20
ATOM     19  C   UNL     1      10.021   1.857  22.103  0.00  0.00    +0.008 C 
ATOM     20  C   UNL     1      10.469   2.295  23.496  0.00  0.00    -0.001 C 
ATOM     21  C   UNL     1      10.173   3.809  23.618  0.00  0.00    +0.008 C 
ENDBRANCH  18  20
ENDBRANCH   5  18
ENDBRANCH   4   5
ENDBRANCH   1   4
BRANCH   1  22
ATOM     22  C   UNL     1       8.859  -3.369  23.765  0.00  0.00    +0.110 C 
BRANCH  22  23
ATOM     23  N   UNL     1       8.374  -4.026  24.995  0.00  0.00    -0.275 N 
ATOM     24  H   UNL     1       7.643  -3.576  25.529  0.00  0.00    +0.152 HD
ATOM     25  C   UNL     1       8.670  -5.295  25.395  0.00  0.00    +0.401 C 
ATOM     26  O   UNL     1       9.476  -6.026  24.830  0.00  0.00    -0.226 OA
BRANCH  25  27
ATOM     27  O   UNL     1       7.930  -5.656  26.468  0.00  0.00    -0.445 OA
BRANCH  27  28
ATOM     28  C   UNL     1       6.577  -5.160  26.464  0.00  0.00    +0.206 C 
ATOM     29  C   UNL     1       6.161  -4.631  27.837  0.00  0.00    +0.204 C 
ATOM     30  O   UNL     1       4.781  -4.975  28.049  0.00  0.00    -0.376 OA
ATOM     31  C   UNL     1       4.312  -5.658  26.880  0.00  0.00    +0.163 C 
ATOM     32  C   UNL     1       5.537  -6.234  26.216  0.00  0.00    +0.075 C 
ENDBRANCH  27  28
ENDBRANCH  25  27
ENDBRANCH  22  23
BRANCH  22  33
ATOM     33  C   UNL     1       7.766  -3.052  22.687  0.00  0.00    +0.060 C 
BRANCH  33  34
ATOM     34  C   UNL     1       6.543  -3.960  22.690  0.00  0.00    -0.046 A 
ATOM     35  C   UNL     1       6.626  -5.251  22.132  0.00  0.00    +0.004 A 
ATOM     36  C   UNL     1       5.544  -6.132  22.186  0.00  0.00    +0.000 A 
ATOM     37  C   UNL     1       4.354  -5.733  22.781  0.00  0.00    +0.000 A 
ATOM     38  C   UNL     1       4.231  -4.430  23.273  0.00  0.00    +0.000 A 
ATOM     39  C   UNL     1       5.316  -3.545  23.216  0.00  0.00    +0.004 A 
ENDBRANCH  33  34
ENDBRANCH  22  33
ENDBRANCH   1  22
TORSDOF 14
ENDMDL
MODEL 4
REMARK VINA RESULT:      -6.6      2.337      3.627
REMARK  Name = 
REMARK  16 active torsions:
REMARK  status: ('A' for Active; 'I' for Inactive)
REMARK    1  A    between atoms: C_1  and  C_2
REMARK    2  A    between atoms: C_2  and  C_3
REMARK    3  A    between atoms: C_2  and  C_4
REMARK    4  A    between atoms: C_4  and  N_5
REMARK    5  A    between atoms: N_5  and  C_6
REMARK    6  A    between atoms: N_5  and  S_28
REMARK    7  A    between atoms: C_6  and  C_7
REMARK    8  A    between atoms: C_7  and  C_8
REMARK    9  A    between atoms: C_7  and  O_27
REMARK   10  A    between atoms: C_8  and  C_10
REMARK   11  A    between atoms: C_8  and  N_17
REMARK   12  A    between atoms: C_10  and  C_11
REMARK   13  A    between atoms: C_18  and  O_20
REMARK   14  A    between atoms: O_20  and  C_21
REMARK   15  A    between atoms: S_28  and  C_31
REMARK   16  A    between atoms: C_34  and  N_37
REMARK                            x       y       z     vdW  Elec       q    Type
REMARK                         _______ _______ _______ _____ _____    ______ ____
ROOT
ATOM      1  C   UNL     1       9.500  -1.130  23.449  0.00  0.00    +0.151 C 
ENDROOT
BRANCH   1   2
ATOM      2  O   UNL     1      10.607  -1.118  22.534  0.00  0.00    -0.389 OA
ATOM      3  H   UNL     1      11.255  -0.453  22.822  0.00  0.00    +0.210 HD
ENDBRANCH   1   2
BRANCH   1   4
ATOM      4  C   UNL     1       8.572   0.053  23.150  0.00  0.00    +0.142 C 
BRANCH   4   5
ATOM      5  N   UNL     1       8.332   1.177  24.169  0.00  0.00    -0.174 NA
BRANCH   5   6
ATOM      6  S   UNL     1       8.239   2.633  23.099  0.00  0.00    +0.061 S 
ATOM      7  O   UNL     1       7.013   3.320  23.446  0.00  0.00    -0.153 OA
ATOM      8  O   UNL     1       8.483   2.210  21.731  0.00  0.00    -0.153 OA
BRANCH   6   9
ATOM      9  C   UNL     1       9.594   3.699  23.500  0.00  0.00    +0.106 A 
ATOM     10  C   UNL     1       9.345   5.043  23.791  0.00  0.00    +0.030 A 
ATOM     11  C   UNL     1      10.415   5.926  23.946  0.00  0.00    +0.024 A 
ATOM     12  C   UNL     1      11.732   5.471  23.849  0.00  0.00    +0.025 A 
ATOM     13  C   UNL     1      11.961   4.155  23.433  0.00  0.00    +0.024 A 
ATOM     14  C   UNL     1      10.899   3.261  23.268  0.00  0.00    +0.030 A 
BRANCH  12  15
ATOM     15  N   UNL     1      12.795   6.379  23.932  0.00  0.00    -0.358 N 
ATOM     16  H   UNL     1      13.685   5.984  23.643  0.00  0.00    +0.142 HD
ATOM     17  H   UNL     1      12.604   7.261  23.465  0.00  0.00    +0.142 HD
ENDBRANCH  12  15
ENDBRANCH   6   9
ENDBRANCH   5   6
BRANCH   5  18
ATOM     18  C   UNL     1       7.077   1.078  25.037  0.00  0.00    +0.112 C 
BRANCH  18  20
ATOM     19  C   UNL     1       6.822  -0.020  27.357  0.00  0.00    +0.008 C 
ATOM     20  C   UNL     1       6.853  -0.229  25.844  0.00  0.00    -0.001 C 
ATOM     21  C   UNL     1       5.533  -0.935  25.451  0.00  0.00    +0.008 C 
ENDBRANCH  18  20
ENDBRANCH   5  18
ENDBRANCH   4   5
ENDBRANCH   1   4
BRANCH   1  22
ATOM     22  C   UNL     1       8.759  -2.532  23.352  0.00  0.00    +0.110 C 
BRANCH  22  23
ATOM     23  N   UNL     1       8.388  -3.061  24.680  0.00  0.00    -0.275 N 
ATOM     24  H   UNL     1       7.672  -2.583  25.209  0.00  0.00    +0.152 HD
ATOM     25  C   UNL     1       8.773  -4.261  25.200  0.00  0.00    +0.401 C 
ATOM     26  O   UNL     1       9.577  -5.018  24.666  0.00  0.00    -0.226 OA
BRANCH  25  27
ATOM     27  O   UNL     1       8.123  -4.525  26.355  0.00  0.00    -0.445 OA
BRANCH  27  28
ATOM     28  C   UNL     1       6.686  -4.501  26.260  0.00  0.00    +0.206 C 
ATOM     29  C   UNL     1       6.038  -3.994  27.549  0.00  0.00    +0.204 C 
ATOM     30  O   UNL     1       4.832  -4.745  27.768  0.00  0.00    -0.376 OA
ATOM     31  C   UNL     1       4.680  -5.665  26.681  0.00  0.00    +0.163 C 
ATOM     32  C   UNL     1       6.064  -5.876  26.120  0.00  0.00    +0.075 C 
ENDBRANCH  27  28
ENDBRANCH  25  27
ENDBRANCH  22  23
BRANCH  22  33
ATOM     33  C   UNL     1       7.634  -2.581  22.262  0.00  0.00    +0.060 C 
BRANCH  33  34
ATOM     34  C   UNL     1       6.623  -3.713  22.396  0.00  0.00    -0.046 A 
ATOM     35  C   UNL     1       6.982  -5.022  22.022  0.00  0.00    +0.004 A 
ATOM     36  C   UNL     1       6.102  -6.092  22.204  0.00  0.00    +0.000 A 
ATOM     37  C   UNL     1       4.842  -5.869  22.744  0.00  0.00    +0.000 A 
ATOM     38  C   UNL     1       4.444  -4.565  23.052  0.00  0.00    +0.000 A 
ATOM     39  C   UNL     1       5.326  -3.491  22.867  0.00  0.00    +0.004 A 
ENDBRANCH  33  34
ENDBRANCH  22  33
ENDBRANCH   1  22
TORSDOF 14
ENDMDL
MODEL 5
REMARK VINA RESULT:      -6.6      2.357      4.848
REMARK  Name = 
REMARK  16 active torsions:
REMARK  status: ('A' for Active; 'I' for Inactive)
REMARK    1  A    between atoms: C_1  and  C_2
REMARK    2  A    between atoms: C_2  and  C_3
REMARK    3  A    between atoms: C_2  and  C_4
REMARK    4  A    between atoms: C_4  and  N_5
REMARK    5  A    between atoms: N_5  and  C_6
REMARK    6  A    between atoms: N_5  and  S_28
REMARK    7  A    between atoms: C_6  and  C_7
REMARK    8  A    between atoms: C_7  and  C_8
REMARK    9  A    between atoms: C_7  and  O_27
REMARK   10  A    between atoms: C_8  and  C_10
REMARK   11  A    between atoms: C_8  and  N_17
REMARK   12  A    between atoms: C_10  and  C_11
REMARK   13  A    between atoms: C_18  and  O_20
REMARK   14  A    between atoms: O_20  and  C_21
REMARK   15  A    between atoms: S_28  and  C_31
REMARK   16  A    between atoms: C_34  and  N_37
REMARK                            x       y       z     vdW  Elec       q    Type
REMARK                         _______ _______ _______ _____ _____    ______ ____
ROOT
ATOM      1  C   UNL     1      10.019  -1.754  23.560  0.00  0.00    +0.151 C 
ENDROOT
BRANCH   1   2
ATOM      2  O   UNL     1      10.326  -1.350  22.216  0.00  0.00    -0.389 OA
ATOM      3  H   UNL     1      10.719  -2.099  21.738  0.00  0.00    +0.210 HD
ENDBRANCH   1   2
BRANCH   1   4
ATOM      4  C   UNL     1       9.468  -0.557  24.345  0.00  0.00    +0.142 C 
BRANCH   4   5
ATOM      5  N   UNL     1       7.968  -0.228  24.380  0.00  0.00    -0.174 NA
BRANCH   5   6
ATOM      6  S   UNL     1       7.669  -0.058  26.157  0.00  0.00    +0.061 S 
ATOM      7  O   UNL     1       7.689   1.361  26.443  0.00  0.00    -0.153 OA
ATOM      8  O   UNL     1       8.563  -0.962  26.859  0.00  0.00    -0.153 OA
BRANCH   6   9
ATOM      9  C   UNL     1       6.040  -0.661  26.500  0.00  0.00    +0.106 A 
ATOM     10  C   UNL     1       5.533  -0.558  27.798  0.00  0.00    +0.030 A 
ATOM     11  C   UNL     1       4.322  -1.176  28.118  0.00  0.00    +0.024 A 
ATOM     12  C   UNL     1       3.596  -1.865  27.142  0.00  0.00    +0.025 A 
ATOM     13  C   UNL     1       4.178  -2.064  25.885  0.00  0.00    +0.024 A 
ATOM     14  C   UNL     1       5.393  -1.457  25.554  0.00  0.00    +0.030 A 
BRANCH  12  15
ATOM     15  N   UNL     1       2.422  -2.542  27.490  0.00  0.00    -0.358 N 
ATOM     16  H   UNL     1       1.594  -1.954  27.458  0.00  0.00    +0.142 HD
ATOM     17  H   UNL     1       2.291  -3.406  26.972  0.00  0.00    +0.142 HD
ENDBRANCH  12  15
ENDBRANCH   6   9
ENDBRANCH   5   6
BRANCH   5  18
ATOM     18  C   UNL     1       7.512   1.033  23.645  0.00  0.00    +0.112 C 
BRANCH  18  20
ATOM     19  C   UNL     1       8.609   1.632  21.388  0.00  0.00    +0.008 C 
ATOM     20  C   UNL     1       8.588   1.866  22.898  0.00  0.00    -0.001 C 
ATOM     21  C   UNL     1       8.404   3.387  23.123  0.00  0.00    +0.008 C 
ENDBRANCH  18  20
ENDBRANCH   5  18
ENDBRANCH   4   5
ENDBRANCH   1   4
BRANCH   1  22
ATOM     22  C   UNL     1       9.008  -2.979  23.517  0.00  0.00    +0.110 C 
BRANCH  22  23
ATOM     23  N   UNL     1       8.585  -3.401  24.867  0.00  0.00    -0.275 N 
ATOM     24  H   UNL     1       7.834  -2.897  25.319  0.00  0.00    +0.152 HD
ATOM     25  C   UNL     1       8.969  -4.541  25.507  0.00  0.00    +0.401 C 
ATOM     26  O   UNL     1       9.813  -5.321  25.079  0.00  0.00    -0.226 OA
BRANCH  25  27
ATOM     27  O   UNL     1       8.270  -4.722  26.650  0.00  0.00    -0.445 OA
BRANCH  27  28
ATOM     28  C   UNL     1       6.842  -4.590  26.513  0.00  0.00    +0.206 C 
ATOM     29  C   UNL     1       6.147  -4.476  27.871  0.00  0.00    +0.204 C 
ATOM     30  O   UNL     1       4.901  -5.191  27.796  0.00  0.00    -0.376 OA
ATOM     31  C   UNL     1       4.771  -5.714  26.469  0.00  0.00    +0.163 C 
ATOM     32  C   UNL     1       6.173  -5.815  25.923  0.00  0.00    +0.075 C 
ENDBRANCH  27  28
ENDBRANCH  25  27
ENDBRANCH  22  23
BRANCH  22  33
ATOM     33  C   UNL     1       7.859  -2.817  22.464  0.00  0.00    +0.060 C 
BRANCH  33  34
ATOM     34  C   UNL     1       6.803  -3.915  22.453  0.00  0.00    -0.046 A 
ATOM     35  C   UNL     1       7.160  -5.228  22.086  0.00  0.00    +0.004 A 
ATOM     36  C   UNL     1       6.231  -6.270  22.139  0.00  0.00    +0.000 A 
ATOM     37  C   UNL     1       4.926  -6.016  22.540  0.00  0.00    +0.000 A 
ATOM     38  C   UNL     1       4.537  -4.706  22.836  0.00  0.00    +0.000 A 
ATOM     39  C   UNL     1       5.468  -3.660  22.781  0.00  0.00    +0.004 A 
ENDBRANCH  33  34
ENDBRANCH  22  33
ENDBRANCH   1  22
TORSDOF 14
ENDMDL
MODEL 6
REMARK VINA RESULT:      -6.6      2.617      3.872
REMARK  Name = 
REMARK  16 active torsions:
REMARK  status: ('A' for Active; 'I' for Inactive)
REMARK    1  A    between atoms: C_1  and  C_2
REMARK    2  A    between atoms: C_2  and  C_3
REMARK    3  A    between atoms: C_2  and  C_4
REMARK    4  A    between atoms: C_4  and  N_5
REMARK    5  A    between atoms: N_5  and  C_6
REMARK    6  A    between atoms: N_5  and  S_28
REMARK    7  A    between atoms: C_6  and  C_7
REMARK    8  A    between atoms: C_7  and  C_8
REMARK    9  A    between atoms: C_7  and  O_27
REMARK   10  A    between atoms: C_8  and  C_10
REMARK   11  A    between atoms: C_8  and  N_17
REMARK   12  A    between atoms: C_10  and  C_11
REMARK   13  A    between atoms: C_18  and  O_20
REMARK   14  A    between atoms: O_20  and  C_21
REMARK   15  A    between atoms: S_28  and  C_31
REMARK   16  A    between atoms: C_34  and  N_37
REMARK                            x       y       z     vdW  Elec       q    Type
REMARK                         _______ _______ _______ _____ _____    ______ ____
ROOT
ATOM      1  C   UNL     1       7.010  -1.973  25.802  0.00  0.00    +0.151 C 
ENDROOT
BRANCH   1   2
ATOM      2  O   UNL     1       6.288  -1.792  27.031  0.00  0.00    -0.389 OA
ATOM      3  H   UNL     1       6.865  -2.020  27.779  0.00  0.00    +0.210 HD
ENDBRANCH   1   2
BRANCH   1   4
ATOM      4  C   UNL     1       8.120  -0.920  25.698  0.00  0.00    +0.142 C 
BRANCH   4   5
ATOM      5  N   UNL     1       8.126   0.151  24.597  0.00  0.00    -0.174 NA
BRANCH   5   6
ATOM      6  S   UNL     1       6.966   1.371  25.262  0.00  0.00    +0.061 S 
ATOM      7  O   UNL     1       7.477   1.759  26.558  0.00  0.00    -0.153 OA
ATOM      8  O   UNL     1       5.620   0.841  25.130  0.00  0.00    -0.153 OA
BRANCH   6   9
ATOM      9  C   UNL     1       7.004   2.795  24.211  0.00  0.00    +0.106 A 
ATOM     10  C   UNL     1       6.543   2.687  22.896  0.00  0.00    +0.030 A 
ATOM     11  C   UNL     1       6.719   3.754  22.012  0.00  0.00    +0.024 A 
ATOM     12  C   UNL     1       7.321   4.940  22.440  0.00  0.00    +0.025 A 
ATOM     13  C   UNL     1       7.889   4.983  23.718  0.00  0.00    +0.024 A 
ATOM     14  C   UNL     1       7.725   3.921  24.612  0.00  0.00    +0.030 A 
BRANCH  12  15
ATOM     15  N   UNL     1       7.560   5.974  21.527  0.00  0.00    -0.358 N 
ATOM     16  H   UNL     1       7.193   5.783  20.599  0.00  0.00    +0.142 HD
ATOM     17  H   UNL     1       7.266   6.884  21.869  0.00  0.00    +0.142 HD
ENDBRANCH  12  15
ENDBRANCH   6   9
ENDBRANCH   5   6
BRANCH   5  18
ATOM     18  C   UNL     1       9.465   0.816  24.276  0.00  0.00    +0.112 C 
BRANCH  18  20
ATOM     19  C   UNL     1       9.050  -0.022  21.872  0.00  0.00    +0.008 C 
ATOM     20  C   UNL     1       9.982   0.738  22.814  0.00  0.00    -0.001 C 
ATOM     21  C   UNL     1      10.206   2.142  22.203  0.00  0.00    +0.008 C 
ENDBRANCH  18  20
ENDBRANCH   5  18
ENDBRANCH   4   5
ENDBRANCH   1   4
BRANCH   1  22
ATOM     22  C   UNL     1       7.564  -3.460  25.737  0.00  0.00    +0.110 C 
BRANCH  22  23
ATOM     23  N   UNL     1       6.537  -4.455  26.102  0.00  0.00    -0.275 N 
ATOM     24  H   UNL     1       5.649  -4.434  25.620  0.00  0.00    +0.152 HD
ATOM     25  C   UNL     1       6.727  -5.547  26.896  0.00  0.00    +0.401 C 
ATOM     26  O   UNL     1       7.764  -5.784  27.505  0.00  0.00    -0.226 OA
BRANCH  25  27
ATOM     27  O   UNL     1       5.640  -6.351  26.891  0.00  0.00    -0.445 OA
BRANCH  27  28
ATOM     28  C   UNL     1       4.638  -6.008  25.914  0.00  0.00    +0.206 C 
ATOM     29  C   UNL     1       3.225  -6.105  26.491  0.00  0.00    +0.204 C 
ATOM     30  O   UNL     1       2.358  -6.618  25.463  0.00  0.00    -0.376 OA
ATOM     31  C   UNL     1       3.143  -6.816  24.282  0.00  0.00    +0.163 C 
ATOM     32  C   UNL     1       4.567  -6.977  24.751  0.00  0.00    +0.075 C 
ENDBRANCH  27  28
ENDBRANCH  25  27
ENDBRANCH  22  23
BRANCH  22  33
ATOM     33  C   UNL     1       8.385  -3.774  24.439  0.00  0.00    +0.060 C 
BRANCH  33  34
ATOM     34  C   UNL     1       7.595  -4.360  23.275  0.00  0.00    -0.046 A 
ATOM     35  C   UNL     1       6.774  -3.525  22.494  0.00  0.00    +0.004 A 
ATOM     36  C   UNL     1       6.096  -4.019  21.377  0.00  0.00    +0.000 A 
ATOM     37  C   UNL     1       6.212  -5.359  21.032  0.00  0.00    +0.000 A 
ATOM     38  C   UNL     1       6.964  -6.217  21.840  0.00  0.00    +0.000 A 
ATOM     39  C   UNL     1       7.642  -5.722  22.963  0.00  0.00    +0.004 A 
ENDBRANCH  33  34
ENDBRANCH  22  33
ENDBRANCH   1  22
TORSDOF 14
ENDMDL
MODEL 7
REMARK VINA RESULT:      -6.6      3.206      6.288
REMARK  Name = 
REMARK  16 active torsions:
REMARK  status: ('A' for Active; 'I' for Inactive)
REMARK    1  A    between atoms: C_1  and  C_2
REMARK    2  A    between atoms: C_2  and  C_3
REMARK    3  A    between atoms: C_2  and  C_4
REMARK    4  A    between atoms: C_4  and  N_5
REMARK    5  A    between atoms: N_5  and  C_6
REMARK    6  A    between atoms: N_5  and  S_28
REMARK    7  A    between atoms: C_6  and  C_7
REMARK    8  A    between atoms: C_7  and  C_8
REMARK    9  A    between atoms: C_7  and  O_27
REMARK   10  A    between atoms: C_8  and  C_10
REMARK   11  A    between atoms: C_8  and  N_17
REMARK   12  A    between atoms: C_10  and  C_11
REMARK   13  A    between atoms: C_18  and  O_20
REMARK   14  A    between atoms: O_20  and  C_21
REMARK   15  A    between atoms: S_28  and  C_31
REMARK   16  A    between atoms: C_34  and  N_37
REMARK                            x       y       z     vdW  Elec       q    Type
REMARK                         _______ _______ _______ _____ _____    ______ ____
ROOT
ATOM      1  C   UNL     1       7.824  -1.176  26.863  0.00  0.00    +0.151 C 
ENDROOT
BRANCH   1   2
ATOM      2  O   UNL     1       8.862  -0.419  27.505  0.00  0.00    -0.389 OA
ATOM      3  H   UNL     1       8.688  -0.381  28.461  0.00  0.00    +0.210 HD
ENDBRANCH   1   2
BRANCH   1   4
ATOM      4  C   UNL     1       6.491  -0.429  26.984  0.00  0.00    +0.142 C 
BRANCH   4   5
ATOM      5  N   UNL     1       6.396   0.972  27.608  0.00  0.00    -0.174 NA
BRANCH   5   6
ATOM      6  S   UNL     1       5.272   1.811  26.464  0.00  0.00    +0.061 S 
ATOM      7  O   UNL     1       4.351   2.573  27.279  0.00  0.00    -0.153 OA
ATOM      8  O   UNL     1       4.776   0.833  25.512  0.00  0.00    -0.153 OA
BRANCH   6   9
ATOM      9  C   UNL     1       6.221   2.953  25.500  0.00  0.00    +0.106 A 
ATOM     10  C   UNL     1       5.881   3.165  24.161  0.00  0.00    +0.030 A 
ATOM     11  C   UNL     1       6.718   3.933  23.349  0.00  0.00    +0.024 A 
ATOM     12  C   UNL     1       7.872   4.521  23.872  0.00  0.00    +0.025 A 
ATOM     13  C   UNL     1       8.263   4.195  25.176  0.00  0.00    +0.024 A 
ATOM     14  C   UNL     1       7.438   3.422  25.998  0.00  0.00    +0.030 A 
BRANCH  12  15
ATOM     15  N   UNL     1       8.742   5.227  23.032  0.00  0.00    -0.358 N 
ATOM     16  H   UNL     1       9.576   5.561  23.506  0.00  0.00    +0.142 HD
ATOM     17  H   UNL     1       8.969   4.723  22.179  0.00  0.00    +0.142 HD
ENDBRANCH  12  15
ENDBRANCH   6   9
ENDBRANCH   5   6
BRANCH   5  18
ATOM     18  C   UNL     1       5.861   1.064  29.038  0.00  0.00    +0.112 C 
BRANCH  18  20
ATOM     19  C   UNL     1       8.036   1.357  30.393  0.00  0.00    +0.008 C 
ATOM     20  C   UNL     1       6.657   1.923  30.056  0.00  0.00    -0.001 C 
ATOM     21  C   UNL     1       6.867   3.372  29.555  0.00  0.00    +0.008 C 
ENDBRANCH  18  20
ENDBRANCH   5  18
ENDBRANCH   4   5
ENDBRANCH   1   4
BRANCH   1  22
ATOM     22  C   UNL     1       8.239  -1.455  25.355  0.00  0.00    +0.110 C 
BRANCH  22  23
ATOM     23  N   UNL     1       8.128  -2.883  25.000  0.00  0.00    -0.275 N 
ATOM     24  H   UNL     1       7.243  -3.350  25.142  0.00  0.00    +0.152 HD
ATOM     25  C   UNL     1       9.048  -3.609  24.305  0.00  0.00    +0.401 C 
ATOM     26  O   UNL     1      10.151  -3.189  23.974  0.00  0.00    -0.226 OA
BRANCH  25  27
ATOM     27  O   UNL     1       8.571  -4.835  23.991  0.00  0.00    -0.445 OA
BRANCH  27  28
ATOM     28  C   UNL     1       7.345  -4.831  23.234  0.00  0.00    +0.206 C 
ATOM     29  C   UNL     1       6.189  -5.453  24.019  0.00  0.00    +0.204 C 
ATOM     30  O   UNL     1       5.373  -6.196  23.097  0.00  0.00    -0.376 OA
ATOM     31  C   UNL     1       5.936  -6.048  21.789  0.00  0.00    +0.163 C 
ATOM     32  C   UNL     1       7.391  -5.708  22.000  0.00  0.00    +0.075 C 
ENDBRANCH  27  28
ENDBRANCH  25  27
ENDBRANCH  22  23
BRANCH  22  33
ATOM     33  C   UNL     1       7.614  -0.448  24.329  0.00  0.00    +0.060 C 
BRANCH  33  34
ATOM     34  C   UNL     1       8.589   0.510  23.655  0.00  0.00    -0.046 A 
ATOM     35  C   UNL     1       9.700   0.997  24.369  0.00  0.00    +0.004 A 
ATOM     36  C   UNL     1      10.651   1.816  23.755  0.00  0.00    +0.000 A 
ATOM     37  C   UNL     1      10.496   2.179  22.423  0.00  0.00    +0.000 A 
ATOM     38  C   UNL     1       9.360   1.764  21.722  0.00  0.00    +0.000 A 
ATOM     39  C   UNL     1       8.406   0.944  22.339  0.00  0.00    +0.004 A 
ENDBRANCH  33  34
ENDBRANCH  22  33
ENDBRANCH   1  22
TORSDOF 14
ENDMDL
MODEL 8
REMARK VINA RESULT:      -6.5      1.724      4.620
REMARK  Name = 
REMARK  16 active torsions:
REMARK  status: ('A' for Active; 'I' for Inactive)
REMARK    1  A    between atoms: C_1  and  C_2
REMARK    2  A    between atoms: C_2  and  C_3
REMARK    3  A    between atoms: C_2  and  C_4
REMARK    4  A    between atoms: C_4  and  N_5
REMARK    5  A    between atoms: N_5  and  C_6
REMARK    6  A    between atoms: N_5  and  S_28
REMARK    7  A    between atoms: C_6  and  C_7
REMARK    8  A    between atoms: C_7  and  C_8
REMARK    9  A    between atoms: C_7  and  O_27
REMARK   10  A    between atoms: C_8  and  C_10
REMARK   11  A    between atoms: C_8  and  N_17
REMARK   12  A    between atoms: C_10  and  C_11
REMARK   13  A    between atoms: C_18  and  O_20
REMARK   14  A    between atoms: O_20  and  C_21
REMARK   15  A    between atoms: S_28  and  C_31
REMARK   16  A    between atoms: C_34  and  N_37
REMARK                            x       y       z     vdW  Elec       q    Type
REMARK                         _______ _______ _______ _____ _____    ______ ____
ROOT
ATOM      1  C   UNL     1       8.172  -2.773  26.354  0.00  0.00    +0.151 C 
ENDROOT
BRANCH   1   2
ATOM      2  O   UNL     1       7.929  -3.989  27.079  0.00  0.00    -0.389 OA
ATOM      3  H   UNL     1       8.455  -4.706  26.689  0.00  0.00    +0.210 HD
ENDBRANCH   1   2
BRANCH   1   4
ATOM      4  C   UNL     1       8.646  -3.106  24.934  0.00  0.00    +0.142 C 
BRANCH   4   5
ATOM      5  N   UNL     1       7.989  -2.489  23.691  0.00  0.00    -0.174 NA
BRANCH   5   6
ATOM      6  S   UNL     1       9.432  -2.001  22.713  0.00  0.00    +0.061 S 
ATOM      7  O   UNL     1       9.080  -2.214  21.326  0.00  0.00    -0.153 OA
ATOM      8  O   UNL     1      10.606  -2.642  23.281  0.00  0.00    -0.153 OA
BRANCH   6   9
ATOM      9  C   UNL     1       9.696  -0.266  22.950  0.00  0.00    +0.106 A 
ATOM     10  C   UNL     1       9.606   0.595  21.853  0.00  0.00    +0.030 A 
ATOM     11  C   UNL     1       9.972   1.935  21.995  0.00  0.00    +0.024 A 
ATOM     12  C   UNL     1      10.393   2.430  23.232  0.00  0.00    +0.025 A 
ATOM     13  C   UNL     1      10.597   1.529  24.284  0.00  0.00    +0.024 A 
ATOM     14  C   UNL     1      10.240   0.184  24.153  0.00  0.00    +0.030 A 
BRANCH  12  15
ATOM     15  N   UNL     1      10.828   3.756  23.345  0.00  0.00    -0.358 N 
ATOM     16  H   UNL     1      11.302   3.950  24.222  0.00  0.00    +0.142 HD
ATOM     17  H   UNL     1      11.372   4.066  22.546  0.00  0.00    +0.142 HD
ENDBRANCH  12  15
ENDBRANCH   6   9
ENDBRANCH   5   6
BRANCH   5  18
ATOM     18  C   UNL     1       7.072  -3.391  22.864  0.00  0.00    +0.112 C 
BRANCH  18  20
ATOM     19  C   UNL     1       5.889  -5.408  23.952  0.00  0.00    +0.008 C 
ATOM     20  C   UNL     1       7.097  -4.915  23.158  0.00  0.00    -0.001 C 
ATOM     21  C   UNL     1       7.165  -5.755  21.859  0.00  0.00    +0.008 C 
ENDBRANCH  18  20
ENDBRANCH   5  18
ENDBRANCH   4   5
ENDBRANCH   1   4
BRANCH   1  22
ATOM     22  C   UNL     1       6.856  -1.884  26.370  0.00  0.00    +0.110 C 
BRANCH  22  23
ATOM     23  N   UNL     1       5.693  -2.617  26.906  0.00  0.00    -0.275 N 
ATOM     24  H   UNL     1       5.711  -2.915  27.872  0.00  0.00    +0.152 HD
ATOM     25  C   UNL     1       4.489  -2.771  26.287  0.00  0.00    +0.401 C 
ATOM     26  O   UNL     1       4.250  -2.405  25.141  0.00  0.00    -0.226 OA
BRANCH  25  27
ATOM     27  O   UNL     1       3.582  -3.339  27.113  0.00  0.00    -0.445 OA
BRANCH  27  28
ATOM     28  C   UNL     1       3.716  -4.765  27.269  0.00  0.00    +0.206 C 
ATOM     29  C   UNL     1       2.816  -5.531  26.297  0.00  0.00    +0.204 C 
ATOM     30  O   UNL     1       2.312  -6.694  26.978  0.00  0.00    -0.376 OA
ATOM     31  C   UNL     1       2.866  -6.707  28.299  0.00  0.00    +0.163 C 
ATOM     32  C   UNL     1       3.232  -5.278  28.610  0.00  0.00    +0.075 C 
ENDBRANCH  27  28
ENDBRANCH  25  27
ENDBRANCH  22  23
BRANCH  22  33
ATOM     33  C   UNL     1       7.073  -0.440  26.942  0.00  0.00    +0.060 C 
BRANCH  33  34
ATOM     34  C   UNL     1       6.969   0.699  25.935  0.00  0.00    -0.046 A 
ATOM     35  C   UNL     1       7.393   1.993  26.294  0.00  0.00    +0.004 A 
ATOM     36  C   UNL     1       7.379   3.040  25.369  0.00  0.00    +0.000 A 
ATOM     37  C   UNL     1       6.923   2.817  24.076  0.00  0.00    +0.000 A 
ATOM     38  C   UNL     1       6.431   1.556  23.726  0.00  0.00    +0.000 A 
ATOM     39  C   UNL     1       6.442   0.507  24.655  0.00  0.00    +0.004 A 
ENDBRANCH  33  34
ENDBRANCH  22  33
ENDBRANCH   1  22
TORSDOF 14
ENDMDL
MODEL 9
REMARK VINA RESULT:      -6.5      1.749      2.599
REMARK  Name = 
REMARK  16 active torsions:
REMARK  status: ('A' for Active; 'I' for Inactive)
REMARK    1  A    between atoms: C_1  and  C_2
REMARK    2  A    between atoms: C_2  and  C_3
REMARK    3  A    between atoms: C_2  and  C_4
REMARK    4  A    between atoms: C_4  and  N_5
REMARK    5  A    between atoms: N_5  and  C_6
REMARK    6  A    between atoms: N_5  and  S_28
REMARK    7  A    between atoms: C_6  and  C_7
REMARK    8  A    between atoms: C_7  and  C_8
REMARK    9  A    between atoms: C_7  and  O_27
REMARK   10  A    between atoms: C_8  and  C_10
REMARK   11  A    between atoms: C_8  and  N_17
REMARK   12  A    between atoms: C_10  and  C_11
REMARK   13  A    between atoms: C_18  and  O_20
REMARK   14  A    between atoms: O_20  and  C_21
REMARK   15  A    between atoms: S_28  and  C_31
REMARK   16  A    between atoms: C_34  and  N_37
REMARK                            x       y       z     vdW  Elec       q    Type
REMARK                         _______ _______ _______ _____ _____    ______ ____
ROOT
ATOM      1  C   UNL     1       9.146  -4.866  25.936  0.00  0.00    +0.151 C 
ENDROOT
BRANCH   1   2
ATOM      2  O   UNL     1       9.942  -5.331  24.834  0.00  0.00    -0.389 OA
ATOM      3  H   UNL     1       9.382  -5.408  24.044  0.00  0.00    +0.210 HD
ENDBRANCH   1   2
BRANCH   1   4
ATOM      4  C   UNL     1       9.278  -3.343  26.061  0.00  0.00    +0.142 C 
BRANCH   4   5
ATOM      5  N   UNL     1       8.753  -2.389  24.978  0.00  0.00    -0.174 NA
BRANCH   5   6
ATOM      6  S   UNL     1       7.997  -1.080  25.973  0.00  0.00    +0.061 S 
ATOM      7  O   UNL     1       8.915  -0.806  27.057  0.00  0.00    -0.153 OA
ATOM      8  O   UNL     1       6.621  -1.456  26.252  0.00  0.00    -0.153 OA
BRANCH   6   9
ATOM      9  C   UNL     1       7.883   0.375  24.972  0.00  0.00    +0.106 A 
ATOM     10  C   UNL     1       6.877   0.464  24.007  0.00  0.00    +0.030 A 
ATOM     11  C   UNL     1       6.877   1.529  23.104  0.00  0.00    +0.024 A 
ATOM     12  C   UNL     1       7.854   2.525  23.181  0.00  0.00    +0.025 A 
ATOM     13  C   UNL     1       8.922   2.354  24.068  0.00  0.00    +0.024 A 
ATOM     14  C   UNL     1       8.938   1.289  24.973  0.00  0.00    +0.030 A 
BRANCH  12  15
ATOM     15  N   UNL     1       7.888   3.548  22.225  0.00  0.00    -0.358 N 
ATOM     16  H   UNL     1       8.689   4.166  22.326  0.00  0.00    +0.142 HD
ATOM     17  H   UNL     1       7.793   3.208  21.273  0.00  0.00    +0.142 HD
ENDBRANCH  12  15
ENDBRANCH   6   9
ENDBRANCH   5   6
BRANCH   5  18
ATOM     18  C   UNL     1       9.780  -1.793  24.014  0.00  0.00    +0.112 C 
BRANCH  18  20
ATOM     19  C   UNL     1       8.090  -2.398  22.161  0.00  0.00    +0.008 C 
ATOM     20  C   UNL     1       9.499  -1.909  22.492  0.00  0.00    -0.001 C 
ATOM     21  C   UNL     1       9.699  -0.560  21.760  0.00  0.00    +0.008 C 
ENDBRANCH  18  20
ENDBRANCH   5  18
ENDBRANCH   4   5
ENDBRANCH   1   4
BRANCH   1  22
ATOM     22  C   UNL     1       7.644  -5.338  25.730  0.00  0.00    +0.110 C 
BRANCH  22  23
ATOM     23  N   UNL     1       6.718  -4.687  26.678  0.00  0.00    -0.275 N 
ATOM     24  H   UNL     1       6.161  -3.908  26.354  0.00  0.00    +0.152 HD
ATOM     25  C   UNL     1       6.381  -5.152  27.914  0.00  0.00    +0.401 C 
ATOM     26  O   UNL     1       6.893  -6.130  28.446  0.00  0.00    -0.226 OA
BRANCH  25  27
ATOM     27  O   UNL     1       5.380  -4.421  28.455  0.00  0.00    -0.445 OA
BRANCH  27  28
ATOM     28  C   UNL     1       4.383  -3.971  27.518  0.00  0.00    +0.206 C 
ATOM     29  C   UNL     1       3.735  -2.660  27.962  0.00  0.00    +0.204 C 
ATOM     30  O   UNL     1       2.340  -2.710  27.611  0.00  0.00    -0.376 OA
ATOM     31  C   UNL     1       2.095  -3.959  26.953  0.00  0.00    +0.163 C 
ATOM     32  C   UNL     1       3.185  -4.893  27.417  0.00  0.00    +0.075 C 
ENDBRANCH  27  28
ENDBRANCH  25  27
ENDBRANCH  22  23
BRANCH  22  33
ATOM     33  C   UNL     1       7.184  -5.352  24.231  0.00  0.00    +0.060 C 
BRANCH  33  34
ATOM     34  C   UNL     1       5.679  -5.390  23.996  0.00  0.00    -0.046 A 
ATOM     35  C   UNL     1       4.982  -6.609  24.109  0.00  0.00    +0.004 A 
ATOM     36  C   UNL     1       3.593  -6.661  23.972  0.00  0.00    +0.000 A 
ATOM     37  C   UNL     1       2.878  -5.501  23.700  0.00  0.00    +0.000 A 
ATOM     38  C   UNL     1       3.563  -4.297  23.511  0.00  0.00    +0.000 A 
ATOM     39  C   UNL     1       4.957  -4.245  23.646  0.00  0.00    +0.004 A 
ENDBRANCH  33  34
ENDBRANCH  22  33
ENDBRANCH   1  22
TORSDOF 14
ENDMDL
