MODEL 1
REMARK VINA RESULT:      -5.6      0.000      0.000
REMARK  Name = 
REMARK  4 active torsions:
REMARK  status: ('A' for Active; 'I' for Inactive)
REMARK    1  A    between atoms: C_2  and  N_8
REMARK    2  A    between atoms: C_4  and  C_6
REMARK    3  A    between atoms: C_6  and  O_7
REMARK    4  A    between atoms: C_11  and  N_15
REMARK                            x       y       z     vdW  Elec       q    Type
REMARK                         _______ _______ _______ _____ _____    ______ ____
ROOT
ATOM      1  N   UNL     1       8.621  -2.573  23.191  0.00  0.00    -0.232 N 
ATOM      2  C   UNL     1       8.916  -3.707  23.927  0.00  0.00    +0.397 C 
ATOM      3  O   UNL     1       9.990  -3.907  24.485  0.00  0.00    -0.224 OA
ATOM      4  N   UNL     1       7.922  -4.638  24.048  0.00  0.00    -0.156 N 
ATOM      5  H   UNL     1       8.151  -5.427  24.636  0.00  0.00    +0.303 HD
ATOM      6  C   UNL     1       6.725  -4.635  23.408  0.00  0.00    +0.295 C 
ATOM      7  C   UNL     1       6.498  -3.653  22.526  0.00  0.00    +0.202 C 
ATOM      8  F   UNL     1       5.318  -3.623  21.862  0.00  0.00    -0.200 F 
ATOM      9  C   UNL     1       7.509  -2.603  22.235  0.00  0.00    +0.188 C 
ENDROOT
BRANCH   1  14
ATOM     10  C   UNL     1      10.193  -0.691  24.019  0.00  0.00    +0.123 C 
ATOM     11  S   UNL     1       8.969   0.628  24.070  0.00  0.00    -0.123 S 
ATOM     12  C   UNL     1       8.491   0.313  22.352  0.00  0.00    +0.203 C 
ATOM     13  O   UNL     1       9.282  -0.768  21.824  0.00  0.00    -0.342 OA
ATOM     14  C   UNL     1       9.698  -1.626  22.903  0.00  0.00    +0.223 C 
BRANCH  12  15
ATOM     15  C   UNL     1       8.693   1.564  21.485  0.00  0.00    +0.198 C 
BRANCH  15  16
ATOM     16  O   UNL     1      10.052   2.013  21.485  0.00  0.00    -0.392 OA
ATOM     17  H   UNL     1      10.031   2.952  21.222  0.00  0.00    +0.210 HD
ENDBRANCH  15  16
ENDBRANCH  12  15
ENDBRANCH   1  14
BRANCH   6  18
ATOM     18  N   UNL     1       5.821  -5.639  23.663  0.00  0.00    -0.249 N 
ATOM     19  H   UNL     1       5.444  -5.597  24.603  0.00  0.00    +0.288 HD
ATOM     20  H   UNL     1       5.087  -5.681  22.957  0.00  0.00    +0.288 HD
ENDBRANCH   6  18
TORSDOF 4
ENDMDL
MODEL 2
REMARK VINA RESULT:      -5.5      2.166      3.163
REMARK  Name = 
REMARK  4 active torsions:
REMARK  status: ('A' for Active; 'I' for Inactive)
REMARK    1  A    between atoms: C_2  and  N_8
REMARK    2  A    between atoms: C_4  and  C_6
REMARK    3  A    between atoms: C_6  and  O_7
REMARK    4  A    between atoms: C_11  and  N_15
REMARK                            x       y       z     vdW  Elec       q    Type
REMARK                         _______ _______ _______ _____ _____    ______ ____
ROOT
ATOM      1  N   UNL     1       7.329  -4.743  24.581  0.00  0.00    -0.232 N 
ATOM      2  C   UNL     1       6.425  -5.291  25.473  0.00  0.00    +0.397 C 
ATOM      3  O   UNL     1       6.523  -5.210  26.693  0.00  0.00    -0.224 OA
ATOM      4  N   UNL     1       5.345  -5.936  24.936  0.00  0.00    -0.156 N 
ATOM      5  H   UNL     1       4.677  -6.277  25.612  0.00  0.00    +0.303 HD
ATOM      6  C   UNL     1       5.139  -6.219  23.624  0.00  0.00    +0.295 C 
ATOM      7  C   UNL     1       6.105  -5.882  22.760  0.00  0.00    +0.202 C 
ATOM      8  F   UNL     1       5.937  -6.158  21.445  0.00  0.00    -0.200 F 
ATOM      9  C   UNL     1       7.368  -5.234  23.199  0.00  0.00    +0.188 C 
ENDROOT
BRANCH   1  14
ATOM     10  C   UNL     1       8.513  -2.984  26.066  0.00  0.00    +0.123 C 
ATOM     11  S   UNL     1       8.256  -1.563  24.992  0.00  0.00    -0.123 S 
ATOM     12  C   UNL     1       8.986  -2.438  23.584  0.00  0.00    +0.203 C 
ATOM     13  O   UNL     1       9.391  -3.757  23.997  0.00  0.00    -0.342 OA
ATOM     14  C   UNL     1       8.575  -4.182  25.104  0.00  0.00    +0.223 C 
BRANCH  12  15
ATOM     15  C   UNL     1      10.202  -1.680  23.033  0.00  0.00    +0.198 C 
BRANCH  15  16
ATOM     16  O   UNL     1      10.233  -1.665  21.602  0.00  0.00    -0.392 OA
ATOM     17  H   UNL     1      10.723  -0.863  21.346  0.00  0.00    +0.210 HD
ENDBRANCH  15  16
ENDBRANCH  12  15
ENDBRANCH   1  14
BRANCH   6  18
ATOM     18  N   UNL     1       3.981  -6.857  23.246  0.00  0.00    -0.249 N 
ATOM     19  H   UNL     1       3.153  -6.442  23.660  0.00  0.00    +0.288 HD
ATOM     20  H   UNL     1       3.903  -6.938  22.233  0.00  0.00    +0.288 HD
ENDBRANCH   6  18
TORSDOF 4
ENDMDL
MODEL 3
REMARK VINA RESULT:      -5.4      2.700      3.070
REMARK  Name = 
REMARK  4 active torsions:
REMARK  status: ('A' for Active; 'I' for Inactive)
REMARK    1  A    between atoms: C_2  and  N_8
REMARK    2  A    between atoms: C_4  and  C_6
REMARK    3  A    between atoms: C_6  and  O_7
REMARK    4  A    between atoms: C_11  and  N_15
REMARK                            x       y       z     vdW  Elec       q    Type
REMARK                         _______ _______ _______ _____ _____    ______ ____
ROOT
ATOM      1  N   UNL     1       8.224  -3.607  24.945  0.00  0.00    -0.232 N 
ATOM      2  C   UNL     1       9.091  -4.613  25.331  0.00  0.00    +0.397 C 
ATOM      3  O   UNL     1      10.187  -4.814  24.821  0.00  0.00    -0.224 OA
ATOM      4  N   UNL     1       8.687  -5.406  26.370  0.00  0.00    -0.156 N 
ATOM      5  H   UNL     1       9.364  -6.096  26.663  0.00  0.00    +0.303 HD
ATOM      6  C   UNL     1       7.469  -5.402  26.969  0.00  0.00    +0.295 C 
ATOM      7  C   UNL     1       6.538  -4.576  26.472  0.00  0.00    +0.202 C 
ATOM      8  F   UNL     1       5.309  -4.552  27.039  0.00  0.00    -0.200 F 
ATOM      9  C   UNL     1       6.805  -3.699  25.302  0.00  0.00    +0.188 C 
ENDROOT
BRANCH   1  14
ATOM     10  C   UNL     1       9.907  -2.138  23.636  0.00  0.00    +0.123 C 
ATOM     11  S   UNL     1       9.720  -0.640  24.618  0.00  0.00    -0.123 S 
ATOM     12  C   UNL     1       7.923  -0.664  24.394  0.00  0.00    +0.203 C 
ATOM     13  O   UNL     1       7.554  -1.798  23.586  0.00  0.00    -0.342 OA
ATOM     14  C   UNL     1       8.541  -2.836  23.742  0.00  0.00    +0.223 C 
BRANCH  12  15
ATOM     15  C   UNL     1       7.434   0.625  23.718  0.00  0.00    +0.198 C 
BRANCH  15  16
ATOM     16  O   UNL     1       6.420   0.375  22.738  0.00  0.00    -0.392 OA
ATOM     17  H   UNL     1       6.864  -0.066  21.990  0.00  0.00    +0.210 HD
ENDBRANCH  15  16
ENDBRANCH  12  15
ENDBRANCH   1  14
BRANCH   6  18
ATOM     18  N   UNL     1       7.233  -6.252  28.023  0.00  0.00    -0.249 N 
ATOM     19  H   UNL     1       7.768  -6.008  28.849  0.00  0.00    +0.288 HD
ATOM     20  H   UNL     1       6.238  -6.344  28.225  0.00  0.00    +0.288 HD
ENDBRANCH   6  18
TORSDOF 4
ENDMDL
MODEL 4
REMARK VINA RESULT:      -5.4      3.305      5.300
REMARK  Name = 
REMARK  4 active torsions:
REMARK  status: ('A' for Active; 'I' for Inactive)
REMARK    1  A    between atoms: C_2  and  N_8
REMARK    2  A    between atoms: C_4  and  C_6
REMARK    3  A    between atoms: C_6  and  O_7
REMARK    4  A    between atoms: C_11  and  N_15
REMARK                            x       y       z     vdW  Elec       q    Type
REMARK                         _______ _______ _______ _____ _____    ______ ____
ROOT
ATOM      1  N   UNL     1       8.215  -1.684  23.077  0.00  0.00    -0.232 N 
ATOM      2  C   UNL     1       9.545  -1.535  22.726  0.00  0.00    +0.397 C 
ATOM      3  O   UNL     1      10.400  -2.399  22.881  0.00  0.00    -0.224 OA
ATOM      4  N   UNL     1       9.898  -0.347  22.148  0.00  0.00    -0.156 N 
ATOM      5  H   UNL     1      10.864  -0.290  21.855  0.00  0.00    +0.303 HD
ATOM      6  C   UNL     1       9.116   0.754  22.010  0.00  0.00    +0.295 C 
ATOM      7  C   UNL     1       7.883   0.705  22.531  0.00  0.00    +0.202 C 
ATOM      8  F   UNL     1       7.077   1.787  22.419  0.00  0.00    -0.200 F 
ATOM      9  C   UNL     1       7.376  -0.493  23.249  0.00  0.00    +0.188 C 
ENDROOT
BRANCH   1  14
ATOM     10  C   UNL     1       8.034  -4.262  23.220  0.00  0.00    +0.123 C 
ATOM     11  S   UNL     1       6.652  -4.462  22.084  0.00  0.00    -0.123 S 
ATOM     12  C   UNL     1       5.657  -3.267  23.012  0.00  0.00    +0.203 C 
ATOM     13  O   UNL     1       6.415  -2.781  24.136  0.00  0.00    -0.342 OA
ATOM     14  C   UNL     1       7.821  -2.870  23.838  0.00  0.00    +0.223 C 
BRANCH  12  15
ATOM     15  C   UNL     1       4.354  -3.906  23.514  0.00  0.00    +0.198 C 
BRANCH  15  16
ATOM     16  O   UNL     1       3.953  -5.025  22.716  0.00  0.00    -0.392 OA
ATOM     17  H   UNL     1       2.986  -5.097  22.809  0.00  0.00    +0.210 HD
ENDBRANCH  15  16
ENDBRANCH  12  15
ENDBRANCH   1  14
BRANCH   6  18
ATOM     18  N   UNL     1       9.621   1.865  21.378  0.00  0.00    -0.249 N 
ATOM     19  H   UNL     1       9.879   1.684  20.414  0.00  0.00    +0.288 HD
ATOM     20  H   UNL     1       8.999   2.669  21.463  0.00  0.00    +0.288 HD
ENDBRANCH   6  18
TORSDOF 4
ENDMDL
MODEL 5
REMARK VINA RESULT:      -5.4      3.316      5.776
REMARK  Name = 
REMARK  4 active torsions:
REMARK  status: ('A' for Active; 'I' for Inactive)
REMARK    1  A    between atoms: C_2  and  N_8
REMARK    2  A    between atoms: C_4  and  C_6
REMARK    3  A    between atoms: C_6  and  O_7
REMARK    4  A    between atoms: C_11  and  N_15
REMARK                            x       y       z     vdW  Elec       q    Type
REMARK                         _______ _______ _______ _____ _____    ______ ____
ROOT
ATOM      1  N   UNL     1       8.738  -1.267  23.603  0.00  0.00    -0.232 N 
ATOM      2  C   UNL     1       7.865  -0.249  23.259  0.00  0.00    +0.397 C 
ATOM      3  O   UNL     1       6.777  -0.425  22.723  0.00  0.00    -0.224 OA
ATOM      4  N   UNL     1       8.253   1.024  23.573  0.00  0.00    -0.156 N 
ATOM      5  H   UNL     1       7.571   1.739  23.358  0.00  0.00    +0.303 HD
ATOM      6  C   UNL     1       9.462   1.409  24.057  0.00  0.00    +0.295 C 
ATOM      7  C   UNL     1      10.399   0.464  24.201  0.00  0.00    +0.202 C 
ATOM      8  F   UNL     1      11.619   0.813  24.673  0.00  0.00    -0.200 F 
ATOM      9  C   UNL     1      10.151  -0.956  23.840  0.00  0.00    +0.188 C 
ENDROOT
BRANCH   1  14
ATOM     10  C   UNL     1       7.015  -3.179  23.322  0.00  0.00    +0.123 C 
ATOM     11  S   UNL     1       6.939  -3.678  25.050  0.00  0.00    -0.123 S 
ATOM     12  C   UNL     1       8.739  -3.862  25.124  0.00  0.00    +0.203 C 
ATOM     13  O   UNL     1       9.307  -3.544  23.839  0.00  0.00    -0.342 OA
ATOM     14  C   UNL     1       8.440  -2.625  23.148  0.00  0.00    +0.223 C 
BRANCH  12  15
ATOM     15  C   UNL     1       9.131  -5.295  25.514  0.00  0.00    +0.198 C 
BRANCH  15  16
ATOM     16  O   UNL     1      10.544  -5.511  25.445  0.00  0.00    -0.392 OA
ATOM     17  H   UNL     1      10.963  -4.643  25.594  0.00  0.00    +0.210 HD
ENDBRANCH  15  16
ENDBRANCH  12  15
ENDBRANCH   1  14
BRANCH   6  18
ATOM     18  N   UNL     1       9.681   2.736  24.345  0.00  0.00    -0.249 N 
ATOM     19  H   UNL     1      10.659   2.943  24.513  0.00  0.00    +0.288 HD
ATOM     20  H   UNL     1       9.275   3.352  23.642  0.00  0.00    +0.288 HD
ENDBRANCH   6  18
TORSDOF 4
ENDMDL
MODEL 6
REMARK VINA RESULT:      -5.3      2.219      2.480
REMARK  Name = 
REMARK  4 active torsions:
REMARK  status: ('A' for Active; 'I' for Inactive)
REMARK    1  A    between atoms: C_2  and  N_8
REMARK    2  A    between atoms: C_4  and  C_6
REMARK    3  A    between atoms: C_6  and  O_7
REMARK    4  A    between atoms: C_11  and  N_15
REMARK                            x       y       z     vdW  Elec       q    Type
REMARK                         _______ _______ _______ _____ _____    ______ ____
ROOT
ATOM      1  N   UNL     1       9.016  -1.894  24.912  0.00  0.00    -0.232 N 
ATOM      2  C   UNL     1       8.539  -2.017  26.205  0.00  0.00    +0.397 C 
ATOM      3  O   UNL     1       8.585  -1.125  27.045  0.00  0.00    -0.224 OA
ATOM      4  N   UNL     1       7.960  -3.211  26.536  0.00  0.00    -0.156 N 
ATOM      5  H   UNL     1       7.574  -3.249  27.469  0.00  0.00    +0.303 HD
ATOM      6  C   UNL     1       7.929  -4.336  25.776  0.00  0.00    +0.295 C 
ATOM      7  C   UNL     1       8.569  -4.305  24.600  0.00  0.00    +0.202 C 
ATOM      8  F   UNL     1       8.566  -5.412  23.820  0.00  0.00    -0.200 F 
ATOM      9  C   UNL     1       9.302  -3.101  24.131  0.00  0.00    +0.188 C 
ENDROOT
BRANCH   1  14
ATOM     10  C   UNL     1       9.227   0.686  24.940  0.00  0.00    +0.123 C 
ATOM     11  S   UNL     1       7.992   1.034  23.677  0.00  0.00    -0.123 S 
ATOM     12  C   UNL     1       8.801  -0.092  22.512  0.00  0.00    +0.203 C 
ATOM     13  O   UNL     1       9.965  -0.670  23.132  0.00  0.00    -0.342 OA
ATOM     14  C   UNL     1       9.781  -0.697  24.560  0.00  0.00    +0.223 C 
BRANCH  12  15
ATOM     15  C   UNL     1       9.218   0.645  21.231  0.00  0.00    +0.198 C 
BRANCH  15  16
ATOM     16  O   UNL     1       9.515   2.025  21.469  0.00  0.00    -0.392 OA
ATOM     17  H   UNL     1       9.508   2.145  22.436  0.00  0.00    +0.210 HD
ENDBRANCH  15  16
ENDBRANCH  12  15
ENDBRANCH   1  14
BRANCH   6  18
ATOM     18  N   UNL     1       7.279  -5.451  26.250  0.00  0.00    -0.249 N 
ATOM     19  H   UNL     1       7.447  -5.612  27.237  0.00  0.00    +0.288 HD
ATOM     20  H   UNL     1       6.284  -5.436  26.029  0.00  0.00    +0.288 HD
ENDBRANCH   6  18
TORSDOF 4
ENDMDL
MODEL 7
REMARK VINA RESULT:      -5.2      2.504      3.460
REMARK  Name = 
REMARK  4 active torsions:
REMARK  status: ('A' for Active; 'I' for Inactive)
REMARK    1  A    between atoms: C_2  and  N_8
REMARK    2  A    between atoms: C_4  and  C_6
REMARK    3  A    between atoms: C_6  and  O_7
REMARK    4  A    between atoms: C_11  and  N_15
REMARK                            x       y       z     vdW  Elec       q    Type
REMARK                         _______ _______ _______ _____ _____    ______ ____
ROOT
ATOM      1  N   UNL     1       9.524   0.517  22.980  0.00  0.00    -0.232 N 
ATOM      2  C   UNL     1      10.312  -0.025  23.980  0.00  0.00    +0.397 C 
ATOM      3  O   UNL     1      11.170   0.597  24.596  0.00  0.00    -0.224 OA
ATOM      4  N   UNL     1      10.081  -1.334  24.302  0.00  0.00    -0.156 N 
ATOM      5  H   UNL     1      10.635  -1.684  25.072  0.00  0.00    +0.303 HD
ATOM      6  C   UNL     1       9.261  -2.198  23.651  0.00  0.00    +0.295 C 
ATOM      7  C   UNL     1       8.644  -1.753  22.549  0.00  0.00    +0.202 C 
ATOM      8  F   UNL     1       7.824  -2.590  21.869  0.00  0.00    -0.200 F 
ATOM      9  C   UNL     1       8.845  -0.374  22.034  0.00  0.00    +0.188 C 
ENDROOT
BRANCH   1  14
ATOM     10  C   UNL     1      10.286   2.936  23.499  0.00  0.00    +0.123 C 
ATOM     11  S   UNL     1       8.754   3.505  24.255  0.00  0.00    -0.123 S 
ATOM     12  C   UNL     1       7.793   2.972  22.815  0.00  0.00    +0.203 C 
ATOM     13  O   UNL     1       8.677   2.397  21.834  0.00  0.00    -0.342 OA
ATOM     14  C   UNL     1       9.839   1.861  22.494  0.00  0.00    +0.223 C 
BRANCH  12  15
ATOM     15  C   UNL     1       7.036   4.153  22.190  0.00  0.00    +0.198 C 
BRANCH  15  16
ATOM     16  O   UNL     1       7.889   5.274  21.935  0.00  0.00    -0.392 OA
ATOM     17  H   UNL     1       8.251   5.545  22.798  0.00  0.00    +0.210 HD
ENDBRANCH  15  16
ENDBRANCH  12  15
ENDBRANCH   1  14
BRANCH   6  18
ATOM     18  N   UNL     1       9.122  -3.482  24.123  0.00  0.00    -0.249 N 
ATOM     19  H   UNL     1       9.133  -3.529  25.136  0.00  0.00    +0.288 HD
ATOM     20  H   UNL     1       8.308  -3.949  23.727  0.00  0.00    +0.288 HD
ENDBRANCH   6  18
TORSDOF 4
ENDMDL
MODEL 8
REMARK VINA RESULT:      -5.1      3.394      5.524
REMARK  Name = 
REMARK  4 active torsions:
REMARK  status: ('A' for Active; 'I' for Inactive)
REMARK    1  A    between atoms: C_2  and  N_8
REMARK    2  A    between atoms: C_4  and  C_6
REMARK    3  A    between atoms: C_6  and  O_7
REMARK    4  A    between atoms: C_11  and  N_15
REMARK                            x       y       z     vdW  Elec       q    Type
REMARK                         _______ _______ _______ _____ _____    ______ ____
ROOT
ATOM      1  N   UNL     1       7.415  -1.888  23.186  0.00  0.00    -0.232 N 
ATOM      2  C   UNL     1       7.296  -0.661  23.815  0.00  0.00    +0.397 C 
ATOM      3  O   UNL     1       6.231  -0.168  24.171  0.00  0.00    -0.224 OA
ATOM      4  N   UNL     1       8.458   0.014  24.069  0.00  0.00    -0.156 N 
ATOM      5  H   UNL     1       8.342   0.880  24.576  0.00  0.00    +0.303 HD
ATOM      6  C   UNL     1       9.703  -0.324  23.644  0.00  0.00    +0.295 C 
ATOM      7  C   UNL     1       9.815  -1.400  22.854  0.00  0.00    +0.202 C 
ATOM      8  F   UNL     1      11.041  -1.761  22.405  0.00  0.00    -0.200 F 
ATOM      9  C   UNL     1       8.635  -2.199  22.435  0.00  0.00    +0.188 C 
ENDROOT
BRANCH   1  14
ATOM     10  C   UNL     1       5.321  -3.280  23.802  0.00  0.00    +0.123 C 
ATOM     11  S   UNL     1       6.162  -4.844  24.102  0.00  0.00    -0.123 S 
ATOM     12  C   UNL     1       6.961  -4.777  22.478  0.00  0.00    +0.203 C 
ATOM     13  O   UNL     1       6.550  -3.581  21.789  0.00  0.00    -0.342 OA
ATOM     14  C   UNL     1       6.195  -2.572  22.754  0.00  0.00    +0.223 C 
BRANCH  12  15
ATOM     15  C   UNL     1       6.595  -6.005  21.632  0.00  0.00    +0.198 C 
BRANCH  15  16
ATOM     16  O   UNL     1       5.226  -6.388  21.792  0.00  0.00    -0.392 OA
ATOM     17  H   UNL     1       4.796  -5.671  22.293  0.00  0.00    +0.210 HD
ENDBRANCH  15  16
ENDBRANCH  12  15
ENDBRANCH   1  14
BRANCH   6  18
ATOM     18  N   UNL     1      10.774   0.455  24.011  0.00  0.00    -0.249 N 
ATOM     19  H   UNL     1      11.477  -0.064  24.527  0.00  0.00    +0.288 HD
ATOM     20  H   UNL     1      11.173   0.955  23.218  0.00  0.00    +0.288 HD
ENDBRANCH   6  18
TORSDOF 4
ENDMDL
MODEL 9
REMARK VINA RESULT:      -5.0      3.657      5.894
REMARK  Name = 
REMARK  4 active torsions:
REMARK  status: ('A' for Active; 'I' for Inactive)
REMARK    1  A    between atoms: C_2  and  N_8
REMARK    2  A    between atoms: C_4  and  C_6
REMARK    3  A    between atoms: C_6  and  O_7
REMARK    4  A    between atoms: C_11  and  N_15
REMARK                            x       y       z     vdW  Elec       q    Type
REMARK                         _______ _______ _______ _____ _____    ______ ____
ROOT
ATOM      1  N   UNL     1       8.506   1.443  23.387  0.00  0.00    -0.232 N 
ATOM      2  C   UNL     1       9.332   2.552  23.381  0.00  0.00    +0.397 C 
ATOM      3  O   UNL     1      10.469   2.568  23.840  0.00  0.00    -0.224 OA
ATOM      4  N   UNL     1       8.835   3.685  22.798  0.00  0.00    -0.156 N 
ATOM      5  H   UNL     1       9.482   4.461  22.762  0.00  0.00    +0.303 HD
ATOM      6  C   UNL     1       7.568   3.879  22.350  0.00  0.00    +0.295 C 
ATOM      7  C   UNL     1       6.689   2.887  22.535  0.00  0.00    +0.202 C 
ATOM      8  F   UNL     1       5.414   3.049  22.109  0.00  0.00    -0.200 F 
ATOM      9  C   UNL     1       7.060   1.618  23.214  0.00  0.00    +0.188 C 
ENDROOT
BRANCH   1  14
ATOM     10  C   UNL     1      10.312  -0.354  23.849  0.00  0.00    +0.123 C 
ATOM     11  S   UNL     1      10.070  -1.318  22.348  0.00  0.00    -0.123 S 
ATOM     12  C   UNL     1       8.296  -1.475  22.680  0.00  0.00    +0.203 C 
ATOM     13  O   UNL     1       7.977  -0.796  23.910  0.00  0.00    -0.342 OA
ATOM     14  C   UNL     1       8.930   0.259  24.135  0.00  0.00    +0.223 C 
BRANCH  12  15
ATOM     15  C   UNL     1       7.883  -2.950  22.790  0.00  0.00    +0.198 C 
BRANCH  15  16
ATOM     16  O   UNL     1       8.810  -3.719  23.563  0.00  0.00    -0.392 OA
ATOM     17  H   UNL     1       9.051  -3.169  24.331  0.00  0.00    +0.210 HD
ENDBRANCH  15  16
ENDBRANCH  12  15
ENDBRANCH   1  14
BRANCH   6  18
ATOM     18  N   UNL     1       7.237   5.077  21.763  0.00  0.00    -0.249 N 
ATOM     19  H   UNL     1       6.681   5.670  22.369  0.00  0.00    +0.288 HD
ATOM     20  H   UNL     1       8.056   5.564  21.399  0.00  0.00    +0.288 HD
ENDBRANCH   6  18
TORSDOF 4
ENDMDL
