MODEL 1
REMARK VINA RESULT:      -6.1      0.000      0.000
REMARK  Name = 
REMARK  5 active torsions:
REMARK  status: ('A' for Active; 'I' for Inactive)
REMARK    1  A    between atoms: C3*_2  and  O3*_19
REMARK    2  A    between atoms: C4*_3  and  C5*_17
REMARK    3  A    between atoms: C1*_5  and  N_6
REMARK    4  A    between atoms: C_8  and  C_14
REMARK    5  A    between atoms: C5*_17  and  O5*_18
REMARK                            x       y       z     vdW  Elec       q    Type
REMARK                         _______ _______ _______ _____ _____    ______ ____
ROOT
ATOM      1  N   UNL     1       8.728  -3.561  25.170  0.00  0.00    -0.258 N 
ATOM      2  C   UNL     1       9.436  -4.667  25.599  0.00  0.00    +0.310 C 
ATOM      3  O   UNL     1      10.424  -5.112  25.026  0.00  0.00    -0.252 OA
ATOM      4  N   UNL     1       8.918  -5.299  26.700  0.00  0.00    -0.239 N 
ATOM      5  H   UNL     1       9.423  -6.119  27.004  0.00  0.00    +0.159 HD
ATOM      6  C   UNL     1       7.614  -5.226  27.125  0.00  0.00    +0.229 C 
ATOM      7  O   UNL     1       7.172  -6.065  27.907  0.00  0.00    -0.275 OA
ATOM      8  C   UNL     1       6.757  -4.137  26.482  0.00  0.00    +0.116 C 
ATOM      9  C   UNL     1       7.687  -3.015  26.034  0.00  0.00    +0.128 C 
ENDROOT
BRANCH   1  11
ATOM     10  C2* UNL     1       9.834  -1.745  23.823  0.00  0.00    +0.086 C 
ATOM     11  C1* UNL     1       9.008  -3.028  23.849  0.00  0.00    +0.212 C 
ATOM     12  O4* UNL     1       7.789  -2.772  23.134  0.00  0.00    -0.350 OA
ATOM     13  C4* UNL     1       7.844  -1.440  22.575  0.00  0.00    +0.174 C 
ATOM     14  C3* UNL     1       9.320  -1.063  22.577  0.00  0.00    +0.150 C 
BRANCH  14  15
ATOM     15  O3* UNL     1       9.977  -1.601  21.426  0.00  0.00    -0.389 OA
ATOM     16  H3* UNL     1      10.923  -1.372  21.463  0.00  0.00    +0.210 HD
ENDBRANCH  14  15
BRANCH  13  17
ATOM     17  C5* UNL     1       6.997  -0.479  23.422  0.00  0.00    +0.190 C 
BRANCH  17  18
ATOM     18  O5* UNL     1       6.464   0.587  22.638  0.00  0.00    -0.392 OA
ATOM     19  H5* UNL     1       7.147   0.872  22.007  0.00  0.00    +0.210 HD
ENDBRANCH  17  18
ENDBRANCH  13  17
ENDBRANCH   1  11
BRANCH   8  20
ATOM     20  C   UNL     1       5.714  -3.640  27.449  0.00  0.00    -0.005 C 
ATOM     21  C   UNL     1       4.403  -3.895  27.324  0.00  0.00    +0.047 C 
ATOM     22 BR   UNL     1       3.114  -3.305  28.516  0.00  0.00    -0.059 Br
ENDBRANCH   8  20
TORSDOF 5
ENDMDL
MODEL 2
REMARK VINA RESULT:      -6.1      2.982      3.907
REMARK  Name = 
REMARK  5 active torsions:
REMARK  status: ('A' for Active; 'I' for Inactive)
REMARK    1  A    between atoms: C3*_2  and  O3*_19
REMARK    2  A    between atoms: C4*_3  and  C5*_17
REMARK    3  A    between atoms: C1*_5  and  N_6
REMARK    4  A    between atoms: C_8  and  C_14
REMARK    5  A    between atoms: C5*_17  and  O5*_18
REMARK                            x       y       z     vdW  Elec       q    Type
REMARK                         _______ _______ _______ _____ _____    ______ ____
ROOT
ATOM      1  N   UNL     1       8.644  -1.312  25.109  0.00  0.00    -0.258 N 
ATOM      2  C   UNL     1       8.540  -1.582  26.459  0.00  0.00    +0.310 C 
ATOM      3  O   UNL     1       8.824  -0.780  27.342  0.00  0.00    -0.252 OA
ATOM      4  N   UNL     1       8.152  -2.859  26.770  0.00  0.00    -0.239 N 
ATOM      5  H   UNL     1       8.095  -3.065  27.757  0.00  0.00    +0.159 HD
ATOM      6  C   UNL     1       8.281  -3.956  25.952  0.00  0.00    +0.229 C 
ATOM      7  O   UNL     1       8.214  -5.089  26.424  0.00  0.00    -0.275 OA
ATOM      8  C   UNL     1       8.620  -3.668  24.490  0.00  0.00    +0.116 C 
ATOM      9  C   UNL     1       8.101  -2.274  24.156  0.00  0.00    +0.128 C 
ENDROOT
BRANCH   1  11
ATOM     10  C2* UNL     1       8.461   1.002  24.134  0.00  0.00    +0.086 C 
ATOM     11  C1* UNL     1       9.344  -0.110  24.693  0.00  0.00    +0.212 C 
ATOM     12  O4* UNL     1      10.336  -0.416  23.701  0.00  0.00    -0.350 OA
ATOM     13  C4* UNL     1      10.192   0.505  22.596  0.00  0.00    +0.174 C 
ATOM     14  C3* UNL     1       9.386   1.674  23.147  0.00  0.00    +0.150 C 
BRANCH  14  15
ATOM     15  O3* UNL     1      10.241   2.593  23.833  0.00  0.00    -0.389 OA
ATOM     16  H3* UNL     1      10.747   3.107  23.179  0.00  0.00    +0.210 HD
ENDBRANCH  14  15
BRANCH  13  17
ATOM     17  C5* UNL     1       9.483  -0.189  21.423  0.00  0.00    +0.190 C 
BRANCH  17  18
ATOM     18  O5* UNL     1       9.905  -1.543  21.276  0.00  0.00    -0.392 OA
ATOM     19  H5* UNL     1      10.492  -1.763  22.020  0.00  0.00    +0.210 HD
ENDBRANCH  17  18
ENDBRANCH  13  17
ENDBRANCH   1  11
BRANCH   8  20
ATOM     20  C   UNL     1       8.018  -4.715  23.589  0.00  0.00    -0.005 C 
ATOM     21  C   UNL     1       7.251  -4.428  22.526  0.00  0.00    +0.047 C 
ATOM     22 BR   UNL     1       6.520  -5.705  21.402  0.00  0.00    -0.059 Br
ENDBRANCH   8  20
TORSDOF 5
ENDMDL
MODEL 3
REMARK VINA RESULT:      -5.9      2.972      3.747
REMARK  Name = 
REMARK  5 active torsions:
REMARK  status: ('A' for Active; 'I' for Inactive)
REMARK    1  A    between atoms: C3*_2  and  O3*_19
REMARK    2  A    between atoms: C4*_3  and  C5*_17
REMARK    3  A    between atoms: C1*_5  and  N_6
REMARK    4  A    between atoms: C_8  and  C_14
REMARK    5  A    between atoms: C5*_17  and  O5*_18
REMARK                            x       y       z     vdW  Elec       q    Type
REMARK                         _______ _______ _______ _____ _____    ______ ____
ROOT
ATOM      1  N   UNL     1       7.947  -1.575  23.181  0.00  0.00    -0.258 N 
ATOM      2  C   UNL     1       8.987  -2.410  23.539  0.00  0.00    +0.310 C 
ATOM      3  O   UNL     1      10.153  -2.044  23.647  0.00  0.00    -0.252 OA
ATOM      4  N   UNL     1       8.646  -3.726  23.707  0.00  0.00    -0.239 N 
ATOM      5  H   UNL     1       9.409  -4.343  23.949  0.00  0.00    +0.159 HD
ATOM      6  C   UNL     1       7.548  -4.345  23.160  0.00  0.00    +0.229 C 
ATOM      7  O   UNL     1       7.500  -5.572  23.092  0.00  0.00    -0.275 OA
ATOM      8  C   UNL     1       6.489  -3.424  22.556  0.00  0.00    +0.116 C 
ATOM      9  C   UNL     1       6.581  -2.078  23.268  0.00  0.00    +0.128 C 
ENDROOT
BRANCH   1  11
ATOM     10  C2* UNL     1       9.516  -0.162  21.809  0.00  0.00    +0.086 C 
ATOM     11  C1* UNL     1       8.263  -0.251  22.675  0.00  0.00    +0.212 C 
ATOM     12  O4* UNL     1       8.415   0.684  23.754  0.00  0.00    -0.350 OA
ATOM     13  C4* UNL     1       9.642   1.425  23.562  0.00  0.00    +0.174 C 
ATOM     14  C3* UNL     1       9.998   1.240  22.093  0.00  0.00    +0.150 C 
BRANCH  14  15
ATOM     15  O3* UNL     1       9.278   2.173  21.282  0.00  0.00    -0.389 OA
ATOM     16  H3* UNL     1       9.152   1.792  20.394  0.00  0.00    +0.210 HD
ENDBRANCH  14  15
BRANCH  13  17
ATOM     17  C5* UNL     1      10.734   0.885  24.498  0.00  0.00    +0.190 C 
BRANCH  17  18
ATOM     18  O5* UNL     1      10.179   0.246  25.646  0.00  0.00    -0.392 OA
ATOM     19  H5* UNL     1      10.473   0.730  26.437  0.00  0.00    +0.210 HD
ENDBRANCH  17  18
ENDBRANCH  13  17
ENDBRANCH   1  11
BRANCH   8  20
ATOM     20  C   UNL     1       5.117  -4.031  22.693  0.00  0.00    -0.005 C 
ATOM     21  C   UNL     1       4.419  -4.040  23.840  0.00  0.00    +0.047 C 
ATOM     22 BR   UNL     1       2.726  -4.768  24.016  0.00  0.00    -0.059 Br
ENDBRANCH   8  20
TORSDOF 5
ENDMDL
MODEL 4
REMARK VINA RESULT:      -5.7      3.582      5.039
REMARK  Name = 
REMARK  5 active torsions:
REMARK  status: ('A' for Active; 'I' for Inactive)
REMARK    1  A    between atoms: C3*_2  and  O3*_19
REMARK    2  A    between atoms: C4*_3  and  C5*_17
REMARK    3  A    between atoms: C1*_5  and  N_6
REMARK    4  A    between atoms: C_8  and  C_14
REMARK    5  A    between atoms: C5*_17  and  O5*_18
REMARK                            x       y       z     vdW  Elec       q    Type
REMARK                         _______ _______ _______ _____ _____    ______ ____
ROOT
ATOM      1  N   UNL     1       8.172  -3.161  23.367  0.00  0.00    -0.258 N 
ATOM      2  C   UNL     1       9.320  -3.111  24.133  0.00  0.00    +0.310 C 
ATOM      3  O   UNL     1       9.972  -4.098  24.457  0.00  0.00    -0.252 OA
ATOM      4  N   UNL     1       9.666  -1.863  24.583  0.00  0.00    -0.239 N 
ATOM      5  H   UNL     1      10.494  -1.827  25.161  0.00  0.00    +0.159 HD
ATOM      6  C   UNL     1       8.812  -0.796  24.721  0.00  0.00    +0.229 C 
ATOM      7  O   UNL     1       9.128   0.161  25.425  0.00  0.00    -0.275 OA
ATOM      8  C   UNL     1       7.443  -0.941  24.057  0.00  0.00    +0.116 C 
ATOM      9  C   UNL     1       7.591  -1.911  22.890  0.00  0.00    +0.128 C 
ENDROOT
BRANCH   1  11
ATOM     10  C2* UNL     1       6.828  -4.587  21.787  0.00  0.00    +0.086 C 
ATOM     11  C1* UNL     1       7.559  -4.453  23.120  0.00  0.00    +0.212 C 
ATOM     12  O4* UNL     1       6.625  -4.781  24.160  0.00  0.00    -0.350 OA
ATOM     13  C4* UNL     1       5.383  -5.209  23.557  0.00  0.00    +0.174 C 
ATOM     14  C3* UNL     1       5.737  -5.576  22.122  0.00  0.00    +0.150 C 
BRANCH  14  15
ATOM     15  O3* UNL     1       6.256  -6.908  22.059  0.00  0.00    -0.389 OA
ATOM     16  H3* UNL     1       7.229  -6.872  22.082  0.00  0.00    +0.210 HD
ENDBRANCH  14  15
BRANCH  13  17
ATOM     17  C5* UNL     1       4.346  -4.078  23.629  0.00  0.00    +0.190 C 
BRANCH  17  18
ATOM     18  O5* UNL     1       4.683  -3.115  24.626  0.00  0.00    -0.392 OA
ATOM     19  H5* UNL     1       5.583  -2.793  24.448  0.00  0.00    +0.210 HD
ENDBRANCH  17  18
ENDBRANCH  13  17
ENDBRANCH   1  11
BRANCH   8  20
ATOM     20  C   UNL     1       6.929   0.400  23.602  0.00  0.00    -0.005 C 
ATOM     21  C   UNL     1       7.514   1.134  22.643  0.00  0.00    +0.047 C 
ATOM     22 BR   UNL     1       6.881   2.775  22.064  0.00  0.00    -0.059 Br
ENDBRANCH   8  20
TORSDOF 5
ENDMDL
MODEL 5
REMARK VINA RESULT:      -5.7      2.989      3.632
REMARK  Name = 
REMARK  5 active torsions:
REMARK  status: ('A' for Active; 'I' for Inactive)
REMARK    1  A    between atoms: C3*_2  and  O3*_19
REMARK    2  A    between atoms: C4*_3  and  C5*_17
REMARK    3  A    between atoms: C1*_5  and  N_6
REMARK    4  A    between atoms: C_8  and  C_14
REMARK    5  A    between atoms: C5*_17  and  O5*_18
REMARK                            x       y       z     vdW  Elec       q    Type
REMARK                         _______ _______ _______ _____ _____    ______ ____
ROOT
ATOM      1  N   UNL     1       6.706  -4.711  25.739  0.00  0.00    -0.258 N 
ATOM      2  C   UNL     1       7.471  -4.999  26.853  0.00  0.00    +0.310 C 
ATOM      3  O   UNL     1       8.640  -4.654  26.988  0.00  0.00    -0.252 OA
ATOM      4  N   UNL     1       6.853  -5.773  27.800  0.00  0.00    -0.239 N 
ATOM      5  H   UNL     1       7.417  -6.002  28.606  0.00  0.00    +0.159 HD
ATOM      6  C   UNL     1       5.787  -6.611  27.578  0.00  0.00    +0.229 C 
ATOM      7  O   UNL     1       5.516  -7.493  28.390  0.00  0.00    -0.275 OA
ATOM      8  C   UNL     1       5.069  -6.446  26.239  0.00  0.00    +0.116 C 
ATOM      9  C   UNL     1       5.278  -5.009  25.772  0.00  0.00    +0.128 C 
ENDROOT
BRANCH   1  11
ATOM     10  C2* UNL     1       6.623  -3.058  23.842  0.00  0.00    +0.086 C 
ATOM     11  C1* UNL     1       7.367  -4.180  24.561  0.00  0.00    +0.212 C 
ATOM     12  O4* UNL     1       7.613  -5.220  23.602  0.00  0.00    -0.350 OA
ATOM     13  C4* UNL     1       7.158  -4.777  22.304  0.00  0.00    +0.174 C 
ATOM     14  C3* UNL     1       7.053  -3.262  22.409  0.00  0.00    +0.150 C 
BRANCH  14  15
ATOM     15  O3* UNL     1       8.330  -2.655  22.196  0.00  0.00    -0.389 OA
ATOM     16  H3* UNL     1       8.964  -3.010  22.845  0.00  0.00    +0.210 HD
ENDBRANCH  14  15
BRANCH  13  17
ATOM     17  C5* UNL     1       5.809  -5.432  21.967  0.00  0.00    +0.190 C 
BRANCH  17  18
ATOM     18  O5* UNL     1       5.637  -6.670  22.654  0.00  0.00    -0.392 OA
ATOM     19  H5* UNL     1       6.507  -6.968  22.970  0.00  0.00    +0.210 HD
ENDBRANCH  17  18
ENDBRANCH  13  17
ENDBRANCH   1  11
BRANCH   8  20
ATOM     20  C   UNL     1       3.606  -6.778  26.376  0.00  0.00    -0.005 C 
ATOM     21  C   UNL     1       2.917  -7.485  25.467  0.00  0.00    +0.047 C 
ATOM     22 BR   UNL     1       1.123  -7.913  25.633  0.00  0.00    -0.059 Br
ENDBRANCH   8  20
TORSDOF 5
ENDMDL
MODEL 6
REMARK VINA RESULT:      -5.6      2.940      3.321
REMARK  Name = 
REMARK  5 active torsions:
REMARK  status: ('A' for Active; 'I' for Inactive)
REMARK    1  A    between atoms: C3*_2  and  O3*_19
REMARK    2  A    between atoms: C4*_3  and  C5*_17
REMARK    3  A    between atoms: C1*_5  and  N_6
REMARK    4  A    between atoms: C_8  and  C_14
REMARK    5  A    between atoms: C5*_17  and  O5*_18
REMARK                            x       y       z     vdW  Elec       q    Type
REMARK                         _______ _______ _______ _____ _____    ______ ____
ROOT
ATOM      1  N   UNL     1       6.740  -4.768  22.935  0.00  0.00    -0.258 N 
ATOM      2  C   UNL     1       6.054  -5.595  22.068  0.00  0.00    +0.310 C 
ATOM      3  O   UNL     1       6.003  -5.424  20.854  0.00  0.00    -0.252 OA
ATOM      4  N   UNL     1       5.355  -6.613  22.663  0.00  0.00    -0.239 N 
ATOM      5  H   UNL     1       4.836  -7.207  22.032  0.00  0.00    +0.159 HD
ATOM      6  C   UNL     1       4.926  -6.634  23.968  0.00  0.00    +0.229 C 
ATOM      7  O   UNL     1       4.045  -7.417  24.316  0.00  0.00    -0.275 OA
ATOM      8  C   UNL     1       5.520  -5.568  24.888  0.00  0.00    +0.116 C 
ATOM      9  C   UNL     1       6.884  -5.177  24.328  0.00  0.00    +0.128 C 
ENDROOT
BRANCH   1  11
ATOM     10  C2* UNL     1       8.410  -2.906  23.209  0.00  0.00    +0.086 C 
ATOM     11  C1* UNL     1       7.235  -3.497  22.437  0.00  0.00    +0.212 C 
ATOM     12  O4* UNL     1       6.189  -2.514  22.421  0.00  0.00    -0.350 OA
ATOM     13  C4* UNL     1       6.673  -1.305  23.048  0.00  0.00    +0.174 C 
ATOM     14  C3* UNL     1       8.191  -1.422  23.031  0.00  0.00    +0.150 C 
BRANCH  14  15
ATOM     15  O3* UNL     1       8.713  -1.005  21.766  0.00  0.00    -0.389 OA
ATOM     16  H3* UNL     1       8.726  -1.767  21.159  0.00  0.00    +0.210 HD
ENDBRANCH  14  15
BRANCH  13  17
ATOM     17  C5* UNL     1       6.114  -1.192  24.474  0.00  0.00    +0.190 C 
BRANCH  17  18
ATOM     18  O5* UNL     1       5.356   0.003  24.651  0.00  0.00    -0.392 OA
ATOM     19  H5* UNL     1       4.933  -0.030  25.526  0.00  0.00    +0.210 HD
ENDBRANCH  17  18
ENDBRANCH  13  17
ENDBRANCH   1  11
BRANCH   8  20
ATOM     20  C   UNL     1       5.627  -6.084  26.299  0.00  0.00    -0.005 C 
ATOM     21  C   UNL     1       4.898  -5.607  27.321  0.00  0.00    +0.047 C 
ATOM     22 BR   UNL     1       5.008  -6.245  29.056  0.00  0.00    -0.059 Br
ENDBRANCH   8  20
TORSDOF 5
ENDMDL
MODEL 7
REMARK VINA RESULT:      -5.6      2.847      3.326
REMARK  Name = 
REMARK  5 active torsions:
REMARK  status: ('A' for Active; 'I' for Inactive)
REMARK    1  A    between atoms: C3*_2  and  O3*_19
REMARK    2  A    between atoms: C4*_3  and  C5*_17
REMARK    3  A    between atoms: C1*_5  and  N_6
REMARK    4  A    between atoms: C_8  and  C_14
REMARK    5  A    between atoms: C5*_17  and  O5*_18
REMARK                            x       y       z     vdW  Elec       q    Type
REMARK                         _______ _______ _______ _____ _____    ______ ____
ROOT
ATOM      1  N   UNL     1       6.770  -4.548  23.214  0.00  0.00    -0.258 N 
ATOM      2  C   UNL     1       6.408  -5.568  22.355  0.00  0.00    +0.310 C 
ATOM      3  O   UNL     1       7.144  -6.027  21.488  0.00  0.00    -0.252 OA
ATOM      4  N   UNL     1       5.117  -6.008  22.485  0.00  0.00    -0.239 N 
ATOM      5  H   UNL     1       4.843  -6.739  21.845  0.00  0.00    +0.159 HD
ATOM      6  C   UNL     1       4.077  -5.292  23.031  0.00  0.00    +0.229 C 
ATOM      7  O   UNL     1       2.915  -5.627  22.811  0.00  0.00    -0.275 OA
ATOM      8  C   UNL     1       4.462  -4.029  23.800  0.00  0.00    +0.116 C 
ATOM      9  C   UNL     1       5.882  -4.216  24.323  0.00  0.00    +0.128 C 
ENDROOT
BRANCH   1  11
ATOM     10  C2* UNL     1       8.843  -3.480  24.161  0.00  0.00    +0.086 C 
ATOM     11  C1* UNL     1       7.990  -3.810  22.940  0.00  0.00    +0.212 C 
ATOM     12  O4* UNL     1       7.698  -2.575  22.269  0.00  0.00    -0.350 OA
ATOM     13  C4* UNL     1       8.399  -1.502  22.937  0.00  0.00    +0.174 C 
ATOM     14  C3* UNL     1       9.494  -2.181  23.750  0.00  0.00    +0.150 C 
BRANCH  14  15
ATOM     15  O3* UNL     1      10.635  -2.449  22.930  0.00  0.00    -0.389 OA
ATOM     16  H3* UNL     1      10.745  -1.723  22.290  0.00  0.00    +0.210 HD
ENDBRANCH  14  15
BRANCH  13  17
ATOM     17  C5* UNL     1       7.426  -0.708  23.821  0.00  0.00    +0.190 C 
BRANCH  17  18
ATOM     18  O5* UNL     1       6.120  -0.652  23.252  0.00  0.00    -0.392 OA
ATOM     19  H5* UNL     1       5.807  -1.562  23.115  0.00  0.00    +0.210 HD
ENDBRANCH  17  18
ENDBRANCH  13  17
ENDBRANCH   1  11
BRANCH   8  20
ATOM     20  C   UNL     1       3.488  -3.771  24.919  0.00  0.00    -0.005 C 
ATOM     21  C   UNL     1       3.859  -3.512  26.182  0.00  0.00    +0.047 C 
ATOM     22 BR   UNL     1       2.671  -3.176  27.562  0.00  0.00    -0.059 Br
ENDBRANCH   8  20
TORSDOF 5
ENDMDL
MODEL 8
REMARK VINA RESULT:      -5.6      2.275      2.856
REMARK  Name = 
REMARK  5 active torsions:
REMARK  status: ('A' for Active; 'I' for Inactive)
REMARK    1  A    between atoms: C3*_2  and  O3*_19
REMARK    2  A    between atoms: C4*_3  and  C5*_17
REMARK    3  A    between atoms: C1*_5  and  N_6
REMARK    4  A    between atoms: C_8  and  C_14
REMARK    5  A    between atoms: C5*_17  and  O5*_18
REMARK                            x       y       z     vdW  Elec       q    Type
REMARK                         _______ _______ _______ _____ _____    ______ ____
ROOT
ATOM      1  N   UNL     1       9.356  -1.005  24.153  0.00  0.00    -0.258 N 
ATOM      2  C   UNL     1       9.790  -2.294  23.916  0.00  0.00    +0.310 C 
ATOM      3  O   UNL     1      10.580  -2.599  23.028  0.00  0.00    -0.252 OA
ATOM      4  N   UNL     1       9.221  -3.256  24.709  0.00  0.00    -0.239 N 
ATOM      5  H   UNL     1       9.523  -4.202  24.525  0.00  0.00    +0.159 HD
ATOM      6  C   UNL     1       8.019  -3.145  25.365  0.00  0.00    +0.229 C 
ATOM      7  O   UNL     1       7.444  -4.151  25.774  0.00  0.00    -0.275 OA
ATOM      8  C   UNL     1       7.419  -1.741  25.435  0.00  0.00    +0.116 C 
ATOM      9  C   UNL     1       8.565  -0.739  25.350  0.00  0.00    +0.128 C 
ENDROOT
BRANCH   1  11
ATOM     10  C2* UNL     1       9.795   1.435  23.718  0.00  0.00    +0.086 C 
ATOM     11  C1* UNL     1       9.652   0.020  23.167  0.00  0.00    +0.212 C 
ATOM     12  O4* UNL     1       8.644   0.052  22.146  0.00  0.00    -0.350 OA
ATOM     13  C4* UNL     1       8.216   1.419  21.953  0.00  0.00    +0.174 C 
ATOM     14  C3* UNL     1       9.322   2.276  22.556  0.00  0.00    +0.150 C 
BRANCH  14  15
ATOM     15  O3* UNL     1      10.389   2.450  21.619  0.00  0.00    -0.389 OA
ATOM     16  H3* UNL     1      10.302   1.788  20.910  0.00  0.00    +0.210 HD
ENDBRANCH  14  15
BRANCH  13  17
ATOM     17  C5* UNL     1       6.862   1.649  22.640  0.00  0.00    +0.190 C 
BRANCH  17  18
ATOM     18  O5* UNL     1       6.181   0.421  22.891  0.00  0.00    -0.392 OA
ATOM     19  H5* UNL     1       6.524   0.046  23.720  0.00  0.00    +0.210 HD
ENDBRANCH  17  18
ENDBRANCH  13  17
ENDBRANCH   1  11
BRANCH   8  20
ATOM     20  C   UNL     1       6.623  -1.566  26.702  0.00  0.00    -0.005 C 
ATOM     21  C   UNL     1       5.287  -1.439  26.728  0.00  0.00    +0.047 C 
ATOM     22 BR   UNL     1       4.296  -1.241  28.280  0.00  0.00    -0.059 Br
ENDBRANCH   8  20
TORSDOF 5
ENDMDL
MODEL 9
REMARK VINA RESULT:      -5.5      4.774      6.997
REMARK  Name = 
REMARK  5 active torsions:
REMARK  status: ('A' for Active; 'I' for Inactive)
REMARK    1  A    between atoms: C3*_2  and  O3*_19
REMARK    2  A    between atoms: C4*_3  and  C5*_17
REMARK    3  A    between atoms: C1*_5  and  N_6
REMARK    4  A    between atoms: C_8  and  C_14
REMARK    5  A    between atoms: C5*_17  and  O5*_18
REMARK                            x       y       z     vdW  Elec       q    Type
REMARK                         _______ _______ _______ _____ _____    ______ ____
ROOT
ATOM      1  N   UNL     1       9.103   2.073  22.637  0.00  0.00    -0.258 N 
ATOM      2  C   UNL     1       9.836   3.121  23.159  0.00  0.00    +0.310 C 
ATOM      3  O   UNL     1      10.988   3.015  23.567  0.00  0.00    -0.252 OA
ATOM      4  N   UNL     1       9.162   4.309  23.262  0.00  0.00    -0.239 N 
ATOM      5  H   UNL     1       9.689   5.072  23.662  0.00  0.00    +0.159 HD
ATOM      6  C   UNL     1       7.796   4.454  23.317  0.00  0.00    +0.229 C 
ATOM      7  O   UNL     1       7.302   5.500  23.731  0.00  0.00    -0.275 OA
ATOM      8  C   UNL     1       6.975   3.217  22.952  0.00  0.00    +0.116 C 
ATOM      9  C   UNL     1       7.816   2.359  22.013  0.00  0.00    +0.128 C 
ENDROOT
BRANCH   1  11
ATOM     10  C2* UNL     1       9.598  -0.128  21.520  0.00  0.00    +0.086 C 
ATOM     11  C1* UNL     1       9.618   0.724  22.786  0.00  0.00    +0.212 C 
ATOM     12  O4* UNL     1       8.891   0.011  23.799  0.00  0.00    -0.350 OA
ATOM     13  C4* UNL     1       8.504  -1.280  23.276  0.00  0.00    +0.174 C 
ATOM     14  C3* UNL     1       9.413  -1.519  22.078  0.00  0.00    +0.150 C 
BRANCH  14  15
ATOM     15  O3* UNL     1      10.675  -2.042  22.503  0.00  0.00    -0.389 OA
ATOM     16  H3* UNL     1      11.324  -1.316  22.544  0.00  0.00    +0.210 HD
ENDBRANCH  14  15
BRANCH  13  17
ATOM     17  C5* UNL     1       7.019  -1.265  22.885  0.00  0.00    +0.190 C 
BRANCH  17  18
ATOM     18  O5* UNL     1       6.289  -0.282  23.618  0.00  0.00    -0.392 OA
ATOM     19  H5* UNL     1       5.395  -0.626  23.784  0.00  0.00    +0.210 HD
ENDBRANCH  17  18
ENDBRANCH  13  17
ENDBRANCH   1  11
BRANCH   8  20
ATOM     20  C   UNL     1       5.668   3.616  22.319  0.00  0.00    -0.005 C 
ATOM     21  C   UNL     1       4.468   3.259  22.803  0.00  0.00    +0.047 C 
ATOM     22 BR   UNL     1       2.855   3.757  22.042  0.00  0.00    -0.059 Br
ENDBRANCH   8  20
TORSDOF 5
ENDMDL
