MODEL 1
REMARK VINA RESULT:      -8.4      0.000      0.000
REMARK  Name = 
REMARK  11 active torsions:
REMARK  status: ('A' for Active; 'I' for Inactive)
REMARK    1  A    between atoms: C_1  and  C_2
REMARK    2  A    between atoms: C_5  and  C_7
REMARK    3  A    between atoms: N_9  and  C_10
REMARK    4  A    between atoms: C_10  and  C_11
REMARK    5  A    between atoms: C_10  and  C_12
REMARK    6  A    between atoms: C_10  and  C_13
REMARK    7  A    between atoms: C_15  and  C_22
REMARK    8  A    between atoms: C_16  and  O_21
REMARK    9  A    between atoms: N_19  and  C_20
REMARK   10  A    between atoms: N_24  and  C_25
REMARK   11  A    between atoms: C_25  and  C_26
REMARK                            x       y       z     vdW  Elec       q    Type
REMARK                         _______ _______ _______ _____ _____    ______ ____
ROOT
ATOM      1  C   UNL     1       5.672  -4.382  25.382  0.00  0.00    +0.136 A 
ATOM      2  N   UNL     1       5.741  -5.076  26.579  0.00  0.00    -0.295 N 
ATOM      3  C   UNL     1       4.587  -5.589  27.299  0.00  0.00    +0.154 C 
ATOM      4  C   UNL     1       6.954  -5.203  27.236  0.00  0.00    +0.296 A 
ATOM      5  O   UNL     1       7.104  -5.639  28.380  0.00  0.00    -0.264 OA
ATOM      6  C   UNL     1       8.170  -4.784  26.509  0.00  0.00    +0.213 A 
ATOM      7  C   UNL     1       7.991  -4.228  25.303  0.00  0.00    +0.174 A 
ATOM      8  N   UNL     1       6.745  -3.991  24.748  0.00  0.00    -0.223 NA
ENDROOT
BRANCH   7   9
ATOM      9  C   UNL     1       9.232  -3.817  24.519  0.00  0.00    +0.267 C 
ATOM     10  N   UNL     1       9.045  -2.714  23.718  0.00  0.00    -0.306 N 
ATOM     11  H   UNL     1       8.133  -2.273  23.733  0.00  0.00    +0.149 HD
ATOM     12  O   UNL     1      10.311  -4.399  24.571  0.00  0.00    -0.268 OA
BRANCH  10  13
ATOM     13  C   UNL     1      10.134  -2.125  22.973  0.00  0.00    +0.140 C 
BRANCH  13  14
ATOM     14  C   UNL     1      10.146  -0.622  23.095  0.00  0.00    -0.030 A 
ATOM     15  C   UNL     1       9.901   0.183  21.971  0.00  0.00    +0.008 A 
ATOM     16  C   UNL     1       9.911   1.575  22.084  0.00  0.00    +0.038 A 
ATOM     17  C   UNL     1      10.155   2.160  23.320  0.00  0.00    +0.123 A 
ATOM     18  F   UNL     1      10.160   3.495  23.431  0.00  0.00    -0.205 F 
ATOM     19  C   UNL     1      10.396   1.381  24.445  0.00  0.00    +0.038 A 
ATOM     20  C   UNL     1      10.391  -0.011  24.335  0.00  0.00    +0.008 A 
ENDBRANCH  13  14
ENDBRANCH  10  13
ENDBRANCH   7   9
BRANCH   1  21
ATOM     21  C   UNL     1       4.286  -4.164  24.616  0.00  0.00    +0.087 C 
ATOM     22  C   UNL     1       3.496  -3.037  25.320  0.00  0.00    +0.039 C 
ATOM     23  C   UNL     1       4.651  -3.656  23.206  0.00  0.00    +0.039 C 
BRANCH  21  25
ATOM     24  C   UNL     1       3.787  -6.604  24.042  0.00  0.00    +0.301 C 
ATOM     25  N   UNL     1       3.400  -5.329  24.425  0.00  0.00    -0.295 N 
ATOM     26  H   UNL     1       2.469  -5.282  24.836  0.00  0.00    +0.150 HD
ATOM     27  O   UNL     1       4.925  -6.843  23.651  0.00  0.00    -0.265 OA
BRANCH  24  31
ATOM     28  C   UNL     1       1.170 -10.433  25.504  0.00  0.00    +0.111 C 
ATOM     29  C   UNL     1       1.539  -9.254  24.698  0.00  0.00    +0.215 A 
ATOM     30  O   UNL     1       2.659  -8.554  25.066  0.00  0.00    -0.417 OA
ATOM     31  C   UNL     1       2.705  -7.582  24.099  0.00  0.00    +0.304 A 
ATOM     32  N   UNL     1       1.714  -7.671  23.231  0.00  0.00    -0.102 NA
ATOM     33  N   UNL     1       0.957  -8.759  23.625  0.00  0.00    -0.112 NA
ENDBRANCH  24  31
ENDBRANCH  21  25
ENDBRANCH   1  21
BRANCH   6  34
ATOM     34  O   UNL     1       9.383  -4.968  27.142  0.00  0.00    -0.501 OA
ATOM     35  H   UNL     1       9.521  -5.935  27.189  0.00  0.00    +0.292 HD
ENDBRANCH   6  34
TORSDOF 7
ENDMDL
MODEL 2
REMARK VINA RESULT:      -7.7      1.989      2.645
REMARK  Name = 
REMARK  11 active torsions:
REMARK  status: ('A' for Active; 'I' for Inactive)
REMARK    1  A    between atoms: C_1  and  C_2
REMARK    2  A    between atoms: C_5  and  C_7
REMARK    3  A    between atoms: N_9  and  C_10
REMARK    4  A    between atoms: C_10  and  C_11
REMARK    5  A    between atoms: C_10  and  C_12
REMARK    6  A    between atoms: C_10  and  C_13
REMARK    7  A    between atoms: C_15  and  C_22
REMARK    8  A    between atoms: C_16  and  O_21
REMARK    9  A    between atoms: N_19  and  C_20
REMARK   10  A    between atoms: N_24  and  C_25
REMARK   11  A    between atoms: C_25  and  C_26
REMARK                            x       y       z     vdW  Elec       q    Type
REMARK                         _______ _______ _______ _____ _____    ______ ____
ROOT
ATOM      1  C   UNL     1       6.997  -4.587  23.445  0.00  0.00    +0.136 A 
ATOM      2  N   UNL     1       6.886  -4.660  24.823  0.00  0.00    -0.295 N 
ATOM      3  C   UNL     1       6.124  -5.675  25.533  0.00  0.00    +0.154 C 
ATOM      4  C   UNL     1       7.410  -3.652  25.615  0.00  0.00    +0.296 A 
ATOM      5  O   UNL     1       7.219  -3.522  26.827  0.00  0.00    -0.264 OA
ATOM      6  C   UNL     1       8.272  -2.647  24.957  0.00  0.00    +0.213 A 
ATOM      7  C   UNL     1       8.402  -2.742  23.627  0.00  0.00    +0.174 A 
ATOM      8  N   UNL     1       7.742  -3.685  22.859  0.00  0.00    -0.223 NA
ENDROOT
BRANCH   7   9
ATOM      9  C   UNL     1       9.312  -1.738  22.930  0.00  0.00    +0.267 C 
ATOM     10  N   UNL     1       8.658  -0.919  22.038  0.00  0.00    -0.306 N 
ATOM     11  H   UNL     1       7.657  -1.039  21.939  0.00  0.00    +0.149 HD
ATOM     12  O   UNL     1      10.521  -1.645  23.120  0.00  0.00    -0.268 OA
BRANCH  10  13
ATOM     13  C   UNL     1       9.340   0.154  21.352  0.00  0.00    +0.140 C 
BRANCH  13  14
ATOM     14  C   UNL     1       9.186   1.467  22.077  0.00  0.00    -0.030 A 
ATOM     15  C   UNL     1      10.221   1.953  22.893  0.00  0.00    +0.008 A 
ATOM     16  C   UNL     1      10.078   3.171  23.563  0.00  0.00    +0.038 A 
ATOM     17  C   UNL     1       8.910   3.905  23.409  0.00  0.00    +0.123 A 
ATOM     18  F   UNL     1       8.774   5.075  24.046  0.00  0.00    -0.205 F 
ATOM     19  C   UNL     1       7.876   3.442  22.603  0.00  0.00    +0.038 A 
ATOM     20  C   UNL     1       8.012   2.225  21.935  0.00  0.00    +0.008 A 
ENDBRANCH  13  14
ENDBRANCH  10  13
ENDBRANCH   7   9
BRANCH   1  21
ATOM     21  C   UNL     1       6.362  -5.699  22.490  0.00  0.00    +0.087 C 
ATOM     22  C   UNL     1       6.132  -5.085  21.089  0.00  0.00    +0.039 C 
ATOM     23  C   UNL     1       7.435  -6.798  22.338  0.00  0.00    +0.039 C 
BRANCH  21  25
ATOM     24  C   UNL     1       3.868  -5.807  23.036  0.00  0.00    +0.301 C 
ATOM     25  N   UNL     1       5.127  -6.378  22.928  0.00  0.00    -0.295 N 
ATOM     26  H   UNL     1       5.123  -7.396  22.917  0.00  0.00    +0.150 HD
ATOM     27  O   UNL     1       3.697  -4.596  22.934  0.00  0.00    -0.265 OA
BRANCH  24  31
ATOM     28  C   UNL     1       1.589  -9.583  25.083  0.00  0.00    +0.111 C 
ATOM     29  C   UNL     1       1.789  -8.422  24.196  0.00  0.00    +0.215 A 
ATOM     30  O   UNL     1       2.966  -7.727  24.309  0.00  0.00    -0.417 OA
ATOM     31  C   UNL     1       2.815  -6.773  23.336  0.00  0.00    +0.304 A 
ATOM     32  N   UNL     1       1.665  -6.866  22.695  0.00  0.00    -0.102 NA
ATOM     33  N   UNL     1       0.999  -7.940  23.259  0.00  0.00    -0.112 NA
ENDBRANCH  24  31
ENDBRANCH  21  25
ENDBRANCH   1  21
BRANCH   6  34
ATOM     34  O   UNL     1       8.843  -1.679  25.758  0.00  0.00    -0.501 OA
ATOM     35  H   UNL     1       8.912  -2.071  26.651  0.00  0.00    +0.292 HD
ENDBRANCH   6  34
TORSDOF 7
ENDMDL
MODEL 3
REMARK VINA RESULT:      -7.6      2.818      3.680
REMARK  Name = 
REMARK  11 active torsions:
REMARK  status: ('A' for Active; 'I' for Inactive)
REMARK    1  A    between atoms: C_1  and  C_2
REMARK    2  A    between atoms: C_5  and  C_7
REMARK    3  A    between atoms: N_9  and  C_10
REMARK    4  A    between atoms: C_10  and  C_11
REMARK    5  A    between atoms: C_10  and  C_12
REMARK    6  A    between atoms: C_10  and  C_13
REMARK    7  A    between atoms: C_15  and  C_22
REMARK    8  A    between atoms: C_16  and  O_21
REMARK    9  A    between atoms: N_19  and  C_20
REMARK   10  A    between atoms: N_24  and  C_25
REMARK   11  A    between atoms: C_25  and  C_26
REMARK                            x       y       z     vdW  Elec       q    Type
REMARK                         _______ _______ _______ _____ _____    ______ ____
ROOT
ATOM      1  C   UNL     1       6.652  -3.166  24.411  0.00  0.00    +0.136 A 
ATOM      2  N   UNL     1       5.710  -2.517  25.191  0.00  0.00    -0.295 N 
ATOM      3  C   UNL     1       4.745  -3.192  26.045  0.00  0.00    +0.154 C 
ATOM      4  C   UNL     1       5.551  -1.145  25.088  0.00  0.00    +0.296 A 
ATOM      5  O   UNL     1       4.636  -0.491  25.595  0.00  0.00    -0.264 OA
ATOM      6  C   UNL     1       6.562  -0.400  24.309  0.00  0.00    +0.213 A 
ATOM      7  C   UNL     1       7.501  -1.125  23.687  0.00  0.00    +0.174 A 
ATOM      8  N   UNL     1       7.533  -2.509  23.703  0.00  0.00    -0.223 NA
ENDROOT
BRANCH   7   9
ATOM      9  C   UNL     1       8.573  -0.377  22.904  0.00  0.00    +0.267 C 
ATOM     10  N   UNL     1       9.233   0.581  23.639  0.00  0.00    -0.306 N 
ATOM     11  H   UNL     1       8.969   0.690  24.611  0.00  0.00    +0.149 HD
ATOM     12  O   UNL     1       8.844  -0.584  21.725  0.00  0.00    -0.268 OA
BRANCH  10  13
ATOM     13  C   UNL     1      10.343   1.326  23.091  0.00  0.00    +0.140 C 
BRANCH  13  14
ATOM     14  C   UNL     1      10.219   2.802  23.371  0.00  0.00    -0.030 A 
ATOM     15  C   UNL     1      11.354   3.629  23.340  0.00  0.00    +0.008 A 
ATOM     16  C   UNL     1      11.238   4.996  23.598  0.00  0.00    +0.038 A 
ATOM     17  C   UNL     1       9.991   5.537  23.877  0.00  0.00    +0.123 A 
ATOM     18  F   UNL     1       9.878   6.850  24.121  0.00  0.00    -0.205 F 
ATOM     19  C   UNL     1       8.855   4.737  23.911  0.00  0.00    +0.038 A 
ATOM     20  C   UNL     1       8.966   3.369  23.657  0.00  0.00    +0.008 A 
ENDBRANCH  13  14
ENDBRANCH  10  13
ENDBRANCH   7   9
BRANCH   1  21
ATOM     21  C   UNL     1       6.833  -4.753  24.457  0.00  0.00    +0.087 C 
ATOM     22  C   UNL     1       7.760  -5.186  23.298  0.00  0.00    +0.039 C 
ATOM     23  C   UNL     1       7.574  -5.062  25.776  0.00  0.00    +0.039 C 
BRANCH  21  25
ATOM     24  C   UNL     1       4.635  -5.612  23.476  0.00  0.00    +0.301 C 
ATOM     25  N   UNL     1       5.623  -5.598  24.450  0.00  0.00    -0.295 N 
ATOM     26  H   UNL     1       5.615  -6.411  25.062  0.00  0.00    +0.150 HD
ATOM     27  O   UNL     1       4.594  -4.769  22.585  0.00  0.00    -0.265 OA
BRANCH  24  31
ATOM     28  C   UNL     1       0.512  -8.145  22.995  0.00  0.00    +0.111 C 
ATOM     29  C   UNL     1       1.858  -7.801  23.492  0.00  0.00    +0.215 A 
ATOM     30  O   UNL     1       2.473  -6.698  22.958  0.00  0.00    -0.417 OA
ATOM     31  C   UNL     1       3.649  -6.672  23.663  0.00  0.00    +0.304 A 
ATOM     32  N   UNL     1       3.750  -7.659  24.534  0.00  0.00    -0.102 NA
ATOM     33  N   UNL     1       2.583  -8.392  24.419  0.00  0.00    -0.112 NA
ENDBRANCH  24  31
ENDBRANCH  21  25
ENDBRANCH   1  21
BRANCH   6  34
ATOM     34  O   UNL     1       6.437   0.975  24.258  0.00  0.00    -0.501 OA
ATOM     35  H   UNL     1       6.285   1.199  23.319  0.00  0.00    +0.292 HD
ENDBRANCH   6  34
TORSDOF 7
ENDMDL
MODEL 4
REMARK VINA RESULT:      -7.5      3.296      5.121
REMARK  Name = 
REMARK  11 active torsions:
REMARK  status: ('A' for Active; 'I' for Inactive)
REMARK    1  A    between atoms: C_1  and  C_2
REMARK    2  A    between atoms: C_5  and  C_7
REMARK    3  A    between atoms: N_9  and  C_10
REMARK    4  A    between atoms: C_10  and  C_11
REMARK    5  A    between atoms: C_10  and  C_12
REMARK    6  A    between atoms: C_10  and  C_13
REMARK    7  A    between atoms: C_15  and  C_22
REMARK    8  A    between atoms: C_16  and  O_21
REMARK    9  A    between atoms: N_19  and  C_20
REMARK   10  A    between atoms: N_24  and  C_25
REMARK   11  A    between atoms: C_25  and  C_26
REMARK                            x       y       z     vdW  Elec       q    Type
REMARK                         _______ _______ _______ _____ _____    ______ ____
ROOT
ATOM      1  C   UNL     1       7.059  -2.489  24.036  0.00  0.00    +0.136 A 
ATOM      2  N   UNL     1       8.286  -3.083  23.793  0.00  0.00    -0.295 N 
ATOM      3  C   UNL     1       8.571  -4.494  24.002  0.00  0.00    +0.154 C 
ATOM      4  C   UNL     1       9.378  -2.303  23.449  0.00  0.00    +0.296 A 
ATOM      5  O   UNL     1      10.545  -2.696  23.383  0.00  0.00    -0.264 OA
ATOM      6  C   UNL     1       9.126  -0.881  23.133  0.00  0.00    +0.213 A 
ATOM      7  C   UNL     1       7.871  -0.440  23.293  0.00  0.00    +0.174 A 
ATOM      8  N   UNL     1       6.840  -1.226  23.778  0.00  0.00    -0.223 NA
ENDROOT
BRANCH   7   9
ATOM      9  C   UNL     1       7.580   1.014  22.942  0.00  0.00    +0.267 C 
ATOM     10  N   UNL     1       8.005   1.913  23.893  0.00  0.00    -0.306 N 
ATOM     11  H   UNL     1       8.476   1.542  24.710  0.00  0.00    +0.149 HD
ATOM     12  O   UNL     1       7.016   1.382  21.916  0.00  0.00    -0.268 OA
BRANCH  10  13
ATOM     13  C   UNL     1       7.897   3.339  23.690  0.00  0.00    +0.140 C 
BRANCH  13  14
ATOM     14  C   UNL     1       9.251   4.002  23.654  0.00  0.00    -0.030 A 
ATOM     15  C   UNL     1       9.367   5.390  23.841  0.00  0.00    +0.008 A 
ATOM     16  C   UNL     1      10.621   6.004  23.809  0.00  0.00    +0.038 A 
ATOM     17  C   UNL     1      11.756   5.232  23.602  0.00  0.00    +0.123 A 
ATOM     18  F   UNL     1      12.960   5.819  23.576  0.00  0.00    -0.205 F 
ATOM     19  C   UNL     1      11.663   3.858  23.418  0.00  0.00    +0.038 A 
ATOM     20  C   UNL     1      10.411   3.241  23.445  0.00  0.00    +0.008 A 
ENDBRANCH  13  14
ENDBRANCH  10  13
ENDBRANCH   7   9
BRANCH   1  21
ATOM     21  C   UNL     1       5.786  -3.343  24.487  0.00  0.00    +0.087 C 
ATOM     22  C   UNL     1       4.610  -2.379  24.770  0.00  0.00    +0.039 C 
ATOM     23  C   UNL     1       5.391  -4.202  23.267  0.00  0.00    +0.039 C 
BRANCH  21  25
ATOM     24  C   UNL     1       6.436  -3.966  26.879  0.00  0.00    +0.301 C 
ATOM     25  N   UNL     1       5.932  -4.273  25.624  0.00  0.00    -0.295 N 
ATOM     26  H   UNL     1       5.403  -5.143  25.589  0.00  0.00    +0.150 HD
ATOM     27  O   UNL     1       6.982  -2.892  27.111  0.00  0.00    -0.265 OA
BRANCH  24  31
ATOM     28  C   UNL     1       4.602  -6.665  30.485  0.00  0.00    +0.111 C 
ATOM     29  C   UNL     1       5.539  -6.254  29.422  0.00  0.00    +0.215 A 
ATOM     30  O   UNL     1       5.216  -5.148  28.678  0.00  0.00    -0.417 OA
ATOM     31  C   UNL     1       6.299  -5.054  27.843  0.00  0.00    +0.304 A 
ATOM     32  N   UNL     1       7.192  -6.005  28.046  0.00  0.00    -0.102 NA
ATOM     33  N   UNL     1       6.692  -6.785  29.074  0.00  0.00    -0.112 NA
ENDBRANCH  24  31
ENDBRANCH  21  25
ENDBRANCH   1  21
BRANCH   6  34
ATOM     34  O   UNL     1      10.206  -0.120  22.731  0.00  0.00    -0.501 OA
ATOM     35  H   UNL     1      10.983  -0.484  23.199  0.00  0.00    +0.292 HD
ENDBRANCH   6  34
TORSDOF 7
ENDMDL
MODEL 5
REMARK VINA RESULT:      -7.4      3.358      5.612
REMARK  Name = 
REMARK  11 active torsions:
REMARK  status: ('A' for Active; 'I' for Inactive)
REMARK    1  A    between atoms: C_1  and  C_2
REMARK    2  A    between atoms: C_5  and  C_7
REMARK    3  A    between atoms: N_9  and  C_10
REMARK    4  A    between atoms: C_10  and  C_11
REMARK    5  A    between atoms: C_10  and  C_12
REMARK    6  A    between atoms: C_10  and  C_13
REMARK    7  A    between atoms: C_15  and  C_22
REMARK    8  A    between atoms: C_16  and  O_21
REMARK    9  A    between atoms: N_19  and  C_20
REMARK   10  A    between atoms: N_24  and  C_25
REMARK   11  A    between atoms: C_25  and  C_26
REMARK                            x       y       z     vdW  Elec       q    Type
REMARK                         _______ _______ _______ _____ _____    ______ ____
ROOT
ATOM      1  C   UNL     1       5.920  -3.163  26.652  0.00  0.00    +0.136 A 
ATOM      2  N   UNL     1       5.954  -4.337  27.387  0.00  0.00    -0.295 N 
ATOM      3  C   UNL     1       4.928  -4.742  28.335  0.00  0.00    +0.154 C 
ATOM      4  C   UNL     1       7.077  -5.146  27.347  0.00  0.00    +0.296 A 
ATOM      5  O   UNL     1       7.289  -6.111  28.086  0.00  0.00    -0.264 OA
ATOM      6  C   UNL     1       8.107  -4.833  26.334  0.00  0.00    +0.213 A 
ATOM      7  C   UNL     1       7.912  -3.732  25.595  0.00  0.00    +0.174 A 
ATOM      8  N   UNL     1       6.841  -2.873  25.771  0.00  0.00    -0.223 NA
ENDROOT
BRANCH   7   9
ATOM      9  C   UNL     1       8.943  -3.406  24.521  0.00  0.00    +0.267 C 
ATOM     10  N   UNL     1       8.553  -2.407  23.660  0.00  0.00    -0.306 N 
ATOM     11  H   UNL     1       7.650  -1.977  23.820  0.00  0.00    +0.149 HD
ATOM     12  O   UNL     1      10.029  -3.968  24.407  0.00  0.00    -0.268 OA
BRANCH  10  13
ATOM     13  C   UNL     1       9.438  -1.901  22.636  0.00  0.00    +0.140 C 
BRANCH  13  14
ATOM     14  C   UNL     1       9.795  -0.455  22.871  0.00  0.00    -0.030 A 
ATOM     15  C   UNL     1       9.779   0.463  21.808  0.00  0.00    +0.008 A 
ATOM     16  C   UNL     1      10.108   1.802  22.026  0.00  0.00    +0.038 A 
ATOM     17  C   UNL     1      10.443   2.225  23.306  0.00  0.00    +0.123 A 
ATOM     18  F   UNL     1      10.755   3.510  23.518  0.00  0.00    -0.205 F 
ATOM     19  C   UNL     1      10.463   1.333  24.372  0.00  0.00    +0.038 A 
ATOM     20  C   UNL     1      10.138  -0.007  24.157  0.00  0.00    +0.008 A 
ENDBRANCH  13  14
ENDBRANCH  10  13
ENDBRANCH   7   9
BRANCH   1  21
ATOM     21  C   UNL     1       4.668  -2.172  26.709  0.00  0.00    +0.087 C 
ATOM     22  C   UNL     1       3.383  -2.967  26.380  0.00  0.00    +0.039 C 
ATOM     23  C   UNL     1       4.556  -1.706  28.176  0.00  0.00    +0.039 C 
BRANCH  21  25
ATOM     24  C   UNL     1       5.610   0.094  25.996  0.00  0.00    +0.301 C 
ATOM     25  N   UNL     1       4.703  -0.949  25.883  0.00  0.00    -0.295 N 
ATOM     26  H   UNL     1       4.191  -0.963  25.003  0.00  0.00    +0.150 HD
ATOM     27  O   UNL     1       6.390   0.173  26.939  0.00  0.00    -0.265 OA
BRANCH  24  31
ATOM     28  C   UNL     1       6.813   2.861  22.182  0.00  0.00    +0.111 C 
ATOM     29  C   UNL     1       5.981   2.322  23.275  0.00  0.00    +0.215 A 
ATOM     30  O   UNL     1       6.494   1.291  24.019  0.00  0.00    -0.417 OA
ATOM     31  C   UNL     1       5.490   1.086  24.931  0.00  0.00    +0.304 A 
ATOM     32  N   UNL     1       4.465   1.900  24.762  0.00  0.00    -0.102 NA
ATOM     33  N   UNL     1       4.788   2.702  23.682  0.00  0.00    -0.112 NA
ENDBRANCH  24  31
ENDBRANCH  21  25
ENDBRANCH   1  21
BRANCH   6  34
ATOM     34  O   UNL     1       9.196  -5.678  26.255  0.00  0.00    -0.501 OA
ATOM     35  H   UNL     1       9.071  -6.208  25.442  0.00  0.00    +0.292 HD
ENDBRANCH   6  34
TORSDOF 7
ENDMDL
MODEL 6
REMARK VINA RESULT:      -7.1      2.356      3.601
REMARK  Name = 
REMARK  11 active torsions:
REMARK  status: ('A' for Active; 'I' for Inactive)
REMARK    1  A    between atoms: C_1  and  C_2
REMARK    2  A    between atoms: C_5  and  C_7
REMARK    3  A    between atoms: N_9  and  C_10
REMARK    4  A    between atoms: C_10  and  C_11
REMARK    5  A    between atoms: C_10  and  C_12
REMARK    6  A    between atoms: C_10  and  C_13
REMARK    7  A    between atoms: C_15  and  C_22
REMARK    8  A    between atoms: C_16  and  O_21
REMARK    9  A    between atoms: N_19  and  C_20
REMARK   10  A    between atoms: N_24  and  C_25
REMARK   11  A    between atoms: C_25  and  C_26
REMARK                            x       y       z     vdW  Elec       q    Type
REMARK                         _______ _______ _______ _____ _____    ______ ____
ROOT
ATOM      1  C   UNL     1       7.177  -2.711  24.853  0.00  0.00    +0.136 A 
ATOM      2  N   UNL     1       8.190  -3.648  24.961  0.00  0.00    -0.295 N 
ATOM      3  C   UNL     1       8.135  -4.822  25.819  0.00  0.00    +0.154 C 
ATOM      4  C   UNL     1       9.404  -3.433  24.330  0.00  0.00    +0.296 A 
ATOM      5  O   UNL     1      10.426  -4.102  24.498  0.00  0.00    -0.264 OA
ATOM      6  C   UNL     1       9.484  -2.308  23.374  0.00  0.00    +0.213 A 
ATOM      7  C   UNL     1       8.398  -1.530  23.264  0.00  0.00    +0.174 A 
ATOM      8  N   UNL     1       7.255  -1.702  24.025  0.00  0.00    -0.223 NA
ENDROOT
BRANCH   7   9
ATOM      9  C   UNL     1       8.445  -0.384  22.261  0.00  0.00    +0.267 C 
ATOM     10  N   UNL     1       7.565   0.636  22.541  0.00  0.00    -0.306 N 
ATOM     11  H   UNL     1       6.994   0.548  23.373  0.00  0.00    +0.149 HD
ATOM     12  O   UNL     1       9.183  -0.347  21.282  0.00  0.00    -0.268 OA
BRANCH  10  13
ATOM     13  C   UNL     1       7.533   1.847  21.753  0.00  0.00    +0.140 C 
BRANCH  13  14
ATOM     14  C   UNL     1       8.037   3.035  22.533  0.00  0.00    -0.030 A 
ATOM     15  C   UNL     1       7.409   4.285  22.406  0.00  0.00    +0.008 A 
ATOM     16  C   UNL     1       7.875   5.385  23.130  0.00  0.00    +0.038 A 
ATOM     17  C   UNL     1       8.959   5.233  23.984  0.00  0.00    +0.123 A 
ATOM     18  F   UNL     1       9.404   6.286  24.683  0.00  0.00    -0.205 F 
ATOM     19  C   UNL     1       9.592   4.004  24.126  0.00  0.00    +0.038 A 
ATOM     20  C   UNL     1       9.132   2.903  23.402  0.00  0.00    +0.008 A 
ENDBRANCH  13  14
ENDBRANCH  10  13
ENDBRANCH   7   9
BRANCH   1  21
ATOM     21  C   UNL     1       5.780  -2.892  25.607  0.00  0.00    +0.087 C 
ATOM     22  C   UNL     1       6.018  -2.799  27.133  0.00  0.00    +0.039 C 
ATOM     23  C   UNL     1       4.914  -1.680  25.204  0.00  0.00    +0.039 C 
BRANCH  21  25
ATOM     24  C   UNL     1       4.780  -4.672  24.070  0.00  0.00    +0.301 C 
ATOM     25  N   UNL     1       4.976  -4.095  25.316  0.00  0.00    -0.295 N 
ATOM     26  H   UNL     1       4.744  -4.704  26.099  0.00  0.00    +0.150 HD
ATOM     27  O   UNL     1       5.135  -4.114  23.037  0.00  0.00    -0.265 OA
BRANCH  24  31
ATOM     28  C   UNL     1       1.300  -7.994  23.366  0.00  0.00    +0.111 C 
ATOM     29  C   UNL     1       2.571  -7.425  23.852  0.00  0.00    +0.215 A 
ATOM     30  O   UNL     1       2.880  -6.141  23.479  0.00  0.00    -0.417 OA
ATOM     31  C   UNL     1       4.074  -5.949  24.125  0.00  0.00    +0.304 A 
ATOM     32  N   UNL     1       4.462  -7.003  24.818  0.00  0.00    -0.102 NA
ATOM     33  N   UNL     1       3.482  -7.962  24.636  0.00  0.00    -0.112 NA
ENDBRANCH  24  31
ENDBRANCH  21  25
ENDBRANCH   1  21
BRANCH   6  34
ATOM     34  O   UNL     1      10.676  -2.131  22.700  0.00  0.00    -0.501 OA
ATOM     35  H   UNL     1      10.440  -1.794  21.814  0.00  0.00    +0.292 HD
ENDBRANCH   6  34
TORSDOF 7
ENDMDL
MODEL 7
REMARK VINA RESULT:      -7.1      4.568     10.244
REMARK  Name = 
REMARK  11 active torsions:
REMARK  status: ('A' for Active; 'I' for Inactive)
REMARK    1  A    between atoms: C_1  and  C_2
REMARK    2  A    between atoms: C_5  and  C_7
REMARK    3  A    between atoms: N_9  and  C_10
REMARK    4  A    between atoms: C_10  and  C_11
REMARK    5  A    between atoms: C_10  and  C_12
REMARK    6  A    between atoms: C_10  and  C_13
REMARK    7  A    between atoms: C_15  and  C_22
REMARK    8  A    between atoms: C_16  and  O_21
REMARK    9  A    between atoms: N_19  and  C_20
REMARK   10  A    between atoms: N_24  and  C_25
REMARK   11  A    between atoms: C_25  and  C_26
REMARK                            x       y       z     vdW  Elec       q    Type
REMARK                         _______ _______ _______ _____ _____    ______ ____
ROOT
ATOM      1  C   UNL     1       8.530  -0.000  24.228  0.00  0.00    +0.136 A 
ATOM      2  N   UNL     1       9.513  -0.356  23.320  0.00  0.00    -0.295 N 
ATOM      3  C   UNL     1      10.082   0.544  22.330  0.00  0.00    +0.154 C 
ATOM      4  C   UNL     1       9.924  -1.676  23.225  0.00  0.00    +0.296 A 
ATOM      5  O   UNL     1      10.654  -2.136  22.345  0.00  0.00    -0.264 OA
ATOM      6  C   UNL     1       9.449  -2.612  24.266  0.00  0.00    +0.213 A 
ATOM      7  C   UNL     1       8.585  -2.127  25.167  0.00  0.00    +0.174 A 
ATOM      8  N   UNL     1       8.093  -0.834  25.135  0.00  0.00    -0.223 NA
ENDROOT
BRANCH   7   9
ATOM      9  C   UNL     1       8.107  -3.065  26.270  0.00  0.00    +0.267 C 
ATOM     10  N   UNL     1       6.738  -3.179  26.349  0.00  0.00    -0.306 N 
ATOM     11  H   UNL     1       6.185  -2.661  25.677  0.00  0.00    +0.149 HD
ATOM     12  O   UNL     1       8.849  -3.672  27.035  0.00  0.00    -0.268 OA
BRANCH  10  13
ATOM     13  C   UNL     1       6.106  -4.094  27.272  0.00  0.00    +0.140 C 
BRANCH  13  14
ATOM     14  C   UNL     1       5.306  -5.150  26.552  0.00  0.00    -0.030 A 
ATOM     15  C   UNL     1       4.243  -5.799  27.201  0.00  0.00    +0.008 A 
ATOM     16  C   UNL     1       3.501  -6.777  26.534  0.00  0.00    +0.038 A 
ATOM     17  C   UNL     1       3.815  -7.097  25.220  0.00  0.00    +0.123 A 
ATOM     18  F   UNL     1       3.101  -8.031  24.578  0.00  0.00    -0.205 F 
ATOM     19  C   UNL     1       4.861  -6.464  24.560  0.00  0.00    +0.038 A 
ATOM     20  C   UNL     1       5.607  -5.489  25.224  0.00  0.00    +0.008 A 
ENDBRANCH  13  14
ENDBRANCH  10  13
ENDBRANCH   7   9
BRANCH   1  21
ATOM     21  C   UNL     1       7.988   1.499  24.334  0.00  0.00    +0.087 C 
ATOM     22  C   UNL     1       6.778   1.664  23.385  0.00  0.00    +0.039 C 
ATOM     23  C   UNL     1       7.464   1.664  25.777  0.00  0.00    +0.039 C 
BRANCH  21  25
ATOM     24  C   UNL     1       8.676   3.959  24.267  0.00  0.00    +0.301 C 
ATOM     25  N   UNL     1       8.936   2.606  24.105  0.00  0.00    -0.295 N 
ATOM     26  H   UNL     1       9.927   2.374  24.064  0.00  0.00    +0.150 HD
ATOM     27  O   UNL     1       7.541   4.380  24.461  0.00  0.00    -0.265 OA
BRANCH  24  31
ATOM     28  C   UNL     1      13.183   5.323  23.050  0.00  0.00    +0.111 C 
ATOM     29  C   UNL     1      11.827   5.430  23.622  0.00  0.00    +0.215 A 
ATOM     30  O   UNL     1      10.976   4.368  23.451  0.00  0.00    -0.417 OA
ATOM     31  C   UNL     1       9.862   4.800  24.123  0.00  0.00    +0.304 A 
ATOM     32  N   UNL     1      10.008   6.002  24.647  0.00  0.00    -0.102 NA
ATOM     33  N   UNL     1      11.288   6.410  24.317  0.00  0.00    -0.112 NA
ENDBRANCH  24  31
ENDBRANCH  21  25
ENDBRANCH   1  21
BRANCH   6  34
ATOM     34  O   UNL     1       9.908  -3.913  24.205  0.00  0.00    -0.501 OA
ATOM     35  H   UNL     1       9.860  -4.262  25.118  0.00  0.00    +0.292 HD
ENDBRANCH   6  34
TORSDOF 7
ENDMDL
MODEL 8
REMARK VINA RESULT:      -6.9      4.616      6.660
REMARK  Name = 
REMARK  11 active torsions:
REMARK  status: ('A' for Active; 'I' for Inactive)
REMARK    1  A    between atoms: C_1  and  C_2
REMARK    2  A    between atoms: C_5  and  C_7
REMARK    3  A    between atoms: N_9  and  C_10
REMARK    4  A    between atoms: C_10  and  C_11
REMARK    5  A    between atoms: C_10  and  C_12
REMARK    6  A    between atoms: C_10  and  C_13
REMARK    7  A    between atoms: C_15  and  C_22
REMARK    8  A    between atoms: C_16  and  O_21
REMARK    9  A    between atoms: N_19  and  C_20
REMARK   10  A    between atoms: N_24  and  C_25
REMARK   11  A    between atoms: C_25  and  C_26
REMARK                            x       y       z     vdW  Elec       q    Type
REMARK                         _______ _______ _______ _____ _____    ______ ____
ROOT
ATOM      1  C   UNL     1       7.142   0.390  25.406  0.00  0.00    +0.136 A 
ATOM      2  N   UNL     1       5.900   0.145  25.967  0.00  0.00    -0.295 N 
ATOM      3  C   UNL     1       5.465  -1.150  26.466  0.00  0.00    +0.154 C 
ATOM      4  C   UNL     1       4.929   1.132  25.958  0.00  0.00    +0.296 A 
ATOM      5  O   UNL     1       3.745   0.974  26.264  0.00  0.00    -0.264 OA
ATOM      6  C   UNL     1       5.344   2.491  25.549  0.00  0.00    +0.213 A 
ATOM      7  C   UNL     1       6.609   2.637  25.132  0.00  0.00    +0.174 A 
ATOM      8  N   UNL     1       7.504   1.586  25.024  0.00  0.00    -0.223 NA
ENDROOT
BRANCH   7   9
ATOM      9  C   UNL     1       7.069   4.035  24.737  0.00  0.00    +0.267 C 
ATOM     10  N   UNL     1       8.160   4.482  25.446  0.00  0.00    -0.306 N 
ATOM     11  H   UNL     1       8.561   3.856  26.134  0.00  0.00    +0.149 HD
ATOM     12  O   UNL     1       6.535   4.725  23.874  0.00  0.00    -0.268 OA
BRANCH  10  13
ATOM     13  C   UNL     1       8.793   5.746  25.145  0.00  0.00    +0.140 C 
BRANCH  13  14
ATOM     14  C   UNL     1      10.162   5.556  24.542  0.00  0.00    -0.030 A 
ATOM     15  C   UNL     1      11.183   6.489  24.791  0.00  0.00    +0.008 A 
ATOM     16  C   UNL     1      12.451   6.312  24.233  0.00  0.00    +0.038 A 
ATOM     17  C   UNL     1      12.701   5.201  23.438  0.00  0.00    +0.123 A 
ATOM     18  F   UNL     1      13.918   5.028  22.906  0.00  0.00    -0.205 F 
ATOM     19  C   UNL     1      11.705   4.266  23.182  0.00  0.00    +0.038 A 
ATOM     20  C   UNL     1      10.435   4.441  23.734  0.00  0.00    +0.008 A 
ENDBRANCH  13  14
ENDBRANCH  10  13
ENDBRANCH   7   9
BRANCH   1  21
ATOM     21  C   UNL     1       8.274  -0.737  25.346  0.00  0.00    +0.087 C 
ATOM     22  C   UNL     1       9.556  -0.127  24.733  0.00  0.00    +0.039 C 
ATOM     23  C   UNL     1       8.596  -1.100  26.811  0.00  0.00    +0.039 C 
BRANCH  21  25
ATOM     24  C   UNL     1       7.391  -2.143  23.404  0.00  0.00    +0.301 C 
ATOM     25  N   UNL     1       7.966  -2.006  24.659  0.00  0.00    -0.295 N 
ATOM     26  H   UNL     1       8.426  -2.848  25.001  0.00  0.00    +0.150 HD
ATOM     27  O   UNL     1       6.914  -1.185  22.804  0.00  0.00    -0.265 OA
BRANCH  24  31
ATOM     28  C   UNL     1       6.198  -6.018  20.719  0.00  0.00    +0.111 C 
ATOM     29  C   UNL     1       6.859  -5.242  21.785  0.00  0.00    +0.215 A 
ATOM     30  O   UNL     1       6.643  -3.888  21.818  0.00  0.00    -0.417 OA
ATOM     31  C   UNL     1       7.364  -3.522  22.925  0.00  0.00    +0.304 A 
ATOM     32  N   UNL     1       7.965  -4.542  23.510  0.00  0.00    -0.102 NA
ATOM     33  N   UNL     1       7.635  -5.659  22.764  0.00  0.00    -0.112 NA
ENDBRANCH  24  31
ENDBRANCH  21  25
ENDBRANCH   1  21
BRANCH   6  34
ATOM     34  O   UNL     1       4.389   3.488  25.599  0.00  0.00    -0.501 OA
ATOM     35  H   UNL     1       4.823   4.258  26.016  0.00  0.00    +0.292 HD
ENDBRANCH   6  34
TORSDOF 7
ENDMDL
MODEL 9
REMARK VINA RESULT:      -6.9      4.772      9.905
REMARK  Name = 
REMARK  11 active torsions:
REMARK  status: ('A' for Active; 'I' for Inactive)
REMARK    1  A    between atoms: C_1  and  C_2
REMARK    2  A    between atoms: C_5  and  C_7
REMARK    3  A    between atoms: N_9  and  C_10
REMARK    4  A    between atoms: C_10  and  C_11
REMARK    5  A    between atoms: C_10  and  C_12
REMARK    6  A    between atoms: C_10  and  C_13
REMARK    7  A    between atoms: C_15  and  C_22
REMARK    8  A    between atoms: C_16  and  O_21
REMARK    9  A    between atoms: N_19  and  C_20
REMARK   10  A    between atoms: N_24  and  C_25
REMARK   11  A    between atoms: C_25  and  C_26
REMARK                            x       y       z     vdW  Elec       q    Type
REMARK                         _______ _______ _______ _____ _____    ______ ____
ROOT
ATOM      1  C   UNL     1       8.022  -0.365  23.706  0.00  0.00    +0.136 A 
ATOM      2  N   UNL     1       7.437   0.035  24.895  0.00  0.00    -0.295 N 
ATOM      3  C   UNL     1       7.875   1.176  25.683  0.00  0.00    +0.154 C 
ATOM      4  C   UNL     1       6.450  -0.743  25.478  0.00  0.00    +0.296 A 
ATOM      5  O   UNL     1       5.988  -0.581  26.610  0.00  0.00    -0.264 OA
ATOM      6  C   UNL     1       5.902  -1.859  24.679  0.00  0.00    +0.213 A 
ATOM      7  C   UNL     1       6.471  -2.084  23.487  0.00  0.00    +0.174 A 
ATOM      8  N   UNL     1       7.553  -1.366  23.008  0.00  0.00    -0.223 NA
ENDROOT
BRANCH   7   9
ATOM      9  C   UNL     1       5.901  -3.209  22.630  0.00  0.00    +0.267 C 
ATOM     10  N   UNL     1       5.947  -4.445  23.232  0.00  0.00    -0.306 N 
ATOM     11  H   UNL     1       6.326  -4.495  24.170  0.00  0.00    +0.149 HD
ATOM     12  O   UNL     1       5.442  -3.059  21.502  0.00  0.00    -0.268 OA
BRANCH  10  13
ATOM     13  C   UNL     1       5.369  -5.613  22.609  0.00  0.00    +0.140 C 
BRANCH  13  14
ATOM     14  C   UNL     1       4.275  -6.215  23.454  0.00  0.00    -0.030 A 
ATOM     15  C   UNL     1       4.582  -6.830  24.680  0.00  0.00    +0.008 A 
ATOM     16  C   UNL     1       3.569  -7.385  25.464  0.00  0.00    +0.038 A 
ATOM     17  C   UNL     1       2.252  -7.318  25.029  0.00  0.00    +0.123 A 
ATOM     18  F   UNL     1       1.278  -7.846  25.783  0.00  0.00    -0.205 F 
ATOM     19  C   UNL     1       1.927  -6.711  23.821  0.00  0.00    +0.038 A 
ATOM     20  C   UNL     1       2.937  -6.158  23.033  0.00  0.00    +0.008 A 
ENDBRANCH  13  14
ENDBRANCH  10  13
ENDBRANCH   7   9
BRANCH   1  21
ATOM     21  C   UNL     1       9.200   0.473  23.025  0.00  0.00    +0.087 C 
ATOM     22  C   UNL     1      10.528   0.148  23.748  0.00  0.00    +0.039 C 
ATOM     23  C   UNL     1       9.324  -0.057  21.580  0.00  0.00    +0.039 C 
BRANCH  21  25
ATOM     24  C   UNL     1       7.939   2.621  22.454  0.00  0.00    +0.301 C 
ATOM     25  N   UNL     1       9.051   1.937  22.922  0.00  0.00    -0.295 N 
ATOM     26  H   UNL     1       9.699   2.513  23.457  0.00  0.00    +0.150 HD
ATOM     27  O   UNL     1       7.008   2.040  21.905  0.00  0.00    -0.265 OA
BRANCH  24  31
ATOM     28  C   UNL     1       9.352   6.922  24.227  0.00  0.00    +0.111 C 
ATOM     29  C   UNL     1       8.609   5.966  23.385  0.00  0.00    +0.215 A 
ATOM     30  O   UNL     1       8.914   4.634  23.510  0.00  0.00    -0.417 OA
ATOM     31  C   UNL     1       8.029   4.067  22.629  0.00  0.00    +0.304 A 
ATOM     32  N   UNL     1       7.264   4.955  22.023  0.00  0.00    -0.102 NA
ATOM     33  N   UNL     1       7.645   6.190  22.517  0.00  0.00    -0.112 NA
ENDBRANCH  24  31
ENDBRANCH  21  25
ENDBRANCH   1  21
BRANCH   6  34
ATOM     34  O   UNL     1       4.876  -2.595  25.237  0.00  0.00    -0.501 OA
ATOM     35  H   UNL     1       4.772  -2.266  26.152  0.00  0.00    +0.292 HD
ENDBRANCH   6  34
TORSDOF 7
ENDMDL
