MODEL 1
REMARK VINA RESULT:      -6.6      0.000      0.000
REMARK  Name = 
REMARK  2 active torsions:
REMARK  status: ('A' for Active; 'I' for Inactive)
REMARK    1  A    between atoms: C_1  and  C_2
REMARK    2  A    between atoms: N_17  and  C_18
REMARK                            x       y       z     vdW  Elec       q    Type
REMARK                         _______ _______ _______ _____ _____    ______ ____
ROOT
ATOM      1  C   UNL     1       8.412   1.391  21.339  0.00  0.00    +0.009 C 
ATOM      2  C   UNL     1       9.818   1.237  21.951  0.00  0.00    +0.010 C 
ATOM      3  C   UNL     1       9.937   0.073  22.960  0.00  0.00    +0.107 C 
ATOM      4  N   UNL     1       9.347  -1.126  22.375  0.00  0.00    -0.309 N 
ATOM      5  H   UNL     1       8.381  -0.963  22.118  0.00  0.00    +0.149 HD
ATOM      6  C   UNL     1       9.492  -2.268  23.135  0.00  0.00    +0.219 C 
ATOM      7  C   UNL     1       8.212  -2.579  23.885  0.00  0.00    +0.107 C 
ATOM      8  C   UNL     1       8.260  -1.681  25.152  0.00  0.00    +0.138 C 
ATOM      9  N   UNL     1       8.079  -0.212  24.785  0.00  0.00    -0.266 NA
ATOM     10  N   UNL     1       7.286  -2.127  26.166  0.00  0.00    -0.300 NA
ATOM     11  H   UNL     1       7.506  -1.634  27.029  0.00  0.00    +0.123 HD
ATOM     12  C   UNL     1       7.399  -3.556  26.468  0.00  0.00    +0.082 C 
ATOM     13  C   UNL     1       7.092  -4.381  25.230  0.00  0.00    +0.016 C 
ATOM     14  C   UNL     1       8.132  -4.082  24.165  0.00  0.00    +0.017 C 
ATOM     15  O   UNL     1      10.568  -2.805  23.360  0.00  0.00    -0.275 OA
ATOM     16  C   UNL     1       9.403   0.398  24.444  0.00  0.00    +0.147 C 
ATOM     17  N   UNL     1       9.570   1.787  24.860  0.00  0.00    -0.300 NA
ATOM     18  H   UNL     1       8.999   1.976  25.676  0.00  0.00    +0.123 HD
ATOM     19  C   UNL     1       9.423   2.811  23.843  0.00  0.00    +0.083 C 
ATOM     20  C   UNL     1      10.284   2.525  22.620  0.00  0.00    +0.020 C 
ENDROOT
BRANCH   9  21
ATOM     21  C   UNL     1       7.059   0.522  25.586  0.00  0.00    +0.060 C 
ATOM     22  C   UNL     1       5.693   0.620  24.928  0.00  0.00    +0.020 C 
ATOM     23  C   UNL     1       6.406   1.855  25.344  0.00  0.00    +0.020 C 
ENDBRANCH   9  21
TORSDOF 1
ENDMDL
MODEL 2
REMARK VINA RESULT:      -6.5      1.751      4.928
REMARK  Name = 
REMARK  2 active torsions:
REMARK  status: ('A' for Active; 'I' for Inactive)
REMARK    1  A    between atoms: C_1  and  C_2
REMARK    2  A    between atoms: N_17  and  C_18
REMARK                            x       y       z     vdW  Elec       q    Type
REMARK                         _______ _______ _______ _____ _____    ______ ____
ROOT
ATOM      1  C   UNL     1       7.863  -4.885  25.367  0.00  0.00    +0.009 C 
ATOM      2  C   UNL     1       7.903  -4.891  23.827  0.00  0.00    +0.010 C 
ATOM      3  C   UNL     1       8.318  -3.538  23.207  0.00  0.00    +0.107 C 
ATOM      4  N   UNL     1       9.512  -3.049  23.887  0.00  0.00    -0.309 N 
ATOM      5  H   UNL     1       9.348  -2.960  24.882  0.00  0.00    +0.149 HD
ATOM      6  C   UNL     1      10.051  -1.900  23.348  0.00  0.00    +0.219 C 
ATOM      7  C   UNL     1       9.663  -0.688  24.173  0.00  0.00    +0.107 C 
ATOM      8  C   UNL     1       8.243  -0.303  23.677  0.00  0.00    +0.138 C 
ATOM      9  N   UNL     1       7.214  -1.341  24.112  0.00  0.00    -0.266 NA
ATOM     10  N   UNL     1       7.874   1.060  24.104  0.00  0.00    -0.300 NA
ATOM     11  H   UNL     1       7.036   1.319  23.586  0.00  0.00    +0.123 HD
ATOM     12  C   UNL     1       8.894   2.055  23.761  0.00  0.00    +0.082 C 
ATOM     13  C   UNL     1      10.193   1.747  24.485  0.00  0.00    +0.016 C 
ATOM     14  C   UNL     1      10.721   0.407  24.007  0.00  0.00    +0.017 C 
ATOM     15  O   UNL     1      10.558  -1.840  22.236  0.00  0.00    -0.275 OA
ATOM     16  C   UNL     1       7.141  -2.444  23.102  0.00  0.00    +0.147 C 
ATOM     17  N   UNL     1       5.809  -3.002  22.890  0.00  0.00    -0.300 NA
ATOM     18  H   UNL     1       5.104  -2.300  23.086  0.00  0.00    +0.123 HD
ATOM     19  C   UNL     1       5.508  -4.270  23.528  0.00  0.00    +0.083 C 
ATOM     20  C   UNL     1       6.567  -5.323  23.231  0.00  0.00    +0.020 C 
ENDROOT
BRANCH   9  21
ATOM     21  C   UNL     1       5.992  -0.791  24.764  0.00  0.00    +0.060 C 
ATOM     22  C   UNL     1       6.062  -0.730  26.281  0.00  0.00    +0.020 C 
ATOM     23  C   UNL     1       4.956  -1.468  25.618  0.00  0.00    +0.020 C 
ENDBRANCH   9  21
TORSDOF 1
ENDMDL
MODEL 3
REMARK VINA RESULT:      -6.5      3.103      4.417
REMARK  Name = 
REMARK  2 active torsions:
REMARK  status: ('A' for Active; 'I' for Inactive)
REMARK    1  A    between atoms: C_1  and  C_2
REMARK    2  A    between atoms: N_17  and  C_18
REMARK                            x       y       z     vdW  Elec       q    Type
REMARK                         _______ _______ _______ _____ _____    ______ ____
ROOT
ATOM      1  C   UNL     1       7.424  -0.675  22.931  0.00  0.00    +0.009 C 
ATOM      2  C   UNL     1       8.249  -1.705  22.135  0.00  0.00    +0.010 C 
ATOM      3  C   UNL     1       7.709  -3.150  22.235  0.00  0.00    +0.107 C 
ATOM      4  N   UNL     1       6.271  -3.137  21.990  0.00  0.00    -0.309 N 
ATOM      5  H   UNL     1       5.800  -2.525  22.644  0.00  0.00    +0.149 HD
ATOM      6  C   UNL     1       5.686  -4.385  21.938  0.00  0.00    +0.219 C 
ATOM      7  C   UNL     1       4.981  -4.701  23.243  0.00  0.00    +0.107 C 
ATOM      8  C   UNL     1       6.099  -5.220  24.188  0.00  0.00    +0.138 C 
ATOM      9  N   UNL     1       7.042  -4.090  24.587  0.00  0.00    -0.266 NA
ATOM     10  N   UNL     1       5.535  -5.916  25.359  0.00  0.00    -0.300 NA
ATOM     11  H   UNL     1       6.305  -6.396  25.821  0.00  0.00    +0.123 HD
ATOM     12  C   UNL     1       4.566  -6.951  24.989  0.00  0.00    +0.082 C 
ATOM     13  C   UNL     1       3.375  -6.328  24.283  0.00  0.00    +0.016 C 
ATOM     14  C   UNL     1       3.844  -5.695  22.986  0.00  0.00    +0.017 C 
ATOM     15  O   UNL     1       5.912  -5.209  21.062  0.00  0.00    -0.275 OA
ATOM     16  C   UNL     1       8.130  -3.946  23.568  0.00  0.00    +0.147 C 
ATOM     17  N   UNL     1       9.437  -3.584  24.106  0.00  0.00    -0.300 NA
ATOM     18  H   UNL     1       9.528  -3.923  25.058  0.00  0.00    +0.123 HD
ATOM     19  C   UNL     1       9.850  -2.199  23.980  0.00  0.00    +0.083 C 
ATOM     20  C   UNL     1       9.716  -1.693  22.550  0.00  0.00    +0.020 C 
ENDROOT
BRANCH   9  21
ATOM     21  C   UNL     1       7.314  -3.975  26.048  0.00  0.00    +0.060 C 
ATOM     22  C   UNL     1       6.535  -2.875  26.748  0.00  0.00    +0.020 C 
ATOM     23  C   UNL     1       8.018  -2.897  26.825  0.00  0.00    +0.020 C 
ENDBRANCH   9  21
TORSDOF 1
ENDMDL
MODEL 4
REMARK VINA RESULT:      -6.3      1.953      5.693
REMARK  Name = 
REMARK  2 active torsions:
REMARK  status: ('A' for Active; 'I' for Inactive)
REMARK    1  A    between atoms: C_1  and  C_2
REMARK    2  A    between atoms: N_17  and  C_18
REMARK                            x       y       z     vdW  Elec       q    Type
REMARK                         _______ _______ _______ _____ _____    ______ ____
ROOT
ATOM      1  C   UNL     1       5.989  -3.552  26.448  0.00  0.00    +0.009 C 
ATOM      2  C   UNL     1       7.467  -3.683  26.863  0.00  0.00    +0.010 C 
ATOM      3  C   UNL     1       8.426  -2.782  26.053  0.00  0.00    +0.107 C 
ATOM      4  N   UNL     1       7.880  -1.430  26.005  0.00  0.00    -0.309 N 
ATOM      5  H   UNL     1       6.952  -1.431  25.601  0.00  0.00    +0.149 HD
ATOM      6  C   UNL     1       8.702  -0.499  25.404  0.00  0.00    +0.219 C 
ATOM      7  C   UNL     1       8.251  -0.222  23.983  0.00  0.00    +0.107 C 
ATOM      8  C   UNL     1       8.863  -1.370  23.136  0.00  0.00    +0.138 C 
ATOM      9  N   UNL     1       8.182  -2.699  23.446  0.00  0.00    -0.266 NA
ATOM     10  N   UNL     1       8.835  -1.052  21.696  0.00  0.00    -0.300 NA
ATOM     11  H   UNL     1       9.422  -1.739  21.226  0.00  0.00    +0.123 HD
ATOM     12  C   UNL     1       9.416   0.260  21.396  0.00  0.00    +0.082 C 
ATOM     13  C   UNL     1       8.607   1.358  22.064  0.00  0.00    +0.016 C 
ATOM     14  C   UNL     1       8.688   1.186  23.570  0.00  0.00    +0.017 C 
ATOM     15  O   UNL     1       9.777  -0.139  25.866  0.00  0.00    -0.275 OA
ATOM     16  C   UNL     1       8.852  -3.358  24.612  0.00  0.00    +0.147 C 
ATOM     17  N   UNL     1       8.931  -4.814  24.538  0.00  0.00    -0.300 NA
ATOM     18  H   UNL     1       8.951  -5.112  23.569  0.00  0.00    +0.123 HD
ATOM     19  C   UNL     1       7.976  -5.574  25.322  0.00  0.00    +0.083 C 
ATOM     20  C   UNL     1       7.950  -5.126  26.778  0.00  0.00    +0.020 C 
ENDROOT
BRANCH   9  21
ATOM     21  C   UNL     1       7.733  -3.476  22.256  0.00  0.00    +0.060 C 
ATOM     22  C   UNL     1       6.253  -3.341  21.939  0.00  0.00    +0.020 C 
ATOM     23  C   UNL     1       6.844  -4.685  22.162  0.00  0.00    +0.020 C 
ENDBRANCH   9  21
TORSDOF 1
ENDMDL
MODEL 5
REMARK VINA RESULT:      -6.3      1.379      1.663
REMARK  Name = 
REMARK  2 active torsions:
REMARK  status: ('A' for Active; 'I' for Inactive)
REMARK    1  A    between atoms: C_1  and  C_2
REMARK    2  A    between atoms: N_17  and  C_18
REMARK                            x       y       z     vdW  Elec       q    Type
REMARK                         _______ _______ _______ _____ _____    ______ ____
ROOT
ATOM      1  C   UNL     1       8.817  -0.154  22.090  0.00  0.00    +0.009 C 
ATOM      2  C   UNL     1      10.078  -0.451  22.924  0.00  0.00    +0.010 C 
ATOM      3  C   UNL     1       9.864  -1.514  24.025  0.00  0.00    +0.107 C 
ATOM      4  N   UNL     1       9.180  -2.665  23.447  0.00  0.00    -0.309 N 
ATOM      5  H   UNL     1       8.300  -2.389  23.030  0.00  0.00    +0.149 HD
ATOM      6  C   UNL     1       9.031  -3.735  24.304  0.00  0.00    +0.219 C 
ATOM      7  C   UNL     1       7.623  -3.780  24.866  0.00  0.00    +0.107 C 
ATOM      8  C   UNL     1       7.632  -2.779  26.053  0.00  0.00    +0.138 C 
ATOM      9  N   UNL     1       7.742  -1.342  25.552  0.00  0.00    -0.266 NA
ATOM     10  N   UNL     1       6.465  -2.974  26.933  0.00  0.00    -0.300 NA
ATOM     11  H   UNL     1       6.635  -2.436  27.780  0.00  0.00    +0.123 HD
ATOM     12  C   UNL     1       6.303  -4.368  27.356  0.00  0.00    +0.082 C 
ATOM     13  C   UNL     1       6.049  -5.257  26.151  0.00  0.00    +0.016 C 
ATOM     14  C   UNL     1       7.265  -5.220  25.243  0.00  0.00    +0.017 C 
ATOM     15  O   UNL     1       9.964  -4.400  24.735  0.00  0.00    -0.275 OA
ATOM     16  C   UNL     1       9.182  -0.969  25.377  0.00  0.00    +0.147 C 
ATOM     17  N   UNL     1       9.508   0.414  25.709  0.00  0.00    -0.300 NA
ATOM     18  H   UNL     1       8.863   0.765  26.409  0.00  0.00    +0.123 HD
ATOM     19  C   UNL     1       9.673   1.343  24.606  0.00  0.00    +0.083 C 
ATOM     20  C   UNL     1      10.644   0.815  23.558  0.00  0.00    +0.020 C 
ENDROOT
BRANCH   9  21
ATOM     21  C   UNL     1       6.749  -0.391  26.126  0.00  0.00    +0.060 C 
ATOM     22  C   UNL     1       5.533  -0.145  25.248  0.00  0.00    +0.020 C 
ATOM     23  C   UNL     1       6.369   0.999  25.693  0.00  0.00    +0.020 C 
ENDBRANCH   9  21
TORSDOF 1
ENDMDL
MODEL 6
REMARK VINA RESULT:      -6.0      1.724      1.990
REMARK  Name = 
REMARK  2 active torsions:
REMARK  status: ('A' for Active; 'I' for Inactive)
REMARK    1  A    between atoms: C_1  and  C_2
REMARK    2  A    between atoms: N_17  and  C_18
REMARK                            x       y       z     vdW  Elec       q    Type
REMARK                         _______ _______ _______ _____ _____    ______ ____
ROOT
ATOM      1  C   UNL     1       9.807   0.450  21.874  0.00  0.00    +0.009 C 
ATOM      2  C   UNL     1      10.481  -0.245  23.072  0.00  0.00    +0.010 C 
ATOM      3  C   UNL     1       9.585  -1.291  23.773  0.00  0.00    +0.107 C 
ATOM      4  N   UNL     1       8.994  -2.163  22.765  0.00  0.00    -0.309 N 
ATOM      5  H   UNL     1       8.466  -1.624  22.089  0.00  0.00    +0.149 HD
ATOM      6  C   UNL     1       8.260  -3.215  23.272  0.00  0.00    +0.219 C 
ATOM      7  C   UNL     1       6.776  -2.916  23.201  0.00  0.00    +0.107 C 
ATOM      8  C   UNL     1       6.479  -2.051  24.456  0.00  0.00    +0.138 C 
ATOM      9  N   UNL     1       7.101  -0.665  24.321  0.00  0.00    -0.266 NA
ATOM     10  N   UNL     1       5.033  -1.988  24.738  0.00  0.00    -0.300 NA
ATOM     11  H   UNL     1       4.927  -1.584  25.667  0.00  0.00    +0.123 HD
ATOM     12  C   UNL     1       4.409  -3.312  24.791  0.00  0.00    +0.082 C 
ATOM     13  C   UNL     1       4.523  -4.001  23.442  0.00  0.00    +0.016 C 
ATOM     14  C   UNL     1       5.990  -4.228  23.125  0.00  0.00    +0.017 C 
ATOM     15  O   UNL     1       8.745  -4.141  23.908  0.00  0.00    -0.275 OA
ATOM     16  C   UNL     1       8.516  -0.688  24.813  0.00  0.00    +0.147 C 
ATOM     17  N   UNL     1       8.951   0.523  25.501  0.00  0.00    -0.300 NA
ATOM     18  H   UNL     1       8.157   0.981  25.935  0.00  0.00    +0.123 HD
ATOM     19  C   UNL     1       9.776   1.454  24.754  0.00  0.00    +0.083 C 
ATOM     20  C   UNL     1      10.969   0.764  24.106  0.00  0.00    +0.020 C 
ENDROOT
BRANCH   9  21
ATOM     21  C   UNL     1       6.186   0.474  24.614  0.00  0.00    +0.060 C 
ATOM     22  C   UNL     1       6.067   1.490  23.491  0.00  0.00    +0.020 C 
ATOM     23  C   UNL     1       6.487   1.929  24.846  0.00  0.00    +0.020 C 
ENDBRANCH   9  21
TORSDOF 1
ENDMDL
MODEL 7
REMARK VINA RESULT:      -5.9      4.122      6.607
REMARK  Name = 
REMARK  2 active torsions:
REMARK  status: ('A' for Active; 'I' for Inactive)
REMARK    1  A    between atoms: C_1  and  C_2
REMARK    2  A    between atoms: N_17  and  C_18
REMARK                            x       y       z     vdW  Elec       q    Type
REMARK                         _______ _______ _______ _____ _____    ______ ____
ROOT
ATOM      1  C   UNL     1       8.989  -5.642  25.494  0.00  0.00    +0.009 C 
ATOM      2  C   UNL     1       8.228  -4.535  26.249  0.00  0.00    +0.010 C 
ATOM      3  C   UNL     1       6.692  -4.622  26.103  0.00  0.00    +0.107 C 
ATOM      4  N   UNL     1       6.267  -5.994  26.357  0.00  0.00    -0.309 N 
ATOM      5  H   UNL     1       6.731  -6.637  25.727  0.00  0.00    +0.149 HD
ATOM      6  C   UNL     1       4.901  -6.180  26.369  0.00  0.00    +0.219 C 
ATOM      7  C   UNL     1       4.429  -6.779  25.059  0.00  0.00    +0.107 C 
ATOM      8  C   UNL     1       4.297  -5.573  24.090  0.00  0.00    +0.138 C 
ATOM      9  N   UNL     1       5.669  -5.016  23.724  0.00  0.00    -0.266 NA
ATOM     10  N   UNL     1       3.501  -5.923  22.899  0.00  0.00    -0.300 NA
ATOM     11  H   UNL     1       3.287  -5.052  22.416  0.00  0.00    +0.123 HD
ATOM     12  C   UNL     1       2.213  -6.533  23.239  0.00  0.00    +0.082 C 
ATOM     13  C   UNL     1       2.430  -7.844  23.973  0.00  0.00    +0.016 C 
ATOM     14  C   UNL     1       3.135  -7.564  25.288  0.00  0.00    +0.017 C 
ATOM     15  O   UNL     1       4.155  -5.704  27.215  0.00  0.00    -0.275 OA
ATOM     16  C   UNL     1       6.099  -4.004  24.740  0.00  0.00    +0.147 C 
ATOM     17  N   UNL     1       6.851  -2.873  24.208  0.00  0.00    -0.300 NA
ATOM     18  H   UNL     1       6.584  -2.701  23.245  0.00  0.00    +0.123 HD
ATOM     19  C   UNL     1       8.292  -2.889  24.379  0.00  0.00    +0.083 C 
ATOM     20  C   UNL     1       8.690  -3.145  25.826  0.00  0.00    +0.020 C 
ENDROOT
BRANCH   9  21
ATOM     21  C   UNL     1       5.904  -4.814  22.267  0.00  0.00    +0.060 C 
ATOM     22  C   UNL     1       6.492  -6.019  21.551  0.00  0.00    +0.020 C 
ATOM     23  C   UNL     1       7.190  -4.709  21.494  0.00  0.00    +0.020 C 
ENDBRANCH   9  21
TORSDOF 1
ENDMDL
MODEL 8
REMARK VINA RESULT:      -5.8      2.003      4.889
REMARK  Name = 
REMARK  2 active torsions:
REMARK  status: ('A' for Active; 'I' for Inactive)
REMARK    1  A    between atoms: C_1  and  C_2
REMARK    2  A    between atoms: N_17  and  C_18
REMARK                            x       y       z     vdW  Elec       q    Type
REMARK                         _______ _______ _______ _____ _____    ______ ____
ROOT
ATOM      1  C   UNL     1       9.191  -2.755  24.513  0.00  0.00    +0.009 C 
ATOM      2  C   UNL     1       8.926  -2.524  23.012  0.00  0.00    +0.010 C 
ATOM      3  C   UNL     1       8.720  -1.040  22.635  0.00  0.00    +0.107 C 
ATOM      4  N   UNL     1       9.783  -0.244  23.238  0.00  0.00    -0.309 N 
ATOM      5  H   UNL     1       9.798  -0.366  24.244  0.00  0.00    +0.149 HD
ATOM      6  C   UNL     1       9.777   1.089  22.882  0.00  0.00    +0.219 C 
ATOM      7  C   UNL     1       9.167   1.935  23.982  0.00  0.00    +0.107 C 
ATOM      8  C   UNL     1       7.633   1.829  23.768  0.00  0.00    +0.138 C 
ATOM      9  N   UNL     1       7.131   0.430  24.111  0.00  0.00    -0.266 NA
ATOM     10  N   UNL     1       6.911   2.879  24.511  0.00  0.00    -0.300 NA
ATOM     11  H   UNL     1       5.950   2.877  24.172  0.00  0.00    +0.123 HD
ATOM     12  C   UNL     1       7.438   4.220  24.249  0.00  0.00    +0.082 C 
ATOM     13  C   UNL     1       8.879   4.319  24.717  0.00  0.00    +0.016 C 
ATOM     14  C   UNL     1       9.730   3.358  23.908  0.00  0.00    +0.017 C 
ATOM     15  O   UNL     1      10.002   1.493  21.749  0.00  0.00    -0.275 OA
ATOM     16  C   UNL     1       7.243  -0.463  22.914  0.00  0.00    +0.147 C 
ATOM     17  N   UNL     1       6.170  -1.441  22.768  0.00  0.00    -0.300 NA
ATOM     18  H   UNL     1       5.320  -1.090  23.195  0.00  0.00    +0.123 HD
ATOM     19  C   UNL     1       6.455  -2.807  23.165  0.00  0.00    +0.083 C 
ATOM     20  C   UNL     1       7.731  -3.333  22.521  0.00  0.00    +0.020 C 
ENDROOT
BRANCH   9  21
ATOM     21  C   UNL     1       5.949   0.384  25.017  0.00  0.00    +0.060 C 
ATOM     22  C   UNL     1       6.284   0.131  26.477  0.00  0.00    +0.020 C 
ATOM     23  C   UNL     1       5.342  -0.770  25.766  0.00  0.00    +0.020 C 
ENDBRANCH   9  21
TORSDOF 1
ENDMDL
MODEL 9
REMARK VINA RESULT:      -5.8      4.520      6.276
REMARK  Name = 
REMARK  2 active torsions:
REMARK  status: ('A' for Active; 'I' for Inactive)
REMARK    1  A    between atoms: C_1  and  C_2
REMARK    2  A    between atoms: N_17  and  C_18
REMARK                            x       y       z     vdW  Elec       q    Type
REMARK                         _______ _______ _______ _____ _____    ______ ____
ROOT
ATOM      1  C   UNL     1       6.174  -2.002  23.604  0.00  0.00    +0.009 C 
ATOM      2  C   UNL     1       5.307  -3.171  23.097  0.00  0.00    +0.010 C 
ATOM      3  C   UNL     1       4.961  -4.212  24.186  0.00  0.00    +0.107 C 
ATOM      4  N   UNL     1       4.483  -3.515  25.375  0.00  0.00    -0.309 N 
ATOM      5  H   UNL     1       5.175  -2.854  25.707  0.00  0.00    +0.149 HD
ATOM      6  C   UNL     1       4.032  -4.340  26.383  0.00  0.00    +0.219 C 
ATOM      7  C   UNL     1       5.081  -4.483  27.469  0.00  0.00    +0.107 C 
ATOM      8  C   UNL     1       6.051  -5.579  26.949  0.00  0.00    +0.138 C 
ATOM      9  N   UNL     1       6.867  -5.068  25.767  0.00  0.00    -0.266 NA
ATOM     10  N   UNL     1       6.905  -6.101  28.032  0.00  0.00    -0.300 NA
ATOM     11  H   UNL     1       7.363  -6.937  27.676  0.00  0.00    +0.123 HD
ATOM     12  C   UNL     1       6.136  -6.521  29.206  0.00  0.00    +0.082 C 
ATOM     13  C   UNL     1       5.406  -5.333  29.809  0.00  0.00    +0.016 C 
ATOM     14  C   UNL     1       4.401  -4.806  28.802  0.00  0.00    +0.017 C 
ATOM     15  O   UNL     1       3.036  -5.046  26.294  0.00  0.00    -0.275 OA
ATOM     16  C   UNL     1       6.115  -5.291  24.490  0.00  0.00    +0.147 C 
ATOM     17  N   UNL     1       6.941  -5.640  23.339  0.00  0.00    -0.300 NA
ATOM     18  H   UNL     1       7.784  -6.114  23.647  0.00  0.00    +0.123 HD
ATOM     19  C   UNL     1       7.225  -4.590  22.379  0.00  0.00    +0.083 C 
ATOM     20  C   UNL     1       5.958  -3.884  21.917  0.00  0.00    +0.020 C 
ENDROOT
BRANCH   9  21
ATOM     21  C   UNL     1       8.336  -5.295  25.862  0.00  0.00    +0.060 C 
ATOM     22  C   UNL     1       9.108  -4.159  26.512  0.00  0.00    +0.020 C 
ATOM     23  C   UNL     1       9.475  -4.620  25.148  0.00  0.00    +0.020 C 
ENDBRANCH   9  21
TORSDOF 1
ENDMDL
