MODEL 1
REMARK VINA RESULT:      -7.5      0.000      0.000
REMARK  Name = 
REMARK  17 active torsions:
REMARK  status: ('A' for Active; 'I' for Inactive)
REMARK    1  A    between atoms: C_1  and  C_2
REMARK    2  A    between atoms: C_2  and  C_3
REMARK    3  A    between atoms: C_2  and  C_4
REMARK    4  A    between atoms: C_2  and  N_5
REMARK    5  A    between atoms: C_6  and  C_8
REMARK    6  A    between atoms: N_20  and  C_21
REMARK    7  A    between atoms: C_21  and  C_22
REMARK    8  A    between atoms: C_22  and  C_24
REMARK    9  A    between atoms: C_22  and  O_55
REMARK   10  A    between atoms: C_24  and  C_26
REMARK   11  A    between atoms: C_24  and  N_33
REMARK   12  A    between atoms: C_26  and  C_27
REMARK   13  A    between atoms: C_34  and  C_36
REMARK   14  A    between atoms: C_36  and  C_38
REMARK   15  A    between atoms: C_36  and  N_42
REMARK   16  A    between atoms: C_38  and  C_39
REMARK   17  A    between atoms: C_43  and  C_45
REMARK                            x       y       z     vdW  Elec       q    Type
REMARK                         _______ _______ _______ _____ _____    ______ ____
ROOT
ATOM      1  C   UNL     1       8.574   1.830  25.268  0.00  0.00    +0.107 C 
ENDROOT
BRANCH   1   2
ATOM      2  N   UNL     1       8.794   0.467  24.746  0.00  0.00    -0.308 N 
ATOM      3  H   UNL     1       7.996  -0.047  24.396  0.00  0.00    +0.149 HD
ATOM      4  C   UNL     1      10.040  -0.116  24.694  0.00  0.00    +0.234 C 
ATOM      5  O   UNL     1      11.051   0.463  25.088  0.00  0.00    -0.274 OA
BRANCH   4   6
ATOM      6  C   UNL     1      10.101  -1.482  23.975  0.00  0.00    +0.168 C 
BRANCH   6   7
ATOM      7  N   UNL     1       8.968  -2.344  24.375  0.00  0.00    -0.298 N 
ATOM      8  H   UNL     1       8.133  -1.928  24.795  0.00  0.00    +0.150 HD
ATOM      9  C   UNL     1       9.161  -3.684  24.653  0.00  0.00    +0.263 C 
ATOM     10  O   UNL     1      10.239  -4.251  24.460  0.00  0.00    -0.269 OA
BRANCH   9  11
ATOM     11  C   UNL     1       7.991  -4.441  25.222  0.00  0.00    +0.126 A 
ATOM     12  C   UNL     1       7.902  -4.545  26.605  0.00  0.00    +0.033 A 
ATOM     13  C   UNL     1       6.832  -5.248  27.145  0.00  0.00    +0.012 A 
ATOM     14  C   UNL     1       5.882  -5.816  26.296  0.00  0.00    +0.000 A 
ATOM     15  C   UNL     1       6.047  -5.655  24.896  0.00  0.00    +0.072 A 
ATOM     16  C   UNL     1       5.072  -6.228  24.084  0.00  0.00    +0.028 A 
ATOM     17  C   UNL     1       3.976  -6.934  24.607  0.00  0.00    +0.002 A 
ATOM     18  C   UNL     1       3.837  -7.085  25.976  0.00  0.00    +0.001 A 
ATOM     19  C   UNL     1       4.790  -6.526  26.827  0.00  0.00    +0.010 A 
ATOM     20  N   UNL     1       7.089  -4.982  24.357  0.00  0.00    -0.242 NA
ENDBRANCH   9  11
ENDBRANCH   6   7
BRANCH   6  21
ATOM     21  C   UNL     1      10.157  -1.284  22.453  0.00  0.00    +0.127 C 
BRANCH  21  22
ATOM     22  C   UNL     1       8.967  -0.517  21.928  0.00  0.00    +0.213 C 
ATOM     23  N   UNL     1       9.255   0.589  21.186  0.00  0.00    -0.329 N 
ATOM     24  H   UNL     1       8.472   1.089  20.784  0.00  0.00    +0.145 HD
ATOM     25  H   UNL     1      10.180   0.784  20.829  0.00  0.00    +0.145 HD
ATOM     26  O   UNL     1       7.806  -0.853  22.139  0.00  0.00    -0.276 OA
ENDBRANCH  21  22
ENDBRANCH   6  21
ENDBRANCH   4   6
ENDBRANCH   1   2
BRANCH   1  27
ATOM     27  C   UNL     1       7.363   1.859  26.263  0.00  0.00    +0.149 C 
BRANCH  27  28
ATOM     28  O   UNL     1       7.548   2.902  27.233  0.00  0.00    -0.389 OA
ATOM     29  H   UNL     1       8.006   3.618  26.753  0.00  0.00    +0.210 HD
ENDBRANCH  27  28
BRANCH  27  30
ATOM     30  C   UNL     1       7.121   0.509  27.010  0.00  0.00    +0.118 C 
BRANCH  30  32
ATOM     31  C   UNL     1       5.088  -0.139  28.342  0.00  0.00    +0.143 C 
ATOM     32  N   UNL     1       5.718  -0.013  26.986  0.00  0.00    -0.289 NA
ATOM     33  C   UNL     1       4.862   0.826  26.105  0.00  0.00    +0.089 C 
ATOM     34  C   UNL     1       4.380   2.163  26.693  0.00  0.00    +0.006 C 
ATOM     35  C   UNL     1       3.793   2.021  28.107  0.00  0.00    -0.005 C 
ATOM     36  C   UNL     1       3.458   3.411  28.671  0.00  0.00    +0.004 C 
ATOM     37  C   UNL     1       2.457   4.136  27.764  0.00  0.00    +0.000 C 
ATOM     38  C   UNL     1       2.926   4.188  26.309  0.00  0.00    +0.000 C 
ATOM     39  C   UNL     1       3.317   2.807  25.787  0.00  0.00    +0.005 C 
ATOM     40  C   UNL     1       4.747   1.216  28.994  0.00  0.00    +0.032 C 
BRANCH  31  43
ATOM     41  N   UNL     1       3.785  -1.904  27.190  0.00  0.00    -0.309 N 
ATOM     42  H   UNL     1       4.533  -1.746  26.521  0.00  0.00    +0.149 HD
ATOM     43  C   UNL     1       3.816  -1.053  28.278  0.00  0.00    +0.231 C 
ATOM     44  O   UNL     1       2.947  -1.037  29.146  0.00  0.00    -0.274 OA
BRANCH  41  46
ATOM     45  C   UNL     1       1.347  -2.020  26.683  0.00  0.00    +0.031 C 
ATOM     46  C   UNL     1       2.673  -2.791  26.821  0.00  0.00    +0.026 C 
ATOM     47  C   UNL     1       2.997  -3.419  25.453  0.00  0.00    +0.031 C 
ATOM     48  C   UNL     1       2.513  -3.914  27.856  0.00  0.00    +0.031 C 
ENDBRANCH  41  46
ENDBRANCH  31  43
ENDBRANCH  30  32
ENDBRANCH  27  30
ENDBRANCH   1  27
BRANCH   1  49
ATOM     49  C   UNL     1       8.440   2.808  24.077  0.00  0.00    +0.060 C 
BRANCH  49  50
ATOM     50  C   UNL     1       9.586   3.795  23.877  0.00  0.00    -0.046 A 
ATOM     51  C   UNL     1      10.839   3.412  23.377  0.00  0.00    +0.004 A 
ATOM     52  C   UNL     1      11.885   4.336  23.270  0.00  0.00    +0.000 A 
ATOM     53  C   UNL     1      11.699   5.657  23.667  0.00  0.00    +0.000 A 
ATOM     54  C   UNL     1      10.464   6.055  24.168  0.00  0.00    +0.000 A 
ATOM     55  C   UNL     1       9.417   5.132  24.275  0.00  0.00    +0.004 A 
ENDBRANCH  49  50
ENDBRANCH   1  49
TORSDOF 14
ENDMDL
MODEL 2
REMARK VINA RESULT:      -7.4      2.616      8.169
REMARK  Name = 
REMARK  17 active torsions:
REMARK  status: ('A' for Active; 'I' for Inactive)
REMARK    1  A    between atoms: C_1  and  C_2
REMARK    2  A    between atoms: C_2  and  C_3
REMARK    3  A    between atoms: C_2  and  C_4
REMARK    4  A    between atoms: C_2  and  N_5
REMARK    5  A    between atoms: C_6  and  C_8
REMARK    6  A    between atoms: N_20  and  C_21
REMARK    7  A    between atoms: C_21  and  C_22
REMARK    8  A    between atoms: C_22  and  C_24
REMARK    9  A    between atoms: C_22  and  O_55
REMARK   10  A    between atoms: C_24  and  C_26
REMARK   11  A    between atoms: C_24  and  N_33
REMARK   12  A    between atoms: C_26  and  C_27
REMARK   13  A    between atoms: C_34  and  C_36
REMARK   14  A    between atoms: C_36  and  C_38
REMARK   15  A    between atoms: C_36  and  N_42
REMARK   16  A    between atoms: C_38  and  C_39
REMARK   17  A    between atoms: C_43  and  C_45
REMARK                            x       y       z     vdW  Elec       q    Type
REMARK                         _______ _______ _______ _____ _____    ______ ____
ROOT
ATOM      1  C   UNL     1       6.263  -0.070  25.337  0.00  0.00    +0.107 C 
ENDROOT
BRANCH   1   2
ATOM      2  N   UNL     1       6.081   1.394  25.415  0.00  0.00    -0.308 N 
ATOM      3  H   UNL     1       6.893   1.985  25.292  0.00  0.00    +0.149 HD
ATOM      4  C   UNL     1       4.852   1.979  25.620  0.00  0.00    +0.234 C 
ATOM      5  O   UNL     1       3.826   1.316  25.758  0.00  0.00    -0.274 OA
BRANCH   4   6
ATOM      6  C   UNL     1       4.829   3.520  25.516  0.00  0.00    +0.168 C 
BRANCH   6   7
ATOM      7  N   UNL     1       6.154   4.046  25.124  0.00  0.00    -0.298 N 
ATOM      8  H   UNL     1       6.829   3.434  24.659  0.00  0.00    +0.150 HD
ATOM      9  C   UNL     1       6.698   5.144  25.763  0.00  0.00    +0.263 C 
ATOM     10  O   UNL     1       6.067   5.811  26.586  0.00  0.00    -0.269 OA
BRANCH   9  11
ATOM     11  C   UNL     1       8.120   5.500  25.423  0.00  0.00    +0.126 A 
ATOM     12  C   UNL     1       8.647   6.657  25.983  0.00  0.00    +0.033 A 
ATOM     13  C   UNL     1       9.956   7.003  25.671  0.00  0.00    +0.012 A 
ATOM     14  C   UNL     1      10.701   6.186  24.822  0.00  0.00    +0.000 A 
ATOM     15  C   UNL     1      10.087   5.018  24.299  0.00  0.00    +0.072 A 
ATOM     16  C   UNL     1      10.867   4.224  23.464  0.00  0.00    +0.028 A 
ATOM     17  C   UNL     1      12.196   4.548  23.143  0.00  0.00    +0.002 A 
ATOM     18  C   UNL     1      12.775   5.694  23.658  0.00  0.00    +0.001 A 
ATOM     19  C   UNL     1      12.029   6.518  24.501  0.00  0.00    +0.010 A 
ATOM     20  N   UNL     1       8.810   4.675  24.587  0.00  0.00    -0.242 NA
ENDBRANCH   9  11
ENDBRANCH   6   7
BRANCH   6  21
ATOM     21  C   UNL     1       3.726   3.976  24.550  0.00  0.00    +0.127 C 
BRANCH  21  22
ATOM     22  C   UNL     1       4.212   4.067  23.123  0.00  0.00    +0.213 C 
ATOM     23  N   UNL     1       3.974   2.974  22.344  0.00  0.00    -0.329 N 
ATOM     24  H   UNL     1       4.248   3.034  21.372  0.00  0.00    +0.145 HD
ATOM     25  H   UNL     1       3.342   2.234  22.618  0.00  0.00    +0.145 HD
ATOM     26  O   UNL     1       4.783   5.054  22.670  0.00  0.00    -0.276 OA
ENDBRANCH  21  22
ENDBRANCH   6  21
ENDBRANCH   4   6
ENDBRANCH   1   2
BRANCH   1  27
ATOM     27  C   UNL     1       7.421  -0.540  26.282  0.00  0.00    +0.149 C 
BRANCH  27  28
ATOM     28  O   UNL     1       8.280   0.567  26.596  0.00  0.00    -0.389 OA
ATOM     29  H   UNL     1       8.523   0.443  27.533  0.00  0.00    +0.210 HD
ENDBRANCH  27  28
BRANCH  27  30
ATOM     30  C   UNL     1       8.286  -1.703  25.698  0.00  0.00    +0.118 C 
BRANCH  30  32
ATOM     31  C   UNL     1       6.573  -3.291  26.631  0.00  0.00    +0.143 C 
ATOM     32  N   UNL     1       8.006  -3.068  26.245  0.00  0.00    -0.289 NA
ATOM     33  C   UNL     1       8.441  -4.116  25.283  0.00  0.00    +0.089 C 
ATOM     34  C   UNL     1       7.509  -4.376  24.088  0.00  0.00    +0.006 C 
ATOM     35  C   UNL     1       6.037  -4.542  24.499  0.00  0.00    -0.005 C 
ATOM     36  C   UNL     1       5.159  -4.667  23.242  0.00  0.00    +0.004 C 
ATOM     37  C   UNL     1       5.599  -5.865  22.393  0.00  0.00    +0.000 C 
ATOM     38  C   UNL     1       7.092  -5.826  22.066  0.00  0.00    +0.000 C 
ATOM     39  C   UNL     1       7.945  -5.635  23.319  0.00  0.00    +0.005 C 
ATOM     40  C   UNL     1       5.617  -3.397  25.425  0.00  0.00    +0.032 C 
BRANCH  31  43
ATOM     41  N   UNL     1       5.188  -4.705  28.121  0.00  0.00    -0.309 N 
ATOM     42  H   UNL     1       4.561  -3.923  27.957  0.00  0.00    +0.149 HD
ATOM     43  C   UNL     1       6.437  -4.553  27.551  0.00  0.00    +0.231 C 
ATOM     44  O   UNL     1       7.354  -5.354  27.712  0.00  0.00    -0.274 OA
BRANCH  41  46
ATOM     45  C   UNL     1       5.669  -5.650  30.377  0.00  0.00    +0.031 C 
ATOM     46  C   UNL     1       4.808  -5.731  29.103  0.00  0.00    +0.026 C 
ATOM     47  C   UNL     1       3.343  -5.484  29.508  0.00  0.00    +0.031 C 
ATOM     48  C   UNL     1       4.922  -7.133  28.488  0.00  0.00    +0.031 C 
ENDBRANCH  41  46
ENDBRANCH  31  43
ENDBRANCH  30  32
ENDBRANCH  27  30
ENDBRANCH   1  27
BRANCH   1  49
ATOM     49  C   UNL     1       6.449  -0.474  23.856  0.00  0.00    +0.060 C 
BRANCH  49  50
ATOM     50  C   UNL     1       7.498   0.303  23.066  0.00  0.00    -0.046 A 
ATOM     51  C   UNL     1       7.295   1.619  22.627  0.00  0.00    +0.004 A 
ATOM     52  C   UNL     1       8.257   2.274  21.847  0.00  0.00    +0.000 A 
ATOM     53  C   UNL     1       9.433   1.622  21.489  0.00  0.00    +0.000 A 
ATOM     54  C   UNL     1       9.650   0.315  21.914  0.00  0.00    +0.000 A 
ATOM     55  C   UNL     1       8.690  -0.340  22.693  0.00  0.00    +0.004 A 
ENDBRANCH  49  50
ENDBRANCH   1  49
TORSDOF 14
ENDMDL
MODEL 3
REMARK VINA RESULT:      -7.4      1.587      2.424
REMARK  Name = 
REMARK  17 active torsions:
REMARK  status: ('A' for Active; 'I' for Inactive)
REMARK    1  A    between atoms: C_1  and  C_2
REMARK    2  A    between atoms: C_2  and  C_3
REMARK    3  A    between atoms: C_2  and  C_4
REMARK    4  A    between atoms: C_2  and  N_5
REMARK    5  A    between atoms: C_6  and  C_8
REMARK    6  A    between atoms: N_20  and  C_21
REMARK    7  A    between atoms: C_21  and  C_22
REMARK    8  A    between atoms: C_22  and  C_24
REMARK    9  A    between atoms: C_22  and  O_55
REMARK   10  A    between atoms: C_24  and  C_26
REMARK   11  A    between atoms: C_24  and  N_33
REMARK   12  A    between atoms: C_26  and  C_27
REMARK   13  A    between atoms: C_34  and  C_36
REMARK   14  A    between atoms: C_36  and  C_38
REMARK   15  A    between atoms: C_36  and  N_42
REMARK   16  A    between atoms: C_38  and  C_39
REMARK   17  A    between atoms: C_43  and  C_45
REMARK                            x       y       z     vdW  Elec       q    Type
REMARK                         _______ _______ _______ _____ _____    ______ ____
ROOT
ATOM      1  C   UNL     1       8.340   1.317  25.577  0.00  0.00    +0.107 C 
ENDROOT
BRANCH   1   2
ATOM      2  N   UNL     1       8.648  -0.036  25.072  0.00  0.00    -0.308 N 
ATOM      3  H   UNL     1       7.880  -0.672  24.906  0.00  0.00    +0.149 HD
ATOM      4  C   UNL     1       9.932  -0.450  24.795  0.00  0.00    +0.234 C 
ATOM      5  O   UNL     1      10.906   0.283  24.958  0.00  0.00    -0.274 OA
BRANCH   4   6
ATOM      6  C   UNL     1      10.049  -1.838  24.128  0.00  0.00    +0.168 C 
BRANCH   6   7
ATOM      7  N   UNL     1       8.880  -2.684  24.456  0.00  0.00    -0.298 N 
ATOM      8  H   UNL     1       8.004  -2.251  24.756  0.00  0.00    +0.150 HD
ATOM      9  C   UNL     1       9.045  -4.003  24.836  0.00  0.00    +0.263 C 
ATOM     10  O   UNL     1      10.139  -4.571  24.797  0.00  0.00    -0.269 OA
BRANCH   9  11
ATOM     11  C   UNL     1       7.823  -4.734  25.320  0.00  0.00    +0.126 A 
ATOM     12  C   UNL     1       6.915  -5.176  24.366  0.00  0.00    +0.033 A 
ATOM     13  C   UNL     1       5.777  -5.845  24.799  0.00  0.00    +0.012 A 
ATOM     14  C   UNL     1       5.582  -6.062  26.163  0.00  0.00    +0.000 A 
ATOM     15  C   UNL     1       6.563  -5.582  27.069  0.00  0.00    +0.072 A 
ATOM     16  C   UNL     1       6.337  -5.827  28.420  0.00  0.00    +0.028 A 
ATOM     17  C   UNL     1       5.199  -6.511  28.881  0.00  0.00    +0.002 A 
ATOM     18  C   UNL     1       4.250  -6.965  27.981  0.00  0.00    +0.001 A 
ATOM     19  C   UNL     1       4.438  -6.742  26.618  0.00  0.00    +0.010 A 
ATOM     20  N   UNL     1       7.671  -4.921  26.662  0.00  0.00    -0.242 NA
ENDBRANCH   9  11
ENDBRANCH   6   7
BRANCH   6  21
ATOM     21  C   UNL     1      10.238  -1.691  22.612  0.00  0.00    +0.127 C 
BRANCH  21  22
ATOM     22  C   UNL     1       9.027  -1.093  21.936  0.00  0.00    +0.213 C 
ATOM     23  N   UNL     1       9.232   0.088  21.287  0.00  0.00    -0.329 N 
ATOM     24  H   UNL     1       8.445   0.480  20.787  0.00  0.00    +0.145 HD
ATOM     25  H   UNL     1      10.155   0.449  21.086  0.00  0.00    +0.145 HD
ATOM     26  O   UNL     1       7.920  -1.622  21.951  0.00  0.00    -0.276 OA
ENDBRANCH  21  22
ENDBRANCH   6  21
ENDBRANCH   4   6
ENDBRANCH   1   2
BRANCH   1  27
ATOM     27  C   UNL     1       7.140   1.277  26.584  0.00  0.00    +0.149 C 
BRANCH  27  28
ATOM     28  O   UNL     1       7.460   2.035  27.762  0.00  0.00    -0.389 OA
ATOM     29  H   UNL     1       6.599   2.321  28.122  0.00  0.00    +0.210 HD
ENDBRANCH  27  28
BRANCH  27  30
ATOM     30  C   UNL     1       6.713  -0.164  27.008  0.00  0.00    +0.118 C 
BRANCH  30  32
ATOM     31  C   UNL     1       5.142  -2.111  26.740  0.00  0.00    +0.143 C 
ATOM     32  N   UNL     1       5.448  -0.682  26.397  0.00  0.00    -0.289 NA
ATOM     33  C   UNL     1       4.297   0.186  26.763  0.00  0.00    +0.089 C 
ATOM     34  C   UNL     1       3.720  -0.005  28.176  0.00  0.00    +0.006 C 
ATOM     35  C   UNL     1       3.470  -1.480  28.530  0.00  0.00    -0.005 C 
ATOM     36  C   UNL     1       3.021  -1.592  29.996  0.00  0.00    +0.004 C 
ATOM     37  C   UNL     1       1.744  -0.778  30.234  0.00  0.00    +0.000 C 
ATOM     38  C   UNL     1       1.887   0.672  29.771  0.00  0.00    +0.000 C 
ATOM     39  C   UNL     1       2.398   0.765  28.335  0.00  0.00    +0.005 C 
ATOM     40  C   UNL     1       4.712  -2.316  28.206  0.00  0.00    +0.032 C 
BRANCH  31  43
ATOM     41  N   UNL     1       2.971  -3.254  26.400  0.00  0.00    -0.309 N 
ATOM     42  H   UNL     1       3.065  -3.311  27.410  0.00  0.00    +0.149 HD
ATOM     43  C   UNL     1       4.064  -2.695  25.764  0.00  0.00    +0.231 C 
ATOM     44  O   UNL     1       4.168  -2.621  24.543  0.00  0.00    -0.274 OA
BRANCH  41  46
ATOM     45  C   UNL     1       0.764  -2.998  25.269  0.00  0.00    +0.031 C 
ATOM     46  C   UNL     1       1.864  -3.965  25.744  0.00  0.00    +0.026 C 
ATOM     47  C   UNL     1       2.427  -4.683  24.504  0.00  0.00    +0.031 C 
ATOM     48  C   UNL     1       1.260  -5.012  26.691  0.00  0.00    +0.031 C 
ENDBRANCH  41  46
ENDBRANCH  31  43
ENDBRANCH  30  32
ENDBRANCH  27  30
ENDBRANCH   1  27
BRANCH   1  49
ATOM     49  C   UNL     1       8.128   2.266  24.374  0.00  0.00    +0.060 C 
BRANCH  49  50
ATOM     50  C   UNL     1       9.139   3.396  24.213  0.00  0.00    -0.046 A 
ATOM     51  C   UNL     1       8.893   4.703  24.659  0.00  0.00    +0.004 A 
ATOM     52  C   UNL     1       9.821   5.727  24.433  0.00  0.00    +0.000 A 
ATOM     53  C   UNL     1      11.006   5.464  23.752  0.00  0.00    +0.000 A 
ATOM     54  C   UNL     1      11.266   4.174  23.301  0.00  0.00    +0.000 A 
ATOM     55  C   UNL     1      10.339   3.149  23.526  0.00  0.00    +0.004 A 
ENDBRANCH  49  50
ENDBRANCH   1  49
TORSDOF 14
ENDMDL
MODEL 4
REMARK VINA RESULT:      -7.4      2.064      3.319
REMARK  Name = 
REMARK  17 active torsions:
REMARK  status: ('A' for Active; 'I' for Inactive)
REMARK    1  A    between atoms: C_1  and  C_2
REMARK    2  A    between atoms: C_2  and  C_3
REMARK    3  A    between atoms: C_2  and  C_4
REMARK    4  A    between atoms: C_2  and  N_5
REMARK    5  A    between atoms: C_6  and  C_8
REMARK    6  A    between atoms: N_20  and  C_21
REMARK    7  A    between atoms: C_21  and  C_22
REMARK    8  A    between atoms: C_22  and  C_24
REMARK    9  A    between atoms: C_22  and  O_55
REMARK   10  A    between atoms: C_24  and  C_26
REMARK   11  A    between atoms: C_24  and  N_33
REMARK   12  A    between atoms: C_26  and  C_27
REMARK   13  A    between atoms: C_34  and  C_36
REMARK   14  A    between atoms: C_36  and  C_38
REMARK   15  A    between atoms: C_36  and  N_42
REMARK   16  A    between atoms: C_38  and  C_39
REMARK   17  A    between atoms: C_43  and  C_45
REMARK                            x       y       z     vdW  Elec       q    Type
REMARK                         _______ _______ _______ _____ _____    ______ ____
ROOT
ATOM      1  C   UNL     1       9.120  -1.174  24.159  0.00  0.00    +0.107 C 
ENDROOT
BRANCH   1   2
ATOM      2  N   UNL     1       8.277  -2.362  23.916  0.00  0.00    -0.308 N 
ATOM      3  H   UNL     1       7.321  -2.219  23.620  0.00  0.00    +0.149 HD
ATOM      4  C   UNL     1       8.751  -3.648  24.051  0.00  0.00    +0.234 C 
ATOM      5  O   UNL     1       9.908  -3.887  24.390  0.00  0.00    -0.274 OA
BRANCH   4   6
ATOM      6  C   UNL     1       7.777  -4.760  23.605  0.00  0.00    +0.168 C 
BRANCH   6   7
ATOM      7  N   UNL     1       6.724  -4.983  24.620  0.00  0.00    -0.298 N 
ATOM      8  H   UNL     1       5.852  -4.450  24.576  0.00  0.00    +0.150 HD
ATOM      9  C   UNL     1       7.037  -5.498  25.864  0.00  0.00    +0.263 C 
ATOM     10  O   UNL     1       8.164  -5.914  26.144  0.00  0.00    -0.269 OA
BRANCH   9  11
ATOM     11  C   UNL     1       5.938  -5.524  26.891  0.00  0.00    +0.126 A 
ATOM     12  C   UNL     1       6.121  -4.781  28.051  0.00  0.00    +0.033 A 
ATOM     13  C   UNL     1       5.117  -4.802  29.012  0.00  0.00    +0.012 A 
ATOM     14  C   UNL     1       3.963  -5.550  28.787  0.00  0.00    +0.000 A 
ATOM     15  C   UNL     1       3.855  -6.275  27.571  0.00  0.00    +0.072 A 
ATOM     16  C   UNL     1       2.683  -7.000  27.379  0.00  0.00    +0.028 A 
ATOM     17  C   UNL     1       1.650  -7.028  28.333  0.00  0.00    +0.002 A 
ATOM     18  C   UNL     1       1.778  -6.320  29.515  0.00  0.00    +0.001 A 
ATOM     19  C   UNL     1       2.936  -5.578  29.746  0.00  0.00    +0.010 A 
ATOM     20  N   UNL     1       4.828  -6.271  26.631  0.00  0.00    -0.242 NA
ENDBRANCH   9  11
ENDBRANCH   6   7
BRANCH   6  21
ATOM     21  C   UNL     1       7.181  -4.432  22.229  0.00  0.00    +0.127 C 
BRANCH  21  22
ATOM     22  C   UNL     1       5.717  -4.069  22.308  0.00  0.00    +0.213 C 
ATOM     23  N   UNL     1       5.438  -2.736  22.359  0.00  0.00    -0.329 N 
ATOM     24  H   UNL     1       4.461  -2.470  22.363  0.00  0.00    +0.145 HD
ATOM     25  H   UNL     1       6.126  -2.024  22.154  0.00  0.00    +0.145 HD
ATOM     26  O   UNL     1       4.818  -4.904  22.320  0.00  0.00    -0.276 OA
ENDBRANCH  21  22
ENDBRANCH   6  21
ENDBRANCH   4   6
ENDBRANCH   1   2
BRANCH   1  27
ATOM     27  C   UNL     1       8.583  -0.348  25.378  0.00  0.00    +0.149 C 
BRANCH  27  28
ATOM     28  O   UNL     1       9.682   0.151  26.157  0.00  0.00    -0.389 OA
ATOM     29  H   UNL     1       9.634   1.122  26.071  0.00  0.00    +0.210 HD
ENDBRANCH  27  28
BRANCH  27  30
ATOM     30  C   UNL     1       7.620  -1.148  26.314  0.00  0.00    +0.118 C 
BRANCH  30  32
ATOM     31  C   UNL     1       5.225  -1.632  26.910  0.00  0.00    +0.143 C 
ATOM     32  N   UNL     1       6.213  -1.307  25.828  0.00  0.00    -0.289 NA
ATOM     33  C   UNL     1       5.775  -0.094  25.087  0.00  0.00    +0.089 C 
ATOM     34  C   UNL     1       5.368   1.118  25.942  0.00  0.00    +0.006 C 
ATOM     35  C   UNL     1       4.402   0.754  27.081  0.00  0.00    -0.005 C 
ATOM     36  C   UNL     1       4.150   1.989  27.961  0.00  0.00    +0.004 C 
ATOM     37  C   UNL     1       3.562   3.135  27.130  0.00  0.00    +0.000 C 
ATOM     38  C   UNL     1       4.413   3.452  25.899  0.00  0.00    +0.000 C 
ATOM     39  C   UNL     1       4.709   2.203  25.073  0.00  0.00    +0.005 C 
ATOM     40  C   UNL     1       4.938  -0.451  27.860  0.00  0.00    +0.032 C 
BRANCH  31  43
ATOM     41  N   UNL     1       2.812  -2.136  27.157  0.00  0.00    -0.309 N 
ATOM     42  H   UNL     1       3.052  -1.861  28.105  0.00  0.00    +0.149 HD
ATOM     43  C   UNL     1       3.891  -2.178  26.295  0.00  0.00    +0.231 C 
ATOM     44  O   UNL     1       3.810  -2.569  25.133  0.00  0.00    -0.274 OA
BRANCH  41  46
ATOM     45  C   UNL     1       1.532  -3.968  26.053  0.00  0.00    +0.031 C 
ATOM     46  C   UNL     1       1.471  -2.675  26.887  0.00  0.00    +0.026 C 
ATOM     47  C   UNL     1       0.813  -3.016  28.237  0.00  0.00    +0.031 C 
ATOM     48  C   UNL     1       0.607  -1.632  26.164  0.00  0.00    +0.031 C 
ENDBRANCH  41  46
ENDBRANCH  31  43
ENDBRANCH  30  32
ENDBRANCH  27  30
ENDBRANCH   1  27
BRANCH   1  49
ATOM     49  C   UNL     1       9.236  -0.364  22.847  0.00  0.00    +0.060 C 
BRANCH  49  50
ATOM     50  C   UNL     1       8.606   1.025  22.848  0.00  0.00    -0.046 A 
ATOM     51  C   UNL     1       7.373   1.299  22.239  0.00  0.00    +0.004 A 
ATOM     52  C   UNL     1       6.860   2.602  22.204  0.00  0.00    +0.000 A 
ATOM     53  C   UNL     1       7.575   3.653  22.773  0.00  0.00    +0.000 A 
ATOM     54  C   UNL     1       8.800   3.400  23.380  0.00  0.00    +0.000 A 
ATOM     55  C   UNL     1       9.314   2.098  23.414  0.00  0.00    +0.004 A 
ENDBRANCH  49  50
ENDBRANCH   1  49
TORSDOF 14
ENDMDL
MODEL 5
REMARK VINA RESULT:      -7.3      2.319      4.969
REMARK  Name = 
REMARK  17 active torsions:
REMARK  status: ('A' for Active; 'I' for Inactive)
REMARK    1  A    between atoms: C_1  and  C_2
REMARK    2  A    between atoms: C_2  and  C_3
REMARK    3  A    between atoms: C_2  and  C_4
REMARK    4  A    between atoms: C_2  and  N_5
REMARK    5  A    between atoms: C_6  and  C_8
REMARK    6  A    between atoms: N_20  and  C_21
REMARK    7  A    between atoms: C_21  and  C_22
REMARK    8  A    between atoms: C_22  and  C_24
REMARK    9  A    between atoms: C_22  and  O_55
REMARK   10  A    between atoms: C_24  and  C_26
REMARK   11  A    between atoms: C_24  and  N_33
REMARK   12  A    between atoms: C_26  and  C_27
REMARK   13  A    between atoms: C_34  and  C_36
REMARK   14  A    between atoms: C_36  and  C_38
REMARK   15  A    between atoms: C_36  and  N_42
REMARK   16  A    between atoms: C_38  and  C_39
REMARK   17  A    between atoms: C_43  and  C_45
REMARK                            x       y       z     vdW  Elec       q    Type
REMARK                         _______ _______ _______ _____ _____    ______ ____
ROOT
ATOM      1  C   UNL     1       5.100   1.781  26.397  0.00  0.00    +0.107 C 
ENDROOT
BRANCH   1   2
ATOM      2  N   UNL     1       6.300   1.486  25.589  0.00  0.00    -0.308 N 
ATOM      3  H   UNL     1       6.250   0.734  24.914  0.00  0.00    +0.149 HD
ATOM      4  C   UNL     1       7.465   2.210  25.700  0.00  0.00    +0.234 C 
ATOM      5  O   UNL     1       7.582   3.147  26.488  0.00  0.00    -0.274 OA
BRANCH   4   6
ATOM      6  C   UNL     1       8.560   1.861  24.668  0.00  0.00    +0.168 C 
BRANCH   6   7
ATOM      7  N   UNL     1       8.374   0.493  24.138  0.00  0.00    -0.298 N 
ATOM      8  H   UNL     1       7.580   0.286  23.527  0.00  0.00    +0.150 HD
ATOM      9  C   UNL     1       8.916  -0.599  24.789  0.00  0.00    +0.263 C 
ATOM     10  O   UNL     1       9.678  -0.484  25.752  0.00  0.00    -0.269 OA
BRANCH   9  11
ATOM     11  C   UNL     1       8.529  -1.961  24.280  0.00  0.00    +0.126 A 
ATOM     12  C   UNL     1       9.131  -3.065  24.870  0.00  0.00    +0.033 A 
ATOM     13  C   UNL     1       8.789  -4.329  24.405  0.00  0.00    +0.012 A 
ATOM     14  C   UNL     1       7.855  -4.456  23.378  0.00  0.00    +0.000 A 
ATOM     15  C   UNL     1       7.283  -3.276  22.837  0.00  0.00    +0.072 A 
ATOM     16  C   UNL     1       6.348  -3.446  21.821  0.00  0.00    +0.028 A 
ATOM     17  C   UNL     1       5.979  -4.714  21.341  0.00  0.00    +0.002 A 
ATOM     18  C   UNL     1       6.553  -5.853  21.879  0.00  0.00    +0.001 A 
ATOM     19  C   UNL     1       7.494  -5.728  22.900  0.00  0.00    +0.010 A 
ATOM     20  N   UNL     1       7.614  -2.039  23.273  0.00  0.00    -0.242 NA
ENDBRANCH   9  11
ENDBRANCH   6   7
BRANCH   6  21
ATOM     21  C   UNL     1       8.592   2.908  23.545  0.00  0.00    +0.127 C 
BRANCH  21  22
ATOM     22  C   UNL     1       8.611   2.279  22.172  0.00  0.00    +0.213 C 
ATOM     23  N   UNL     1       9.828   2.223  21.562  0.00  0.00    -0.329 N 
ATOM     24  H   UNL     1       9.871   1.762  20.662  0.00  0.00    +0.145 HD
ATOM     25  H   UNL     1      10.696   2.395  22.052  0.00  0.00    +0.145 HD
ATOM     26  O   UNL     1       7.608   1.834  21.624  0.00  0.00    -0.276 OA
ENDBRANCH  21  22
ENDBRANCH   6  21
ENDBRANCH   4   6
ENDBRANCH   1   2
BRANCH   1  27
ATOM     27  C   UNL     1       4.600   0.497  27.144  0.00  0.00    +0.149 C 
BRANCH  27  28
ATOM     28  O   UNL     1       5.132   0.464  28.478  0.00  0.00    -0.389 OA
ATOM     29  H   UNL     1       6.085   0.286  28.367  0.00  0.00    +0.210 HD
ENDBRANCH  27  28
BRANCH  27  30
ATOM     30  C   UNL     1       4.960  -0.841  26.422  0.00  0.00    +0.118 C 
BRANCH  30  32
ATOM     31  C   UNL     1       4.081  -2.917  25.307  0.00  0.00    +0.143 C 
ATOM     32  N   UNL     1       3.874  -1.869  26.361  0.00  0.00    -0.289 NA
ATOM     33  C   UNL     1       3.689  -2.513  27.688  0.00  0.00    +0.089 C 
ATOM     34  C   UNL     1       4.718  -3.589  28.075  0.00  0.00    +0.006 C 
ATOM     35  C   UNL     1       4.960  -4.618  26.959  0.00  0.00    -0.005 C 
ATOM     36  C   UNL     1       6.090  -5.575  27.373  0.00  0.00    +0.004 C 
ATOM     37  C   UNL     1       5.736  -6.298  28.678  0.00  0.00    +0.000 C 
ATOM     38  C   UNL     1       5.351  -5.325  29.792  0.00  0.00    +0.000 C 
ATOM     39  C   UNL     1       4.274  -4.339  29.342  0.00  0.00    +0.005 C 
ATOM     40  C   UNL     1       5.222  -3.903  25.631  0.00  0.00    +0.032 C 
BRANCH  31  43
ATOM     41  N   UNL     1       2.928  -5.016  24.673  0.00  0.00    -0.309 N 
ATOM     42  H   UNL     1       3.899  -5.278  24.532  0.00  0.00    +0.149 HD
ATOM     43  C   UNL     1       2.748  -3.693  25.028  0.00  0.00    +0.231 C 
ATOM     44  O   UNL     1       1.642  -3.175  25.158  0.00  0.00    -0.274 OA
BRANCH  41  46
ATOM     45  C   UNL     1       1.150  -5.464  22.985  0.00  0.00    +0.031 C 
ATOM     46  C   UNL     1       1.870  -5.948  24.257  0.00  0.00    +0.026 C 
ATOM     47  C   UNL     1       2.527  -7.304  23.939  0.00  0.00    +0.031 C 
ATOM     48  C   UNL     1       0.850  -6.145  25.387  0.00  0.00    +0.031 C 
ENDBRANCH  41  46
ENDBRANCH  31  43
ENDBRANCH  30  32
ENDBRANCH  27  30
ENDBRANCH   1  27
BRANCH   1  49
ATOM     49  C   UNL     1       4.034   2.442  25.492  0.00  0.00    +0.060 C 
BRANCH  49  50
ATOM     50  C   UNL     1       4.519   3.570  24.586  0.00  0.00    -0.046 A 
ATOM     51  C   UNL     1       4.777   3.389  23.220  0.00  0.00    +0.004 A 
ATOM     52  C   UNL     1       5.284   4.434  22.438  0.00  0.00    +0.000 A 
ATOM     53  C   UNL     1       5.547   5.675  23.010  0.00  0.00    +0.000 A 
ATOM     54  C   UNL     1       5.299   5.873  24.364  0.00  0.00    +0.000 A 
ATOM     55  C   UNL     1       4.792   4.829  25.147  0.00  0.00    +0.004 A 
ENDBRANCH  49  50
ENDBRANCH   1  49
TORSDOF 14
ENDMDL
MODEL 6
REMARK VINA RESULT:      -7.1      2.094      3.672
REMARK  Name = 
REMARK  17 active torsions:
REMARK  status: ('A' for Active; 'I' for Inactive)
REMARK    1  A    between atoms: C_1  and  C_2
REMARK    2  A    between atoms: C_2  and  C_3
REMARK    3  A    between atoms: C_2  and  C_4
REMARK    4  A    between atoms: C_2  and  N_5
REMARK    5  A    between atoms: C_6  and  C_8
REMARK    6  A    between atoms: N_20  and  C_21
REMARK    7  A    between atoms: C_21  and  C_22
REMARK    8  A    between atoms: C_22  and  C_24
REMARK    9  A    between atoms: C_22  and  O_55
REMARK   10  A    between atoms: C_24  and  C_26
REMARK   11  A    between atoms: C_24  and  N_33
REMARK   12  A    between atoms: C_26  and  C_27
REMARK   13  A    between atoms: C_34  and  C_36
REMARK   14  A    between atoms: C_36  and  C_38
REMARK   15  A    between atoms: C_36  and  N_42
REMARK   16  A    between atoms: C_38  and  C_39
REMARK   17  A    between atoms: C_43  and  C_45
REMARK                            x       y       z     vdW  Elec       q    Type
REMARK                         _______ _______ _______ _____ _____    ______ ____
ROOT
ATOM      1  C   UNL     1       9.621  -0.668  23.688  0.00  0.00    +0.107 C 
ENDROOT
BRANCH   1   2
ATOM      2  N   UNL     1       8.639  -1.760  23.529  0.00  0.00    -0.308 N 
ATOM      3  H   UNL     1       7.717  -1.528  23.184  0.00  0.00    +0.149 HD
ATOM      4  C   UNL     1       8.940  -3.074  23.806  0.00  0.00    +0.234 C 
ATOM      5  O   UNL     1      10.048  -3.421  24.211  0.00  0.00    -0.274 OA
BRANCH   4   6
ATOM      6  C   UNL     1       7.843  -4.095  23.434  0.00  0.00    +0.168 C 
BRANCH   6   7
ATOM      7  N   UNL     1       6.873  -4.261  24.539  0.00  0.00    -0.298 N 
ATOM      8  H   UNL     1       6.186  -3.528  24.729  0.00  0.00    +0.150 HD
ATOM      9  C   UNL     1       7.148  -5.099  25.603  0.00  0.00    +0.263 C 
ATOM     10  O   UNL     1       8.135  -5.839  25.625  0.00  0.00    -0.269 OA
BRANCH   9  11
ATOM     11  C   UNL     1       6.191  -5.070  26.763  0.00  0.00    +0.126 A 
ATOM     12  C   UNL     1       6.616  -5.623  27.965  0.00  0.00    +0.033 A 
ATOM     13  C   UNL     1       5.740  -5.611  29.043  0.00  0.00    +0.012 A 
ATOM     14  C   UNL     1       4.475  -5.043  28.896  0.00  0.00    +0.000 A 
ATOM     15  C   UNL     1       4.124  -4.493  27.635  0.00  0.00    +0.072 A 
ATOM     16  C   UNL     1       2.858  -3.927  27.533  0.00  0.00    +0.028 A 
ATOM     17  C   UNL     1       1.958  -3.894  28.612  0.00  0.00    +0.002 A 
ATOM     18  C   UNL     1       2.317  -4.440  29.832  0.00  0.00    +0.001 A 
ATOM     19  C   UNL     1       3.578  -5.017  29.979  0.00  0.00    +0.010 A 
ATOM     20  N   UNL     1       4.964  -4.508  26.575  0.00  0.00    -0.242 NA
ENDBRANCH   9  11
ENDBRANCH   6   7
BRANCH   6  21
ATOM     21  C   UNL     1       7.150  -3.686  22.126  0.00  0.00    +0.127 C 
BRANCH  21  22
ATOM     22  C   UNL     1       5.929  -4.525  21.834  0.00  0.00    +0.213 C 
ATOM     23  N   UNL     1       6.139  -5.630  21.064  0.00  0.00    -0.329 N 
ATOM     24  H   UNL     1       5.343  -6.232  20.897  0.00  0.00    +0.145 HD
ATOM     25  H   UNL     1       7.062  -5.992  20.864  0.00  0.00    +0.145 HD
ATOM     26  O   UNL     1       4.811  -4.253  22.258  0.00  0.00    -0.276 OA
ENDBRANCH  21  22
ENDBRANCH   6  21
ENDBRANCH   4   6
ENDBRANCH   1   2
BRANCH   1  27
ATOM     27  C   UNL     1       9.319   0.172  24.976  0.00  0.00    +0.149 C 
BRANCH  27  28
ATOM     28  O   UNL     1      10.542   0.465  25.671  0.00  0.00    -0.389 OA
ATOM     29  H   UNL     1      10.364   0.239  26.604  0.00  0.00    +0.210 HD
ENDBRANCH  27  28
BRANCH  27  30
ATOM     30  C   UNL     1       8.326  -0.516  25.966  0.00  0.00    +0.118 C 
BRANCH  30  32
ATOM     31  C   UNL     1       6.137  -0.247  27.176  0.00  0.00    +0.143 C 
ATOM     32  N   UNL     1       6.904  -0.050  25.902  0.00  0.00    -0.289 NA
ATOM     33  C   UNL     1       6.840   1.376  25.485  0.00  0.00    +0.089 C 
ATOM     34  C   UNL     1       7.157   2.419  26.569  0.00  0.00    +0.006 C 
ATOM     35  C   UNL     1       6.407   2.165  27.887  0.00  0.00    -0.005 C 
ATOM     36  C   UNL     1       6.876   3.169  28.952  0.00  0.00    +0.004 C 
ATOM     37  C   UNL     1       6.631   4.609  28.485  0.00  0.00    +0.000 C 
ATOM     38  C   UNL     1       7.241   4.882  27.109  0.00  0.00    +0.000 C 
ATOM     39  C   UNL     1       6.816   3.837  26.079  0.00  0.00    +0.005 C 
ATOM     40  C   UNL     1       6.569   0.703  28.311  0.00  0.00    +0.032 C 
BRANCH  31  43
ATOM     41  N   UNL     1       3.943   0.734  27.780  0.00  0.00    -0.309 N 
ATOM     42  H   UNL     1       4.528   1.087  28.531  0.00  0.00    +0.149 HD
ATOM     43  C   UNL     1       4.596  -0.128  26.918  0.00  0.00    +0.231 C 
ATOM     44  O   UNL     1       4.032  -0.719  26.001  0.00  0.00    -0.274 OA
BRANCH  41  46
ATOM     45  C   UNL     1       1.705  -0.363  27.780  0.00  0.00    +0.031 C 
ATOM     46  C   UNL     1       2.492   0.959  27.837  0.00  0.00    +0.026 C 
ATOM     47  C   UNL     1       2.168   1.641  29.179  0.00  0.00    +0.031 C 
ATOM     48  C   UNL     1       2.044   1.879  26.693  0.00  0.00    +0.031 C 
ENDBRANCH  41  46
ENDBRANCH  31  43
ENDBRANCH  30  32
ENDBRANCH  27  30
ENDBRANCH   1  27
BRANCH   1  49
ATOM     49  C   UNL     1       9.662   0.163  22.384  0.00  0.00    +0.060 C 
BRANCH  49  50
ATOM     50  C   UNL     1       8.986   1.530  22.428  0.00  0.00    -0.046 A 
ATOM     51  C   UNL     1       9.578   2.650  23.027  0.00  0.00    +0.004 A 
ATOM     52  C   UNL     1       8.895   3.870  23.105  0.00  0.00    +0.000 A 
ATOM     53  C   UNL     1       7.607   3.989  22.591  0.00  0.00    +0.000 A 
ATOM     54  C   UNL     1       7.003   2.887  21.994  0.00  0.00    +0.000 A 
ATOM     55  C   UNL     1       7.685   1.667  21.916  0.00  0.00    +0.004 A 
ENDBRANCH  49  50
ENDBRANCH   1  49
TORSDOF 14
ENDMDL
MODEL 7
REMARK VINA RESULT:      -6.9      2.491      6.381
REMARK  Name = 
REMARK  17 active torsions:
REMARK  status: ('A' for Active; 'I' for Inactive)
REMARK    1  A    between atoms: C_1  and  C_2
REMARK    2  A    between atoms: C_2  and  C_3
REMARK    3  A    between atoms: C_2  and  C_4
REMARK    4  A    between atoms: C_2  and  N_5
REMARK    5  A    between atoms: C_6  and  C_8
REMARK    6  A    between atoms: N_20  and  C_21
REMARK    7  A    between atoms: C_21  and  C_22
REMARK    8  A    between atoms: C_22  and  C_24
REMARK    9  A    between atoms: C_22  and  O_55
REMARK   10  A    between atoms: C_24  and  C_26
REMARK   11  A    between atoms: C_24  and  N_33
REMARK   12  A    between atoms: C_26  and  C_27
REMARK   13  A    between atoms: C_34  and  C_36
REMARK   14  A    between atoms: C_36  and  C_38
REMARK   15  A    between atoms: C_36  and  N_42
REMARK   16  A    between atoms: C_38  and  C_39
REMARK   17  A    between atoms: C_43  and  C_45
REMARK                            x       y       z     vdW  Elec       q    Type
REMARK                         _______ _______ _______ _____ _____    ______ ____
ROOT
ATOM      1  C   UNL     1       7.228  -0.117  25.744  0.00  0.00    +0.107 C 
ENDROOT
BRANCH   1   2
ATOM      2  N   UNL     1       5.899  -0.031  26.383  0.00  0.00    -0.308 N 
ATOM      3  H   UNL     1       5.089  -0.304  25.843  0.00  0.00    +0.149 HD
ATOM      4  C   UNL     1       5.728   0.378  27.687  0.00  0.00    +0.234 C 
ATOM      5  O   UNL     1       6.675   0.706  28.400  0.00  0.00    -0.274 OA
BRANCH   4   6
ATOM      6  C   UNL     1       4.289   0.257  28.233  0.00  0.00    +0.168 C 
BRANCH   6   7
ATOM      7  N   UNL     1       3.727  -1.083  27.955  0.00  0.00    -0.298 N 
ATOM      8  H   UNL     1       4.314  -1.914  28.056  0.00  0.00    +0.150 HD
ATOM      9  C   UNL     1       2.632  -1.234  27.125  0.00  0.00    +0.263 C 
ATOM     10  O   UNL     1       1.997  -0.272  26.686  0.00  0.00    -0.269 OA
BRANCH   9  11
ATOM     11  C   UNL     1       2.239  -2.639  26.757  0.00  0.00    +0.126 A 
ATOM     12  C   UNL     1       1.958  -3.521  27.792  0.00  0.00    +0.033 A 
ATOM     13  C   UNL     1       1.601  -4.825  27.469  0.00  0.00    +0.012 A 
ATOM     14  C   UNL     1       1.528  -5.207  26.130  0.00  0.00    +0.000 A 
ATOM     15  C   UNL     1       1.826  -4.239  25.135  0.00  0.00    +0.072 A 
ATOM     16  C   UNL     1       1.731  -4.657  23.811  0.00  0.00    +0.028 A 
ATOM     17  C   UNL     1       1.363  -5.967  23.459  0.00  0.00    +0.002 A 
ATOM     18  C   UNL     1       1.083  -6.897  24.445  0.00  0.00    +0.001 A 
ATOM     19  C   UNL     1       1.164  -6.520  25.785  0.00  0.00    +0.010 A 
ATOM     20  N   UNL     1       2.183  -2.970  25.437  0.00  0.00    -0.242 NA
ENDBRANCH   9  11
ENDBRANCH   6   7
BRANCH   6  21
ATOM     21  C   UNL     1       4.254   0.589  29.732  0.00  0.00    +0.127 C 
BRANCH  21  22
ATOM     22  C   UNL     1       2.851   0.834  30.234  0.00  0.00    +0.213 C 
ATOM     23  N   UNL     1       2.529   2.135  30.484  0.00  0.00    -0.329 N 
ATOM     24  H   UNL     1       1.578   2.325  30.775  0.00  0.00    +0.145 HD
ATOM     25  H   UNL     1       3.097   2.910  30.170  0.00  0.00    +0.145 HD
ATOM     26  O   UNL     1       2.034  -0.064  30.409  0.00  0.00    -0.276 OA
ENDBRANCH  21  22
ENDBRANCH   6  21
ENDBRANCH   4   6
ENDBRANCH   1   2
BRANCH   1  27
ATOM     27  C   UNL     1       8.185  -1.044  26.568  0.00  0.00    +0.149 C 
BRANCH  27  28
ATOM     28  O   UNL     1       9.287  -0.281  27.085  0.00  0.00    -0.389 OA
ATOM     29  H   UNL     1       8.987   0.039  27.957  0.00  0.00    +0.210 HD
ENDBRANCH  27  28
BRANCH  27  30
ATOM     30  C   UNL     1       8.745  -2.258  25.760  0.00  0.00    +0.118 C 
BRANCH  30  32
ATOM     31  C   UNL     1       6.864  -3.667  26.656  0.00  0.00    +0.143 C 
ATOM     32  N   UNL     1       8.297  -3.613  26.213  0.00  0.00    -0.289 NA
ATOM     33  C   UNL     1       8.539  -4.626  25.152  0.00  0.00    +0.089 C 
ATOM     34  C   UNL     1       7.530  -4.654  23.991  0.00  0.00    +0.006 C 
ATOM     35  C   UNL     1       6.067  -4.648  24.466  0.00  0.00    -0.005 C 
ATOM     36  C   UNL     1       5.130  -4.545  23.252  0.00  0.00    +0.004 C 
ATOM     37  C   UNL     1       5.358  -5.717  22.290  0.00  0.00    +0.000 C 
ATOM     38  C   UNL     1       6.827  -5.858  21.889  0.00  0.00    +0.000 C 
ATOM     39  C   UNL     1       7.750  -5.892  23.105  0.00  0.00    +0.005 C 
ATOM     40  C   UNL     1       5.853  -3.538  25.499  0.00  0.00    +0.032 C 
BRANCH  31  43
ATOM     41  N   UNL     1       5.456  -4.910  28.272  0.00  0.00    -0.309 N 
ATOM     42  H   UNL     1       5.018  -3.994  28.297  0.00  0.00    +0.149 HD
ATOM     43  C   UNL     1       6.589  -4.970  27.482  0.00  0.00    +0.231 C 
ATOM     44  O   UNL     1       7.299  -5.968  27.397  0.00  0.00    -0.274 OA
BRANCH  41  46
ATOM     45  C   UNL     1       4.017  -5.377  30.253  0.00  0.00    +0.031 C 
ATOM     46  C   UNL     1       5.015  -5.939  29.225  0.00  0.00    +0.026 C 
ATOM     47  C   UNL     1       4.299  -7.048  28.431  0.00  0.00    +0.031 C 
ATOM     48  C   UNL     1       6.220  -6.551  29.953  0.00  0.00    +0.031 C 
ENDBRANCH  41  46
ENDBRANCH  31  43
ENDBRANCH  30  32
ENDBRANCH  27  30
ENDBRANCH   1  27
BRANCH   1  49
ATOM     49  C   UNL     1       7.770   1.315  25.520  0.00  0.00    +0.060 C 
BRANCH  49  50
ATOM     50  C   UNL     1       8.641   1.525  24.285  0.00  0.00    -0.046 A 
ATOM     51  C   UNL     1       9.697   2.448  24.250  0.00  0.00    +0.004 A 
ATOM     52  C   UNL     1      10.430   2.658  23.075  0.00  0.00    +0.000 A 
ATOM     53  C   UNL     1      10.116   1.955  21.916  0.00  0.00    +0.000 A 
ATOM     54  C   UNL     1       9.070   1.037  21.932  0.00  0.00    +0.000 A 
ATOM     55  C   UNL     1       8.337   0.826  23.105  0.00  0.00    +0.004 A 
ENDBRANCH  49  50
ENDBRANCH   1  49
TORSDOF 14
ENDMDL
MODEL 8
REMARK VINA RESULT:      -6.9      2.134      9.452
REMARK  Name = 
REMARK  17 active torsions:
REMARK  status: ('A' for Active; 'I' for Inactive)
REMARK    1  A    between atoms: C_1  and  C_2
REMARK    2  A    between atoms: C_2  and  C_3
REMARK    3  A    between atoms: C_2  and  C_4
REMARK    4  A    between atoms: C_2  and  N_5
REMARK    5  A    between atoms: C_6  and  C_8
REMARK    6  A    between atoms: N_20  and  C_21
REMARK    7  A    between atoms: C_21  and  C_22
REMARK    8  A    between atoms: C_22  and  C_24
REMARK    9  A    between atoms: C_22  and  O_55
REMARK   10  A    between atoms: C_24  and  C_26
REMARK   11  A    between atoms: C_24  and  N_33
REMARK   12  A    between atoms: C_26  and  C_27
REMARK   13  A    between atoms: C_34  and  C_36
REMARK   14  A    between atoms: C_36  and  C_38
REMARK   15  A    between atoms: C_36  and  N_42
REMARK   16  A    between atoms: C_38  and  C_39
REMARK   17  A    between atoms: C_43  and  C_45
REMARK                            x       y       z     vdW  Elec       q    Type
REMARK                         _______ _______ _______ _____ _____    ______ ____
ROOT
ATOM      1  C   UNL     1       4.814  -2.821  27.167  0.00  0.00    +0.107 C 
ENDROOT
BRANCH   1   2
ATOM      2  N   UNL     1       4.761  -1.404  27.579  0.00  0.00    -0.308 N 
ATOM      3  H   UNL     1       5.016  -0.698  26.901  0.00  0.00    +0.149 HD
ATOM      4  C   UNL     1       4.354  -1.011  28.834  0.00  0.00    +0.234 C 
ATOM      5  O   UNL     1       4.014  -1.820  29.696  0.00  0.00    -0.274 OA
BRANCH   4   6
ATOM      6  C   UNL     1       4.212   0.514  29.035  0.00  0.00    +0.168 C 
BRANCH   6   7
ATOM      7  N   UNL     1       4.985   1.258  28.016  0.00  0.00    -0.298 N 
ATOM      8  H   UNL     1       5.149   0.843  27.096  0.00  0.00    +0.150 HD
ATOM      9  C   UNL     1       5.884   2.241  28.387  0.00  0.00    +0.263 C 
ATOM     10  O   UNL     1       5.992   2.634  29.551  0.00  0.00    -0.269 OA
BRANCH   9  11
ATOM     11  C   UNL     1       6.752   2.819  27.303  0.00  0.00    +0.126 A 
ATOM     12  C   UNL     1       7.202   1.958  26.310  0.00  0.00    +0.033 A 
ATOM     13  C   UNL     1       8.012   2.476  25.306  0.00  0.00    +0.012 A 
ATOM     14  C   UNL     1       8.340   3.831  25.316  0.00  0.00    +0.000 A 
ATOM     15  C   UNL     1       7.832   4.641  26.365  0.00  0.00    +0.072 A 
ATOM     16  C   UNL     1       8.174   5.989  26.334  0.00  0.00    +0.028 A 
ATOM     17  C   UNL     1       8.983   6.537  25.324  0.00  0.00    +0.002 A 
ATOM     18  C   UNL     1       9.474   5.729  24.313  0.00  0.00    +0.001 A 
ATOM     19  C   UNL     1       9.154   4.372  24.305  0.00  0.00    +0.010 A 
ATOM     20  N   UNL     1       7.051   4.147  27.353  0.00  0.00    -0.242 NA
ENDBRANCH   9  11
ENDBRANCH   6   7
BRANCH   6  21
ATOM     21  C   UNL     1       2.732   0.920  29.036  0.00  0.00    +0.127 C 
BRANCH  21  22
ATOM     22  C   UNL     1       2.228   1.260  27.653  0.00  0.00    +0.213 C 
ATOM     23  N   UNL     1       1.630   2.477  27.522  0.00  0.00    -0.329 N 
ATOM     24  H   UNL     1       1.329   2.744  26.593  0.00  0.00    +0.145 HD
ATOM     25  H   UNL     1       1.691   3.197  28.230  0.00  0.00    +0.145 HD
ATOM     26  O   UNL     1       2.343   0.505  26.692  0.00  0.00    -0.276 OA
ENDBRANCH  21  22
ENDBRANCH   6  21
ENDBRANCH   4   6
ENDBRANCH   1   2
BRANCH   1  27
ATOM     27  C   UNL     1       6.246  -3.202  26.657  0.00  0.00    +0.149 C 
BRANCH  27  28
ATOM     28  O   UNL     1       6.834  -4.181  27.527  0.00  0.00    -0.389 OA
ATOM     29  H   UNL     1       6.181  -4.312  28.241  0.00  0.00    +0.210 HD
ENDBRANCH  27  28
BRANCH  27  30
ATOM     30  C   UNL     1       7.220  -1.987  26.530  0.00  0.00    +0.118 C 
BRANCH  30  32
ATOM     31  C   UNL     1       8.933  -2.112  24.693  0.00  0.00    +0.143 C 
ATOM     32  N   UNL     1       7.598  -1.590  25.137  0.00  0.00    -0.289 NA
ATOM     33  C   UNL     1       6.545  -2.003  24.171  0.00  0.00    +0.089 C 
ATOM     34  C   UNL     1       6.530  -3.488  23.770  0.00  0.00    +0.006 C 
ATOM     35  C   UNL     1       7.918  -4.018  23.376  0.00  0.00    -0.005 C 
ATOM     36  C   UNL     1       7.840  -5.532  23.118  0.00  0.00    +0.004 C 
ATOM     37  C   UNL     1       6.832  -5.839  22.004  0.00  0.00    +0.000 C 
ATOM     38  C   UNL     1       5.462  -5.217  22.276  0.00  0.00    +0.000 C 
ATOM     39  C   UNL     1       5.566  -3.727  22.596  0.00  0.00    +0.005 C 
ATOM     40  C   UNL     1       8.950  -3.633  24.441  0.00  0.00    +0.032 C 
BRANCH  31  43
ATOM     41  N   UNL     1       8.755  -0.163  23.174  0.00  0.00    -0.309 N 
ATOM     42  H   UNL     1       7.953  -0.012  23.778  0.00  0.00    +0.149 HD
ATOM     43  C   UNL     1       9.435  -1.340  23.424  0.00  0.00    +0.231 C 
ATOM     44  O   UNL     1      10.378  -1.732  22.742  0.00  0.00    -0.274 OA
BRANCH  41  46
ATOM     45  C   UNL     1       9.049  -0.106  20.699  0.00  0.00    +0.031 C 
ATOM     46  C   UNL     1       8.940   0.706  22.003  0.00  0.00    +0.026 C 
ATOM     47  C   UNL     1       7.706   1.619  21.887  0.00  0.00    +0.031 C 
ATOM     48  C   UNL     1      10.189   1.582  22.173  0.00  0.00    +0.031 C 
ENDBRANCH  41  46
ENDBRANCH  31  43
ENDBRANCH  30  32
ENDBRANCH  27  30
ENDBRANCH   1  27
BRANCH   1  49
ATOM     49  C   UNL     1       3.685  -3.089  26.144  0.00  0.00    +0.060 C 
BRANCH  49  50
ATOM     50  C   UNL     1       3.550  -4.523  25.641  0.00  0.00    -0.046 A 
ATOM     51  C   UNL     1       4.416  -5.551  26.038  0.00  0.00    +0.004 A 
ATOM     52  C   UNL     1       4.299  -6.839  25.502  0.00  0.00    +0.000 A 
ATOM     53  C   UNL     1       3.319  -7.118  24.555  0.00  0.00    +0.000 A 
ATOM     54  C   UNL     1       2.451  -6.110  24.146  0.00  0.00    +0.000 A 
ATOM     55  C   UNL     1       2.568  -4.823  24.682  0.00  0.00    +0.004 A 
ENDBRANCH  49  50
ENDBRANCH   1  49
TORSDOF 14
ENDMDL
MODEL 9
REMARK VINA RESULT:      -6.8      2.360      8.836
REMARK  Name = 
REMARK  17 active torsions:
REMARK  status: ('A' for Active; 'I' for Inactive)
REMARK    1  A    between atoms: C_1  and  C_2
REMARK    2  A    between atoms: C_2  and  C_3
REMARK    3  A    between atoms: C_2  and  C_4
REMARK    4  A    between atoms: C_2  and  N_5
REMARK    5  A    between atoms: C_6  and  C_8
REMARK    6  A    between atoms: N_20  and  C_21
REMARK    7  A    between atoms: C_21  and  C_22
REMARK    8  A    between atoms: C_22  and  C_24
REMARK    9  A    between atoms: C_22  and  O_55
REMARK   10  A    between atoms: C_24  and  C_26
REMARK   11  A    between atoms: C_24  and  N_33
REMARK   12  A    between atoms: C_26  and  C_27
REMARK   13  A    between atoms: C_34  and  C_36
REMARK   14  A    between atoms: C_36  and  C_38
REMARK   15  A    between atoms: C_36  and  N_42
REMARK   16  A    between atoms: C_38  and  C_39
REMARK   17  A    between atoms: C_43  and  C_45
REMARK                            x       y       z     vdW  Elec       q    Type
REMARK                         _______ _______ _______ _____ _____    ______ ____
ROOT
ATOM      1  C   UNL     1       4.716   0.894  28.025  0.00  0.00    +0.107 C 
ENDROOT
BRANCH   1   2
ATOM      2  N   UNL     1       4.716   2.030  27.081  0.00  0.00    -0.308 N 
ATOM      3  H   UNL     1       5.120   1.891  26.164  0.00  0.00    +0.149 HD
ATOM      4  C   UNL     1       4.168   3.253  27.393  0.00  0.00    +0.234 C 
ATOM      5  O   UNL     1       3.648   3.479  28.484  0.00  0.00    -0.274 OA
BRANCH   4   6
ATOM      6  C   UNL     1       4.120   4.270  26.232  0.00  0.00    +0.168 C 
BRANCH   6   7
ATOM      7  N   UNL     1       5.413   4.319  25.514  0.00  0.00    -0.298 N 
ATOM      8  H   UNL     1       5.780   3.476  25.067  0.00  0.00    +0.150 HD
ATOM      9  C   UNL     1       6.356   5.283  25.818  0.00  0.00    +0.263 C 
ATOM     10  O   UNL     1       6.125   6.214  26.593  0.00  0.00    -0.269 OA
BRANCH   9  11
ATOM     11  C   UNL     1       7.706   5.149  25.167  0.00  0.00    +0.126 A 
ATOM     12  C   UNL     1       7.872   4.138  24.229  0.00  0.00    +0.033 A 
ATOM     13  C   UNL     1       9.116   3.997  23.625  0.00  0.00    +0.012 A 
ATOM     14  C   UNL     1      10.150   4.869  23.966  0.00  0.00    +0.000 A 
ATOM     15  C   UNL     1       9.891   5.878  24.930  0.00  0.00    +0.072 A 
ATOM     16  C   UNL     1      10.946   6.733  25.235  0.00  0.00    +0.028 A 
ATOM     17  C   UNL     1      12.209   6.616  24.630  0.00  0.00    +0.002 A 
ATOM     18  C   UNL     1      12.442   5.621  23.697  0.00  0.00    +0.001 A 
ATOM     19  C   UNL     1      11.413   4.743  23.361  0.00  0.00    +0.010 A 
ATOM     20  N   UNL     1       8.688   6.020  25.532  0.00  0.00    -0.242 NA
ENDBRANCH   9  11
ENDBRANCH   6   7
BRANCH   6  21
ATOM     21  C   UNL     1       2.955   3.949  25.285  0.00  0.00    +0.127 C 
BRANCH  21  22
ATOM     22  C   UNL     1       3.402   3.184  24.061  0.00  0.00    +0.213 C 
ATOM     23  N   UNL     1       2.896   3.618  22.873  0.00  0.00    -0.329 N 
ATOM     24  H   UNL     1       3.221   3.150  22.037  0.00  0.00    +0.145 HD
ATOM     25  H   UNL     1       2.421   4.505  22.770  0.00  0.00    +0.145 HD
ATOM     26  O   UNL     1       4.175   2.233  24.110  0.00  0.00    -0.276 OA
ENDBRANCH  21  22
ENDBRANCH   6  21
ENDBRANCH   4   6
ENDBRANCH   1   2
BRANCH   1  27
ATOM     27  C   UNL     1       6.179   0.463  28.382  0.00  0.00    +0.149 C 
BRANCH  27  28
ATOM     28  O   UNL     1       6.642   1.195  29.529  0.00  0.00    -0.389 OA
ATOM     29  H   UNL     1       7.377   1.745  29.199  0.00  0.00    +0.210 HD
ENDBRANCH  27  28
BRANCH  27  30
ATOM     30  C   UNL     1       7.201   0.651  27.215  0.00  0.00    +0.118 C 
BRANCH  30  32
ATOM     31  C   UNL     1       6.741  -1.161  25.532  0.00  0.00    +0.143 C 
ATOM     32  N   UNL     1       7.685  -0.604  26.557  0.00  0.00    -0.289 NA
ATOM     33  C   UNL     1       9.026  -0.392  25.951  0.00  0.00    +0.089 C 
ATOM     34  C   UNL     1       9.058   0.354  24.606  0.00  0.00    +0.006 C 
ATOM     35  C   UNL     1       8.042  -0.194  23.591  0.00  0.00    -0.005 C 
ATOM     36  C   UNL     1       8.046   0.685  22.329  0.00  0.00    +0.004 C 
ATOM     37  C   UNL     1       9.443   0.719  21.698  0.00  0.00    +0.000 C 
ATOM     38  C   UNL     1      10.522   1.126  22.702  0.00  0.00    +0.000 C 
ATOM     39  C   UNL     1      10.460   0.287  23.977  0.00  0.00    +0.005 C 
ATOM     40  C   UNL     1       6.662  -0.319  24.243  0.00  0.00    +0.032 C 
BRANCH  31  43
ATOM     41  N   UNL     1       6.205  -3.273  24.353  0.00  0.00    -0.309 N 
ATOM     42  H   UNL     1       5.375  -2.723  24.155  0.00  0.00    +0.149 HD
ATOM     43  C   UNL     1       7.105  -2.648  25.196  0.00  0.00    +0.231 C 
ATOM     44  O   UNL     1       8.125  -3.189  25.614  0.00  0.00    -0.274 OA
BRANCH  41  46
ATOM     45  C   UNL     1       7.568  -5.061  23.277  0.00  0.00    +0.031 C 
ATOM     46  C   UNL     1       6.238  -4.688  23.956  0.00  0.00    +0.026 C 
ATOM     47  C   UNL     1       6.102  -5.544  25.228  0.00  0.00    +0.031 C 
ATOM     48  C   UNL     1       5.068  -5.010  23.015  0.00  0.00    +0.031 C 
ENDBRANCH  41  46
ENDBRANCH  31  43
ENDBRANCH  30  32
ENDBRANCH  27  30
ENDBRANCH   1  27
BRANCH   1  49
ATOM     49  C   UNL     1       3.845  -0.244  27.440  0.00  0.00    +0.060 C 
BRANCH  49  50
ATOM     50  C   UNL     1       3.881  -1.576  28.182  0.00  0.00    -0.046 A 
ATOM     51  C   UNL     1       3.710  -1.677  29.570  0.00  0.00    +0.004 A 
ATOM     52  C   UNL     1       3.817  -2.912  30.221  0.00  0.00    +0.000 A 
ATOM     53  C   UNL     1       4.101  -4.065  29.496  0.00  0.00    +0.000 A 
ATOM     54  C   UNL     1       4.275  -3.985  28.118  0.00  0.00    +0.000 A 
ATOM     55  C   UNL     1       4.170  -2.751  27.467  0.00  0.00    +0.004 A 
ENDBRANCH  49  50
ENDBRANCH   1  49
TORSDOF 14
ENDMDL
