MODEL 1
REMARK VINA RESULT:      -6.1      0.000      0.000
REMARK  Name = 
REMARK  5 active torsions:
REMARK  status: ('A' for Active; 'I' for Inactive)
REMARK    1  A    between atoms: C5M_1  and  C5_2
REMARK    2  A    between atoms: N1_4  and  C1*_10
REMARK    3  A    between atoms: C3*_12  and  O3*_19
REMARK    4  A    between atoms: C4*_14  and  C5*_17
REMARK    5  A    between atoms: C5*_17  and  O5*_18
REMARK                            x       y       z     vdW  Elec       q    Type
REMARK                         _______ _______ _______ _____ _____    ______ ____
ROOT
ATOM      1  C5M   T A   1       5.341  -6.168  26.531  0.00  0.00    +0.051 C 
ATOM      2  C5    T A   1       5.539  -5.885  25.078  0.00  0.00    +0.030 A 
ATOM      3  C4    T A   1       4.809  -6.743  24.116  0.00  0.00    +0.257 A 
ATOM      4  O4    T A   1       4.059  -7.641  24.485  0.00  0.00    -0.267 OA
ATOM      5  N3    T A   1       5.010  -6.465  22.797  0.00  0.00    -0.275 N 
ATOM      6  H3    T A   1       4.503  -7.023  22.129  0.00  0.00    +0.173 HD
ATOM      7  C2    T A   1       5.764  -5.441  22.295  0.00  0.00    +0.331 A 
ATOM      8  O2    T A   1       5.788  -5.224  21.084  0.00  0.00    -0.246 OA
ATOM      9  N1    T A   1       6.458  -4.686  23.231  0.00  0.00    -0.274 N 
ATOM     10  C6    T A   1       6.320  -4.913  24.587  0.00  0.00    +0.101 A 
ENDROOT
BRANCH   9  11
ATOM     11  C1*   T A   1       7.270  -3.594  22.714  0.00  0.00    +0.226 C 
ATOM     12  O4*   T A   1       8.480  -3.429  23.480  0.00  0.00    -0.348 OA
ATOM     13  C4*   T A   1       8.813  -2.020  23.473  0.00  0.00    +0.175 C 
ATOM     14  C3*   T A   1       7.747  -1.311  22.633  0.00  0.00    +0.150 C 
ATOM     15  C2*   T A   1       6.569  -2.247  22.747  0.00  0.00    +0.088 C 
BRANCH  14  16
ATOM     16  O3*   T A   1       7.447  -0.008  23.108  0.00  0.00    -0.389 OA
ATOM     17  H3*   T A   1       6.676  -0.051  23.699  0.00  0.00    +0.210 HD
ENDBRANCH  14  16
BRANCH  13  18
ATOM     18  C5*   T A   1      10.229  -1.843  22.924  0.00  0.00    +0.190 C 
BRANCH  18  19
ATOM     19  O5*   T A   1      10.195  -1.519  21.534  0.00  0.00    -0.392 OA
ATOM     20  H5*   T A   1       9.290  -1.209  21.348  0.00  0.00    +0.210 HD
ENDBRANCH  18  19
ENDBRANCH  13  18
ENDBRANCH   9  11
TORSDOF 4
ENDMDL
MODEL 2
REMARK VINA RESULT:      -6.0      2.843      2.976
REMARK  Name = 
REMARK  5 active torsions:
REMARK  status: ('A' for Active; 'I' for Inactive)
REMARK    1  A    between atoms: C5M_1  and  C5_2
REMARK    2  A    between atoms: N1_4  and  C1*_10
REMARK    3  A    between atoms: C3*_12  and  O3*_19
REMARK    4  A    between atoms: C4*_14  and  C5*_17
REMARK    5  A    between atoms: C5*_17  and  O5*_18
REMARK                            x       y       z     vdW  Elec       q    Type
REMARK                         _______ _______ _______ _____ _____    ______ ____
ROOT
ATOM      1  C5M   T A   1       5.267  -4.166  28.066  0.00  0.00    +0.051 C 
ATOM      2  C5    T A   1       6.423  -4.386  27.146  0.00  0.00    +0.030 A 
ATOM      3  C4    T A   1       7.294  -5.551  27.422  0.00  0.00    +0.257 A 
ATOM      4  O4    T A   1       7.078  -6.319  28.353  0.00  0.00    -0.267 OA
ATOM      5  N3    T A   1       8.343  -5.727  26.569  0.00  0.00    -0.275 N 
ATOM      6  H3    T A   1       8.933  -6.528  26.727  0.00  0.00    +0.173 HD
ATOM      7  C2    T A   1       8.619  -4.970  25.464  0.00  0.00    +0.331 A 
ATOM      8  O2    T A   1       9.536  -5.286  24.708  0.00  0.00    -0.246 OA
ATOM      9  N1    T A   1       7.798  -3.868  25.266  0.00  0.00    -0.274 N 
ATOM     10  C6    T A   1       6.721  -3.611  26.094  0.00  0.00    +0.101 A 
ENDROOT
BRANCH   9  11
ATOM     11  C1*   T A   1       8.079  -3.047  24.097  0.00  0.00    +0.226 C 
ATOM     12  O4*   T A   1       9.134  -2.101  24.359  0.00  0.00    -0.348 OA
ATOM     13  C4*   T A   1       8.862  -0.914  23.576  0.00  0.00    +0.175 C 
ATOM     14  C3*   T A   1       7.579  -1.182  22.786  0.00  0.00    +0.150 C 
ATOM     15  C2*   T A   1       6.890  -2.225  23.631  0.00  0.00    +0.088 C 
BRANCH  14  16
ATOM     16  O3*   T A   1       6.785  -0.019  22.612  0.00  0.00    -0.389 OA
ATOM     17  H3*   T A   1       6.917   0.328  21.713  0.00  0.00    +0.210 HD
ENDBRANCH  14  16
BRANCH  13  18
ATOM     18  C5*   T A   1      10.068  -0.615  22.684  0.00  0.00    +0.190 C 
BRANCH  18  19
ATOM     19  O5*   T A   1      10.166  -1.573  21.630  0.00  0.00    -0.392 OA
ATOM     20  H5*   T A   1      10.913  -2.155  21.859  0.00  0.00    +0.210 HD
ENDBRANCH  18  19
ENDBRANCH  13  18
ENDBRANCH   9  11
TORSDOF 4
ENDMDL
MODEL 3
REMARK VINA RESULT:      -5.9      2.837      3.299
REMARK  Name = 
REMARK  5 active torsions:
REMARK  status: ('A' for Active; 'I' for Inactive)
REMARK    1  A    between atoms: C5M_1  and  C5_2
REMARK    2  A    between atoms: N1_4  and  C1*_10
REMARK    3  A    between atoms: C3*_12  and  O3*_19
REMARK    4  A    between atoms: C4*_14  and  C5*_17
REMARK    5  A    between atoms: C5*_17  and  O5*_18
REMARK                            x       y       z     vdW  Elec       q    Type
REMARK                         _______ _______ _______ _____ _____    ______ ____
ROOT
ATOM      1  C5M   T A   1       4.866  -4.006  25.738  0.00  0.00    +0.051 C 
ATOM      2  C5    T A   1       6.338  -4.219  25.600  0.00  0.00    +0.030 A 
ATOM      3  C4    T A   1       6.896  -5.470  26.165  0.00  0.00    +0.257 A 
ATOM      4  O4    T A   1       6.188  -6.309  26.712  0.00  0.00    -0.267 OA
ATOM      5  N3    T A   1       8.242  -5.638  26.028  0.00  0.00    -0.275 N 
ATOM      6  H3    T A   1       8.635  -6.494  26.385  0.00  0.00    +0.173 HD
ATOM      7  C2    T A   1       9.096  -4.797  25.371  0.00  0.00    +0.331 A 
ATOM      8  O2    T A   1      10.278  -5.105  25.222  0.00  0.00    -0.246 OA
ATOM      9  N1    T A   1       8.536  -3.621  24.890  0.00  0.00    -0.274 N 
ATOM     10  C6    T A   1       7.182  -3.368  25.001  0.00  0.00    +0.101 A 
ENDROOT
BRANCH   9  11
ATOM     11  C1*   T A   1       9.432  -2.710  24.191  0.00  0.00    +0.226 C 
ATOM     12  O4*   T A   1       9.304  -1.363  24.685  0.00  0.00    -0.348 OA
ATOM     13  C4*   T A   1       9.550  -0.465  23.577  0.00  0.00    +0.175 C 
ATOM     14  C3*   T A   1       9.865  -1.334  22.357  0.00  0.00    +0.150 C 
ATOM     15  C2*   T A   1       9.174  -2.632  22.696  0.00  0.00    +0.088 C 
BRANCH  14  16
ATOM     16  O3*   T A   1       9.392  -0.774  21.142  0.00  0.00    -0.389 OA
ATOM     17  H3*   T A   1       9.712   0.141  21.065  0.00  0.00    +0.210 HD
ENDBRANCH  14  16
BRANCH  13  18
ATOM     18  C5*   T A   1      10.688   0.488  23.948  0.00  0.00    +0.190 C 
BRANCH  18  19
ATOM     19  O5*   T A   1      10.806   0.606  25.365  0.00  0.00    -0.392 OA
ATOM     20  H5*   T A   1      10.327   1.417  25.613  0.00  0.00    +0.210 HD
ENDBRANCH  18  19
ENDBRANCH  13  18
ENDBRANCH   9  11
TORSDOF 4
ENDMDL
MODEL 4
REMARK VINA RESULT:      -5.9      2.518      6.139
REMARK  Name = 
REMARK  5 active torsions:
REMARK  status: ('A' for Active; 'I' for Inactive)
REMARK    1  A    between atoms: C5M_1  and  C5_2
REMARK    2  A    between atoms: N1_4  and  C1*_10
REMARK    3  A    between atoms: C3*_12  and  O3*_19
REMARK    4  A    between atoms: C4*_14  and  C5*_17
REMARK    5  A    between atoms: C5*_17  and  O5*_18
REMARK                            x       y       z     vdW  Elec       q    Type
REMARK                         _______ _______ _______ _____ _____    ______ ____
ROOT
ATOM      1  C5M   T A   1      10.774   0.344  24.845  0.00  0.00    +0.051 C 
ATOM      2  C5    T A   1       9.883  -0.579  24.081  0.00  0.00    +0.030 A 
ATOM      3  C4    T A   1       9.539  -0.192  22.693  0.00  0.00    +0.257 A 
ATOM      4  O4    T A   1       9.973   0.831  22.176  0.00  0.00    -0.267 OA
ATOM      5  N3    T A   1       8.721  -1.051  22.020  0.00  0.00    -0.275 N 
ATOM      6  H3    T A   1       8.496  -0.817  21.066  0.00  0.00    +0.173 HD
ATOM      7  C2    T A   1       8.251  -2.248  22.485  0.00  0.00    +0.331 A 
ATOM      8  O2    T A   1       7.603  -2.989  21.748  0.00  0.00    -0.246 OA
ATOM      9  N1    T A   1       8.568  -2.551  23.802  0.00  0.00    -0.274 N 
ATOM     10  C6    T A   1       9.380  -1.726  24.558  0.00  0.00    +0.101 A 
ENDROOT
BRANCH   9  11
ATOM     11  C1*   T A   1       8.072  -3.819  24.317  0.00  0.00    +0.226 C 
ATOM     12  O4*   T A   1       6.737  -3.688  24.844  0.00  0.00    -0.348 OA
ATOM     13  C4*   T A   1       6.607  -4.619  25.945  0.00  0.00    +0.175 C 
ATOM     14  C3*   T A   1       7.939  -5.364  26.062  0.00  0.00    +0.150 C 
ATOM     15  C2*   T A   1       8.912  -4.387  25.448  0.00  0.00    +0.088 C 
BRANCH  14  16
ATOM     16  O3*   T A   1       8.275  -5.688  27.401  0.00  0.00    -0.389 OA
ATOM     17  H3*   T A   1       8.287  -4.875  27.935  0.00  0.00    +0.210 HD
ENDBRANCH  14  16
BRANCH  13  18
ATOM     18  C5*   T A   1       5.420  -5.546  25.677  0.00  0.00    +0.190 C 
BRANCH  18  19
ATOM     19  O5*   T A   1       5.508  -6.724  26.478  0.00  0.00    -0.392 OA
ATOM     20  H5*   T A   1       4.861  -7.353  26.112  0.00  0.00    +0.210 HD
ENDBRANCH  18  19
ENDBRANCH  13  18
ENDBRANCH   9  11
TORSDOF 4
ENDMDL
MODEL 5
REMARK VINA RESULT:      -5.8      2.772      6.232
REMARK  Name = 
REMARK  5 active torsions:
REMARK  status: ('A' for Active; 'I' for Inactive)
REMARK    1  A    between atoms: C5M_1  and  C5_2
REMARK    2  A    between atoms: N1_4  and  C1*_10
REMARK    3  A    between atoms: C3*_12  and  O3*_19
REMARK    4  A    between atoms: C4*_14  and  C5*_17
REMARK    5  A    between atoms: C5*_17  and  O5*_18
REMARK                            x       y       z     vdW  Elec       q    Type
REMARK                         _______ _______ _______ _____ _____    ______ ____
ROOT
ATOM      1  C5M   T A   1       9.658   1.070  21.795  0.00  0.00    +0.051 C 
ATOM      2  C5    T A   1       9.380   0.143  22.933  0.00  0.00    +0.030 A 
ATOM      3  C4    T A   1       9.863   0.552  24.272  0.00  0.00    +0.257 A 
ATOM      4  O4    T A   1      10.454   1.611  24.454  0.00  0.00    -0.267 OA
ATOM      5  N3    T A   1       9.599  -0.313  25.291  0.00  0.00    -0.275 N 
ATOM      6  H3    T A   1       9.899  -0.040  26.214  0.00  0.00    +0.173 HD
ATOM      7  C2    T A   1       8.884  -1.475  25.198  0.00  0.00    +0.331 A 
ATOM      8  O2    T A   1       8.620  -2.125  26.209  0.00  0.00    -0.246 OA
ATOM      9  N1    T A   1       8.483  -1.836  23.919  0.00  0.00    -0.274 N 
ATOM     10  C6    T A   1       8.724  -1.022  22.829  0.00  0.00    +0.101 A 
ENDROOT
BRANCH   9  11
ATOM     11  C1*   T A   1       7.725  -3.074  23.798  0.00  0.00    +0.226 C 
ATOM     12  O4*   T A   1       8.076  -3.792  22.599  0.00  0.00    -0.348 OA
ATOM     13  C4*   T A   1       6.890  -4.487  22.143  0.00  0.00    +0.175 C 
ATOM     14  C3*   T A   1       5.775  -4.178  23.146  0.00  0.00    +0.150 C 
ATOM     15  C2*   T A   1       6.222  -2.861  23.732  0.00  0.00    +0.088 C 
BRANCH  14  16
ATOM     16  O3*   T A   1       4.496  -4.090  22.539  0.00  0.00    -0.389 OA
ATOM     17  H3*   T A   1       4.601  -4.052  21.573  0.00  0.00    +0.210 HD
ENDBRANCH  14  16
BRANCH  13  18
ATOM     18  C5*   T A   1       7.199  -5.980  22.026  0.00  0.00    +0.190 C 
BRANCH  18  19
ATOM     19  O5*   T A   1       5.997  -6.749  22.058  0.00  0.00    -0.392 OA
ATOM     20  H5*   T A   1       5.925  -7.180  21.187  0.00  0.00    +0.210 HD
ENDBRANCH  18  19
ENDBRANCH  13  18
ENDBRANCH   9  11
TORSDOF 4
ENDMDL
MODEL 6
REMARK VINA RESULT:      -5.6      3.393      3.673
REMARK  Name = 
REMARK  5 active torsions:
REMARK  status: ('A' for Active; 'I' for Inactive)
REMARK    1  A    between atoms: C5M_1  and  C5_2
REMARK    2  A    between atoms: N1_4  and  C1*_10
REMARK    3  A    between atoms: C3*_12  and  O3*_19
REMARK    4  A    between atoms: C4*_14  and  C5*_17
REMARK    5  A    between atoms: C5*_17  and  O5*_18
REMARK                            x       y       z     vdW  Elec       q    Type
REMARK                         _______ _______ _______ _____ _____    ______ ____
ROOT
ATOM      1  C5M   T A   1       5.661  -3.512  27.321  0.00  0.00    +0.051 C 
ATOM      2  C5    T A   1       6.854  -3.393  26.431  0.00  0.00    +0.030 A 
ATOM      3  C4    T A   1       7.933  -4.393  26.609  0.00  0.00    +0.257 A 
ATOM      4  O4    T A   1       7.854  -5.294  27.437  0.00  0.00    -0.267 OA
ATOM      5  N3    T A   1       9.011  -4.260  25.786  0.00  0.00    -0.275 N 
ATOM      6  H3    T A   1       9.744  -4.945  25.876  0.00  0.00    +0.173 HD
ATOM      7  C2    T A   1       9.153  -3.337  24.786  0.00  0.00    +0.331 A 
ATOM      8  O2    T A   1      10.129  -3.379  24.038  0.00  0.00    -0.246 OA
ATOM      9  N1    T A   1       8.136  -2.399  24.680  0.00  0.00    -0.274 N 
ATOM     10  C6    T A   1       7.015  -2.455  25.486  0.00  0.00    +0.101 A 
ENDROOT
BRANCH   9  11
ATOM     11  C1*   T A   1       8.273  -1.406  23.624  0.00  0.00    +0.226 C 
ATOM     12  O4*   T A   1       9.087  -0.295  24.048  0.00  0.00    -0.348 OA
ATOM     13  C4*   T A   1       8.591   0.891  23.383  0.00  0.00    +0.175 C 
ATOM     14  C3*   T A   1       7.425   0.451  22.494  0.00  0.00    +0.150 C 
ATOM     15  C2*   T A   1       6.950  -0.806  23.180  0.00  0.00    +0.088 C 
BRANCH  14  16
ATOM     16  O3*   T A   1       6.403   1.431  22.398  0.00  0.00    -0.389 OA
ATOM     17  H3*   T A   1       6.508   2.075  23.120  0.00  0.00    +0.210 HD
ENDBRANCH  14  16
BRANCH  13  18
ATOM     18  C5*   T A   1       9.733   1.541  22.600  0.00  0.00    +0.190 C 
BRANCH  18  19
ATOM     19  O5*   T A   1       9.241   2.172  21.418  0.00  0.00    -0.392 OA
ATOM     20  H5*   T A   1       9.070   1.458  20.778  0.00  0.00    +0.210 HD
ENDBRANCH  18  19
ENDBRANCH  13  18
ENDBRANCH   9  11
TORSDOF 4
ENDMDL
MODEL 7
REMARK VINA RESULT:      -5.6      2.314      3.190
REMARK  Name = 
REMARK  5 active torsions:
REMARK  status: ('A' for Active; 'I' for Inactive)
REMARK    1  A    between atoms: C5M_1  and  C5_2
REMARK    2  A    between atoms: N1_4  and  C1*_10
REMARK    3  A    between atoms: C3*_12  and  O3*_19
REMARK    4  A    between atoms: C4*_14  and  C5*_17
REMARK    5  A    between atoms: C5*_17  and  O5*_18
REMARK                            x       y       z     vdW  Elec       q    Type
REMARK                         _______ _______ _______ _____ _____    ______ ____
ROOT
ATOM      1  C5M   T A   1       4.235  -5.538  23.194  0.00  0.00    +0.051 C 
ATOM      2  C5    T A   1       5.224  -5.378  24.301  0.00  0.00    +0.030 A 
ATOM      3  C4    T A   1       5.136  -6.332  25.431  0.00  0.00    +0.257 A 
ATOM      4  O4    T A   1       4.300  -7.229  25.460  0.00  0.00    -0.267 OA
ATOM      5  N3    T A   1       6.049  -6.161  26.429  0.00  0.00    -0.275 N 
ATOM      6  H3    T A   1       6.019  -6.816  27.194  0.00  0.00    +0.173 HD
ATOM      7  C2    T A   1       7.060  -5.242  26.447  0.00  0.00    +0.331 A 
ATOM      8  O2    T A   1       7.889  -5.249  27.357  0.00  0.00    -0.246 OA
ATOM      9  N1    T A   1       7.082  -4.346  25.387  0.00  0.00    -0.274 N 
ATOM     10  C6    T A   1       6.183  -4.441  24.342  0.00  0.00    +0.101 A 
ENDROOT
BRANCH   9  11
ATOM     11  C1*   T A   1       8.150  -3.356  25.392  0.00  0.00    +0.226 C 
ATOM     12  O4*   T A   1       7.624  -2.014  25.376  0.00  0.00    -0.348 OA
ATOM     13  C4*   T A   1       8.558  -1.186  24.642  0.00  0.00    +0.175 C 
ATOM     14  C3*   T A   1       9.719  -2.089  24.217  0.00  0.00    +0.150 C 
ATOM     15  C2*   T A   1       9.075  -3.454  24.191  0.00  0.00    +0.088 C 
BRANCH  14  16
ATOM     16  O3*   T A   1      10.265  -1.729  22.958  0.00  0.00    -0.389 OA
ATOM     17  H3*   T A   1      10.275  -2.509  22.377  0.00  0.00    +0.210 HD
ENDBRANCH  14  16
BRANCH  13  18
ATOM     18  C5*   T A   1       8.996  -0.020  25.529  0.00  0.00    +0.190 C 
BRANCH  18  19
ATOM     19  O5*   T A   1      10.383   0.263  25.344  0.00  0.00    -0.392 OA
ATOM     20  H5*   T A   1      10.869  -0.479  25.747  0.00  0.00    +0.210 HD
ENDBRANCH  18  19
ENDBRANCH  13  18
ENDBRANCH   9  11
TORSDOF 4
ENDMDL
MODEL 8
REMARK VINA RESULT:      -5.5      2.206      3.342
REMARK  Name = 
REMARK  5 active torsions:
REMARK  status: ('A' for Active; 'I' for Inactive)
REMARK    1  A    between atoms: C5M_1  and  C5_2
REMARK    2  A    between atoms: N1_4  and  C1*_10
REMARK    3  A    between atoms: C3*_12  and  O3*_19
REMARK    4  A    between atoms: C4*_14  and  C5*_17
REMARK    5  A    between atoms: C5*_17  and  O5*_18
REMARK                            x       y       z     vdW  Elec       q    Type
REMARK                         _______ _______ _______ _____ _____    ______ ____
ROOT
ATOM      1  C5M   T A   1       5.434  -6.178  23.821  0.00  0.00    +0.051 C 
ATOM      2  C5    T A   1       6.270  -5.227  24.613  0.00  0.00    +0.030 A 
ATOM      3  C4    T A   1       6.422  -5.504  26.060  0.00  0.00    +0.257 A 
ATOM      4  O4    T A   1       5.902  -6.478  26.594  0.00  0.00    -0.267 OA
ATOM      5  N3    T A   1       7.187  -4.619  26.760  0.00  0.00    -0.275 N 
ATOM      6  H3    T A   1       7.321  -4.805  27.741  0.00  0.00    +0.173 HD
ATOM      7  C2    T A   1       7.865  -3.552  26.239  0.00  0.00    +0.331 A 
ATOM      8  O2    T A   1       8.609  -2.881  26.953  0.00  0.00    -0.246 OA
ATOM      9  N1    T A   1       7.664  -3.310  24.887  0.00  0.00    -0.274 N 
ATOM     10  C6    T A   1       6.891  -4.151  24.109  0.00  0.00    +0.101 A 
ENDROOT
BRANCH   9  11
ATOM     11  C1*   T A   1       8.374  -2.174  24.315  0.00  0.00    +0.226 C 
ATOM     12  O4*   T A   1       7.580  -1.505  23.315  0.00  0.00    -0.348 OA
ATOM     13  C4*   T A   1       8.487  -0.978  22.317  0.00  0.00    +0.175 C 
ATOM     14  C3*   T A   1       9.906  -1.338  22.766  0.00  0.00    +0.150 C 
ATOM     15  C2*   T A   1       9.675  -2.555  23.629  0.00  0.00    +0.088 C 
BRANCH  14  16
ATOM     16  O3*   T A   1      10.777  -1.608  21.679  0.00  0.00    -0.389 OA
ATOM     17  H3*   T A   1      11.194  -2.476  21.810  0.00  0.00    +0.210 HD
ENDBRANCH  14  16
BRANCH  13  18
ATOM     18  C5*   T A   1       8.262   0.528  22.183  0.00  0.00    +0.190 C 
BRANCH  18  19
ATOM     19  O5*   T A   1       9.239   1.111  21.321  0.00  0.00    -0.392 OA
ATOM     20  H5*   T A   1      10.083   1.085  21.808  0.00  0.00    +0.210 HD
ENDBRANCH  18  19
ENDBRANCH  13  18
ENDBRANCH   9  11
TORSDOF 4
ENDMDL
MODEL 9
REMARK VINA RESULT:      -5.5      3.482      4.225
REMARK  Name = 
REMARK  5 active torsions:
REMARK  status: ('A' for Active; 'I' for Inactive)
REMARK    1  A    between atoms: C5M_1  and  C5_2
REMARK    2  A    between atoms: N1_4  and  C1*_10
REMARK    3  A    between atoms: C3*_12  and  O3*_19
REMARK    4  A    between atoms: C4*_14  and  C5*_17
REMARK    5  A    between atoms: C5*_17  and  O5*_18
REMARK                            x       y       z     vdW  Elec       q    Type
REMARK                         _______ _______ _______ _____ _____    ______ ____
ROOT
ATOM      1  C5M   T A   1       9.549  -5.646  25.285  0.00  0.00    +0.051 C 
ATOM      2  C5    T A   1       8.756  -4.415  25.580  0.00  0.00    +0.030 A 
ATOM      3  C4    T A   1       7.704  -4.520  26.617  0.00  0.00    +0.257 A 
ATOM      4  O4    T A   1       7.493  -5.564  27.226  0.00  0.00    -0.267 OA
ATOM      5  N3    T A   1       6.994  -3.383  26.865  0.00  0.00    -0.275 N 
ATOM      6  H3    T A   1       6.291  -3.430  27.584  0.00  0.00    +0.173 HD
ATOM      7  C2    T A   1       7.207  -2.160  26.293  0.00  0.00    +0.331 A 
ATOM      8  O2    T A   1       6.569  -1.178  26.671  0.00  0.00    -0.246 OA
ATOM      9  N1    T A   1       8.178  -2.117  25.301  0.00  0.00    -0.274 N 
ATOM     10  C6    T A   1       8.932  -3.229  24.980  0.00  0.00    +0.101 A 
ENDROOT
BRANCH   9  11
ATOM     11  C1*   T A   1       8.415  -0.823  24.677  0.00  0.00    +0.226 C 
ATOM     12  O4*   T A   1       8.699  -0.960  23.270  0.00  0.00    -0.348 OA
ATOM     13  C4*   T A   1       9.620   0.095  22.904  0.00  0.00    +0.175 C 
ATOM     14  C3*   T A   1       9.879   0.922  24.167  0.00  0.00    +0.150 C 
ATOM     15  C2*   T A   1       9.595  -0.070  25.268  0.00  0.00    +0.088 C 
BRANCH  14  16
ATOM     16  O3*   T A   1      11.202   1.432  24.231  0.00  0.00    -0.389 OA
ATOM     17  H3*   T A   1      11.667   1.220  23.404  0.00  0.00    +0.210 HD
ENDBRANCH  14  16
BRANCH  13  18
ATOM     18  C5*   T A   1       9.015   0.913  21.763  0.00  0.00    +0.190 C 
BRANCH  18  19
ATOM     19  O5*   T A   1       9.829   2.048  21.468  0.00  0.00    -0.392 OA
ATOM     20  H5*   T A   1      10.398   2.186  22.246  0.00  0.00    +0.210 HD
ENDBRANCH  18  19
ENDBRANCH  13  18
ENDBRANCH   9  11
TORSDOF 4
ENDMDL
