MODEL 1
REMARK VINA RESULT:      -6.6      0.000      0.000
REMARK  Name = 
REMARK  5 active torsions:
REMARK  status: ('A' for Active; 'I' for Inactive)
REMARK    1  A    between atoms: C_3  and  N_4
REMARK    2  A    between atoms: N_4  and  C_5
REMARK    3  A    between atoms: N_12  and  C_15
REMARK    4  A    between atoms: C_18  and  C_22
REMARK    5  A    between atoms: C_22  and  O_23
REMARK                            x       y       z     vdW  Elec       q    Type
REMARK                         _______ _______ _______ _____ _____    ______ ____
ROOT
ATOM      1  C   UNL     1       9.225   1.699  22.496  0.00  0.00    +0.152 A 
ATOM      2  N   UNL     1       7.958   2.199  22.488  0.00  0.00    -0.198 NA
ATOM      3  C   UNL     1       6.916   1.386  22.714  0.00  0.00    +0.216 A 
ATOM      4  N   UNL     1       5.666   1.974  22.692  0.00  0.00    -0.327 N 
ATOM      5  H   UNL     1       5.713   2.829  22.155  0.00  0.00    +0.145 HD
ATOM      6  H   UNL     1       4.965   1.297  22.429  0.00  0.00    +0.145 HD
ATOM      7  N   UNL     1       6.961   0.063  22.926  0.00  0.00    -0.195 NA
ATOM      8  C   UNL     1       8.219  -0.400  22.940  0.00  0.00    +0.168 A 
ATOM      9  N   UNL     1       8.638  -1.682  23.176  0.00  0.00    -0.308 N 
ATOM     10  C   UNL     1      10.008  -1.684  23.108  0.00  0.00    +0.202 A 
ATOM     11  N   UNL     1      10.492  -0.489  22.840  0.00  0.00    -0.231 NA
ATOM     12  C   UNL     1       9.379   0.323  22.736  0.00  0.00    +0.148 A 
ENDROOT
BRANCH   9  13
ATOM     13  C   UNL     1       7.766  -2.802  23.463  0.00  0.00    +0.113 C 
ATOM     14  C   UNL     1       8.416  -3.897  24.257  0.00  0.00    -0.006 C 
ATOM     15  C   UNL     1       8.029  -5.104  23.827  0.00  0.00    -0.023 C 
ATOM     16  C   UNL     1       7.073  -5.008  22.667  0.00  0.00    +0.039 C 
ATOM     17  C   UNL     1       7.277  -3.553  22.214  0.00  0.00    +0.039 C 
BRANCH  16  18
ATOM     18  C   UNL     1       5.620  -5.285  23.071  0.00  0.00    +0.163 C 
BRANCH  18  19
ATOM     19  O   UNL     1       4.727  -4.428  22.371  0.00  0.00    -0.394 OA
ATOM     20  H   UNL     1       5.030  -3.515  22.517  0.00  0.00    +0.209 HD
ENDBRANCH  18  19
ENDBRANCH  16  18
ENDBRANCH   9  13
BRANCH   1  21
ATOM     21  N   UNL     1      10.336   2.543  22.288  0.00  0.00    -0.324 N 
ATOM     22  H   UNL     1      10.975   2.102  21.630  0.00  0.00    +0.148 HD
BRANCH  21  24
ATOM     23  C   UNL     1      10.506   4.649  23.777  0.00  0.00    +0.024 C 
ATOM     24  C   UNL     1      10.887   3.235  23.451  0.00  0.00    +0.072 C 
ATOM     25  C   UNL     1      11.884   4.344  23.263  0.00  0.00    +0.024 C 
ENDBRANCH  21  24
ENDBRANCH   1  21
TORSDOF 5
ENDMDL
MODEL 2
REMARK VINA RESULT:      -6.5      2.712      4.933
REMARK  Name = 
REMARK  5 active torsions:
REMARK  status: ('A' for Active; 'I' for Inactive)
REMARK    1  A    between atoms: C_3  and  N_4
REMARK    2  A    between atoms: N_4  and  C_5
REMARK    3  A    between atoms: N_12  and  C_15
REMARK    4  A    between atoms: C_18  and  C_22
REMARK    5  A    between atoms: C_22  and  O_23
REMARK                            x       y       z     vdW  Elec       q    Type
REMARK                         _______ _______ _______ _____ _____    ______ ____
ROOT
ATOM      1  C   UNL     1       9.274  -2.689  23.880  0.00  0.00    +0.152 A 
ATOM      2  N   UNL     1       9.982  -3.645  24.544  0.00  0.00    -0.198 NA
ATOM      3  C   UNL     1       9.393  -4.804  24.876  0.00  0.00    +0.216 A 
ATOM      4  N   UNL     1      10.181  -5.720  25.545  0.00  0.00    -0.327 N 
ATOM      5  H   UNL     1      10.947  -5.234  25.991  0.00  0.00    +0.145 HD
ATOM      6  H   UNL     1       9.610  -6.318  26.123  0.00  0.00    +0.145 HD
ATOM      7  N   UNL     1       8.116  -5.147  24.656  0.00  0.00    -0.195 NA
ATOM      8  C   UNL     1       7.447  -4.193  23.992  0.00  0.00    +0.168 A 
ATOM      9  N   UNL     1       6.149  -4.226  23.559  0.00  0.00    -0.308 N 
ATOM     10  C   UNL     1       5.902  -3.042  22.913  0.00  0.00    +0.202 A 
ATOM     11  N   UNL     1       6.956  -2.252  22.909  0.00  0.00    -0.231 NA
ATOM     12  C   UNL     1       7.931  -2.966  23.579  0.00  0.00    +0.148 A 
ENDROOT
BRANCH   9  13
ATOM     13  C   UNL     1       5.238  -5.336  23.749  0.00  0.00    +0.113 C 
ATOM     14  C   UNL     1       4.022  -5.287  22.869  0.00  0.00    -0.006 C 
ATOM     15  C   UNL     1       2.929  -5.688  23.530  0.00  0.00    -0.023 C 
ATOM     16  C   UNL     1       3.236  -6.052  24.959  0.00  0.00    +0.039 C 
ATOM     17  C   UNL     1       4.619  -5.408  25.154  0.00  0.00    +0.039 C 
BRANCH  16  18
ATOM     18  C   UNL     1       3.271  -7.567  25.192  0.00  0.00    +0.163 C 
BRANCH  18  19
ATOM     19  O   UNL     1       2.877  -8.270  24.020  0.00  0.00    -0.394 OA
ATOM     20  H   UNL     1       3.279  -7.813  23.260  0.00  0.00    +0.209 HD
ENDBRANCH  18  19
ENDBRANCH  16  18
ENDBRANCH   9  13
BRANCH   1  21
ATOM     21  N   UNL     1       9.884  -1.476  23.497  0.00  0.00    -0.324 N 
ATOM     22  H   UNL     1      10.666  -1.674  22.877  0.00  0.00    +0.148 HD
BRANCH  21  24
ATOM     23  C   UNL     1       9.471   0.935  24.333  0.00  0.00    +0.024 C 
ATOM     24  C   UNL     1      10.037  -0.443  24.518  0.00  0.00    +0.072 C 
ATOM     25  C   UNL     1      10.957   0.722  24.278  0.00  0.00    +0.024 C 
ENDBRANCH  21  24
ENDBRANCH   1  21
TORSDOF 5
ENDMDL
MODEL 3
REMARK VINA RESULT:      -6.3      3.850      7.849
REMARK  Name = 
REMARK  5 active torsions:
REMARK  status: ('A' for Active; 'I' for Inactive)
REMARK    1  A    between atoms: C_3  and  N_4
REMARK    2  A    between atoms: N_4  and  C_5
REMARK    3  A    between atoms: N_12  and  C_15
REMARK    4  A    between atoms: C_18  and  C_22
REMARK    5  A    between atoms: C_22  and  O_23
REMARK                            x       y       z     vdW  Elec       q    Type
REMARK                         _______ _______ _______ _____ _____    ______ ____
ROOT
ATOM      1  C   UNL     1       6.982  -4.628  27.002  0.00  0.00    +0.152 A 
ATOM      2  N   UNL     1       7.996  -5.470  26.659  0.00  0.00    -0.198 NA
ATOM      3  C   UNL     1       8.974  -5.042  25.846  0.00  0.00    +0.216 A 
ATOM      4  N   UNL     1       9.966  -5.957  25.550  0.00  0.00    -0.327 N 
ATOM      5  H   UNL     1       9.606  -6.891  25.692  0.00  0.00    +0.145 HD
ATOM      6  H   UNL     1      10.378  -5.749  24.654  0.00  0.00    +0.145 HD
ATOM      7  N   UNL     1       9.069  -3.836  25.271  0.00  0.00    -0.195 NA
ATOM      8  C   UNL     1       8.065  -3.025  25.634  0.00  0.00    +0.168 A 
ATOM      9  N   UNL     1       7.873  -1.717  25.280  0.00  0.00    -0.308 N 
ATOM     10  C   UNL     1       6.728  -1.288  25.902  0.00  0.00    +0.202 A 
ATOM     11  N   UNL     1       6.174  -2.237  26.627  0.00  0.00    -0.231 NA
ATOM     12  C   UNL     1       7.005  -3.329  26.469  0.00  0.00    +0.148 A 
ENDROOT
BRANCH   9  13
ATOM     13  C   UNL     1       8.751  -0.952  24.420  0.00  0.00    +0.113 C 
ATOM     14  C   UNL     1       9.790  -0.157  25.156  0.00  0.00    -0.006 C 
ATOM     15  C   UNL     1       9.974   1.043  24.591  0.00  0.00    -0.023 C 
ATOM     16  C   UNL     1       9.076   1.247  23.399  0.00  0.00    +0.039 C 
ATOM     17  C   UNL     1       8.036   0.133  23.597  0.00  0.00    +0.039 C 
BRANCH  16  18
ATOM     18  C   UNL     1       9.820   1.108  22.065  0.00  0.00    +0.163 C 
BRANCH  18  19
ATOM     19  O   UNL     1      10.231   2.379  21.578  0.00  0.00    -0.394 OA
ATOM     20  H   UNL     1       9.717   3.052  22.058  0.00  0.00    +0.209 HD
ENDBRANCH  18  19
ENDBRANCH  16  18
ENDBRANCH   9  13
BRANCH   1  21
ATOM     21  N   UNL     1       5.959  -5.050  27.878  0.00  0.00    -0.324 N 
ATOM     22  H   UNL     1       6.217  -4.812  28.834  0.00  0.00    +0.148 HD
BRANCH  21  24
ATOM     23  C   UNL     1       4.728  -6.667  26.281  0.00  0.00    +0.024 C 
ATOM     24  C   UNL     1       5.334  -6.343  27.616  0.00  0.00    +0.072 C 
ATOM     25  C   UNL     1       3.841  -6.441  27.472  0.00  0.00    +0.024 C 
ENDBRANCH  21  24
ENDBRANCH   1  21
TORSDOF 5
ENDMDL
MODEL 4
REMARK VINA RESULT:      -6.2      3.074      7.535
REMARK  Name = 
REMARK  5 active torsions:
REMARK  status: ('A' for Active; 'I' for Inactive)
REMARK    1  A    between atoms: C_3  and  N_4
REMARK    2  A    between atoms: N_4  and  C_5
REMARK    3  A    between atoms: N_12  and  C_15
REMARK    4  A    between atoms: C_18  and  C_22
REMARK    5  A    between atoms: C_22  and  O_23
REMARK                            x       y       z     vdW  Elec       q    Type
REMARK                         _______ _______ _______ _____ _____    ______ ____
ROOT
ATOM      1  C   UNL     1       7.028  -4.978  23.971  0.00  0.00    +0.152 A 
ATOM      2  N   UNL     1       8.127  -5.445  24.627  0.00  0.00    -0.198 NA
ATOM      3  C   UNL     1       9.153  -4.620  24.884  0.00  0.00    +0.216 A 
ATOM      4  N   UNL     1      10.226  -5.171  25.556  0.00  0.00    -0.327 N 
ATOM      5  H   UNL     1      10.222  -6.173  25.420  0.00  0.00    +0.145 HD
ATOM      6  H   UNL     1      11.074  -4.674  25.328  0.00  0.00    +0.145 HD
ATOM      7  N   UNL     1       9.254  -3.331  24.530  0.00  0.00    -0.195 NA
ATOM      8  C   UNL     1       8.156  -2.896  23.896  0.00  0.00    +0.168 A 
ATOM      9  N   UNL     1       7.896  -1.632  23.441  0.00  0.00    -0.308 N 
ATOM     10  C   UNL     1       6.645  -1.649  22.877  0.00  0.00    +0.202 A 
ATOM     11  N   UNL     1       6.091  -2.842  22.939  0.00  0.00    -0.231 NA
ATOM     12  C   UNL     1       7.028  -3.630  23.579  0.00  0.00    +0.148 A 
ENDROOT
BRANCH   9  13
ATOM     13  C   UNL     1       8.793  -0.502  23.567  0.00  0.00    +0.113 C 
ATOM     14  C   UNL     1       8.902   0.040  24.962  0.00  0.00    -0.006 C 
ATOM     15  C   UNL     1       8.964   1.378  24.959  0.00  0.00    -0.023 C 
ATOM     16  C   UNL     1       8.889   1.942  23.565  0.00  0.00    +0.039 C 
ATOM     17  C   UNL     1       8.357   0.738  22.769  0.00  0.00    +0.039 C 
BRANCH  16  18
ATOM     18  C   UNL     1      10.250   2.419  23.043  0.00  0.00    +0.163 C 
BRANCH  18  19
ATOM     19  O   UNL     1      10.302   2.346  21.623  0.00  0.00    -0.394 OA
ATOM     20  H   UNL     1      11.027   1.738  21.392  0.00  0.00    +0.209 HD
ENDBRANCH  18  19
ENDBRANCH  16  18
ENDBRANCH   9  13
BRANCH   1  21
ATOM     21  N   UNL     1       5.927  -5.823  23.716  0.00  0.00    -0.324 N 
ATOM     22  H   UNL     1       5.696  -5.785  22.726  0.00  0.00    +0.148 HD
BRANCH  21  24
ATOM     23  C   UNL     1       4.949  -6.609  25.976  0.00  0.00    +0.024 C 
ATOM     24  C   UNL     1       4.842  -5.835  24.694  0.00  0.00    +0.072 C 
ATOM     25  C   UNL     1       4.021  -7.079  24.892  0.00  0.00    +0.024 C 
ENDBRANCH  21  24
ENDBRANCH   1  21
TORSDOF 5
ENDMDL
MODEL 5
REMARK VINA RESULT:      -6.2      3.433      7.345
REMARK  Name = 
REMARK  5 active torsions:
REMARK  status: ('A' for Active; 'I' for Inactive)
REMARK    1  A    between atoms: C_3  and  N_4
REMARK    2  A    between atoms: N_4  and  C_5
REMARK    3  A    between atoms: N_12  and  C_15
REMARK    4  A    between atoms: C_18  and  C_22
REMARK    5  A    between atoms: C_22  and  O_23
REMARK                            x       y       z     vdW  Elec       q    Type
REMARK                         _______ _______ _______ _____ _____    ______ ____
ROOT
ATOM      1  C   UNL     1       7.427  -4.832  25.333  0.00  0.00    +0.152 A 
ATOM      2  N   UNL     1       7.181  -5.242  24.057  0.00  0.00    -0.198 NA
ATOM      3  C   UNL     1       7.426  -4.415  23.029  0.00  0.00    +0.216 A 
ATOM      4  N   UNL     1       7.152  -4.909  21.769  0.00  0.00    -0.327 N 
ATOM      5  H   UNL     1       6.479  -5.660  21.848  0.00  0.00    +0.145 HD
ATOM      6  H   UNL     1       6.934  -4.154  21.137  0.00  0.00    +0.145 HD
ATOM      7  N   UNL     1       7.876  -3.155  23.103  0.00  0.00    -0.195 NA
ATOM      8  C   UNL     1       8.121  -2.782  24.368  0.00  0.00    +0.168 A 
ATOM      9  N   UNL     1       8.631  -1.590  24.806  0.00  0.00    -0.308 N 
ATOM     10  C   UNL     1       8.726  -1.663  26.173  0.00  0.00    +0.202 A 
ATOM     11  N   UNL     1       8.305  -2.822  26.636  0.00  0.00    -0.231 NA
ATOM     12  C   UNL     1       7.927  -3.532  25.513  0.00  0.00    +0.148 A 
ENDROOT
BRANCH   9  13
ATOM     13  C   UNL     1       9.011  -0.484  23.952  0.00  0.00    +0.113 C 
ATOM     14  C   UNL     1      10.445  -0.065  24.094  0.00  0.00    -0.006 C 
ATOM     15  C   UNL     1      10.570   1.267  24.041  0.00  0.00    -0.023 C 
ATOM     16  C   UNL     1       9.238   1.950  23.873  0.00  0.00    +0.039 C 
ATOM     17  C   UNL     1       8.260   0.825  24.249  0.00  0.00    +0.039 C 
BRANCH  16  18
ATOM     18  C   UNL     1       9.006   2.458  22.445  0.00  0.00    +0.163 C 
BRANCH  18  19
ATOM     19  O   UNL     1      10.157   2.242  21.637  0.00  0.00    -0.394 OA
ATOM     20  H   UNL     1      10.504   1.361  21.860  0.00  0.00    +0.209 HD
ENDBRANCH  18  19
ENDBRANCH  16  18
ENDBRANCH   9  13
BRANCH   1  21
ATOM     21  N   UNL     1       7.203  -5.696  26.424  0.00  0.00    -0.324 N 
ATOM     22  H   UNL     1       7.524  -6.632  26.184  0.00  0.00    +0.148 HD
BRANCH  21  24
ATOM     23  C   UNL     1       5.808  -6.025  28.576  0.00  0.00    +0.024 C 
ATOM     24  C   UNL     1       5.950  -5.548  27.160  0.00  0.00    +0.072 C 
ATOM     25  C   UNL     1       5.109  -6.756  27.466  0.00  0.00    +0.024 C 
ENDBRANCH  21  24
ENDBRANCH   1  21
TORSDOF 5
ENDMDL
MODEL 6
REMARK VINA RESULT:      -6.2      1.804      2.139
REMARK  Name = 
REMARK  5 active torsions:
REMARK  status: ('A' for Active; 'I' for Inactive)
REMARK    1  A    between atoms: C_3  and  N_4
REMARK    2  A    between atoms: N_4  and  C_5
REMARK    3  A    between atoms: N_12  and  C_15
REMARK    4  A    between atoms: C_18  and  C_22
REMARK    5  A    between atoms: C_22  and  O_23
REMARK                            x       y       z     vdW  Elec       q    Type
REMARK                         _______ _______ _______ _____ _____    ______ ____
ROOT
ATOM      1  C   UNL     1       9.144   2.761  23.179  0.00  0.00    +0.152 A 
ATOM      2  N   UNL     1       7.833   2.890  22.834  0.00  0.00    -0.198 NA
ATOM      3  C   UNL     1       6.997   1.851  22.980  0.00  0.00    +0.216 A 
ATOM      4  N   UNL     1       5.684   2.066  22.610  0.00  0.00    -0.327 N 
ATOM      5  H   UNL     1       5.647   2.837  21.958  0.00  0.00    +0.145 HD
ATOM      6  H   UNL     1       5.252   1.199  22.329  0.00  0.00    +0.145 HD
ATOM      7  N   UNL     1       7.312   0.623  23.416  0.00  0.00    -0.195 NA
ATOM      8  C   UNL     1       8.604   0.528  23.759  0.00  0.00    +0.168 A 
ATOM      9  N   UNL     1       9.254  -0.555  24.287  0.00  0.00    -0.308 N 
ATOM     10  C   UNL     1      10.559  -0.188  24.496  0.00  0.00    +0.202 A 
ATOM     11  N   UNL     1      10.786   1.057  24.132  0.00  0.00    -0.231 NA
ATOM     12  C   UNL     1       9.567   1.516  23.673  0.00  0.00    +0.148 A 
ENDROOT
BRANCH   9  13
ATOM     13  C   UNL     1       8.638  -1.834  24.577  0.00  0.00    +0.113 C 
ATOM     14  C   UNL     1       8.407  -2.084  26.039  0.00  0.00    -0.006 C 
ATOM     15  C   UNL     1       8.661  -3.359  26.360  0.00  0.00    -0.023 C 
ATOM     16  C   UNL     1       9.119  -4.158  25.168  0.00  0.00    +0.039 C 
ATOM     17  C   UNL     1       9.490  -3.048  24.171  0.00  0.00    +0.039 C 
BRANCH  16  18
ATOM     18  C   UNL     1       8.026  -5.082  24.617  0.00  0.00    +0.163 C 
BRANCH  18  19
ATOM     19  O   UNL     1       8.318  -5.473  23.282  0.00  0.00    -0.394 OA
ATOM     20  H   UNL     1       8.688  -4.697  22.828  0.00  0.00    +0.209 HD
ENDBRANCH  18  19
ENDBRANCH  16  18
ENDBRANCH   9  13
BRANCH   1  21
ATOM     21  N   UNL     1      10.032   3.850  23.059  0.00  0.00    -0.324 N 
ATOM     22  H   UNL     1      10.969   3.500  22.869  0.00  0.00    +0.148 HD
BRANCH  21  24
ATOM     23  C   UNL     1       9.593   6.356  23.512  0.00  0.00    +0.024 C 
ATOM     24  C   UNL     1       9.870   4.962  23.993  0.00  0.00    +0.072 C 
ATOM     25  C   UNL     1      10.935   6.018  24.097  0.00  0.00    +0.024 C 
ENDBRANCH  21  24
ENDBRANCH   1  21
TORSDOF 5
ENDMDL
MODEL 7
REMARK VINA RESULT:      -6.1      2.205      2.657
REMARK  Name = 
REMARK  5 active torsions:
REMARK  status: ('A' for Active; 'I' for Inactive)
REMARK    1  A    between atoms: C_3  and  N_4
REMARK    2  A    between atoms: N_4  and  C_5
REMARK    3  A    between atoms: N_12  and  C_15
REMARK    4  A    between atoms: C_18  and  C_22
REMARK    5  A    between atoms: C_22  and  O_23
REMARK                            x       y       z     vdW  Elec       q    Type
REMARK                         _______ _______ _______ _____ _____    ______ ____
ROOT
ATOM      1  C   UNL     1       9.173   2.608  23.691  0.00  0.00    +0.152 A 
ATOM      2  N   UNL     1       8.592   2.595  24.923  0.00  0.00    -0.198 NA
ATOM      3  C   UNL     1       8.185   1.434  25.458  0.00  0.00    +0.216 A 
ATOM      4  N   UNL     1       7.609   1.508  26.712  0.00  0.00    -0.327 N 
ATOM      5  H   UNL     1       7.260   2.445  26.860  0.00  0.00    +0.145 HD
ATOM      6  H   UNL     1       6.964   0.745  26.846  0.00  0.00    +0.145 HD
ATOM      7  N   UNL     1       8.250   0.222  24.890  0.00  0.00    -0.195 NA
ATOM      8  C   UNL     1       8.835   0.263  23.684  0.00  0.00    +0.168 A 
ATOM      9  N   UNL     1       9.110  -0.786  22.850  0.00  0.00    -0.308 N 
ATOM     10  C   UNL     1       9.730  -0.274  21.738  0.00  0.00    +0.202 A 
ATOM     11  N   UNL     1       9.864   1.034  21.806  0.00  0.00    -0.231 NA
ATOM     12  C   UNL     1       9.310   1.380  23.023  0.00  0.00    +0.148 A 
ENDROOT
BRANCH   9  13
ATOM     13  C   UNL     1       8.807  -2.174  23.131  0.00  0.00    +0.113 C 
ATOM     14  C   UNL     1       7.339  -2.482  23.183  0.00  0.00    -0.006 C 
ATOM     15  C   UNL     1       7.059  -3.350  24.163  0.00  0.00    -0.023 C 
ATOM     16  C   UNL     1       8.292  -3.747  24.932  0.00  0.00    +0.039 C 
ATOM     17  C   UNL     1       9.288  -2.654  24.511  0.00  0.00    +0.039 C 
BRANCH  16  18
ATOM     18  C   UNL     1       8.792  -5.151  24.569  0.00  0.00    +0.163 C 
BRANCH  18  19
ATOM     19  O   UNL     1      10.159  -5.310  24.927  0.00  0.00    -0.394 OA
ATOM     20  H   UNL     1      10.324  -6.264  25.020  0.00  0.00    +0.209 HD
ENDBRANCH  18  19
ENDBRANCH  16  18
ENDBRANCH   9  13
BRANCH   1  21
ATOM     21  N   UNL     1       9.633   3.815  23.123  0.00  0.00    -0.324 N 
ATOM     22  H   UNL     1      10.407   3.616  22.492  0.00  0.00    +0.148 HD
BRANCH  21  24
ATOM     23  C   UNL     1       9.447   6.368  23.480  0.00  0.00    +0.024 C 
ATOM     24  C   UNL     1       9.717   4.984  23.994  0.00  0.00    +0.072 C 
ATOM     25  C   UNL     1      10.848   5.961  23.836  0.00  0.00    +0.024 C 
ENDBRANCH  21  24
ENDBRANCH   1  21
TORSDOF 5
ENDMDL
MODEL 8
REMARK VINA RESULT:      -6.1      2.029      2.691
REMARK  Name = 
REMARK  5 active torsions:
REMARK  status: ('A' for Active; 'I' for Inactive)
REMARK    1  A    between atoms: C_3  and  N_4
REMARK    2  A    between atoms: N_4  and  C_5
REMARK    3  A    between atoms: N_12  and  C_15
REMARK    4  A    between atoms: C_18  and  C_22
REMARK    5  A    between atoms: C_22  and  O_23
REMARK                            x       y       z     vdW  Elec       q    Type
REMARK                         _______ _______ _______ _____ _____    ______ ____
ROOT
ATOM      1  C   UNL     1       9.602   0.057  23.937  0.00  0.00    +0.152 A 
ATOM      2  N   UNL     1       9.511   0.085  25.296  0.00  0.00    -0.198 NA
ATOM      3  C   UNL     1       8.866  -0.898  25.943  0.00  0.00    +0.216 A 
ATOM      4  N   UNL     1       8.821  -0.796  27.320  0.00  0.00    -0.327 N 
ATOM      5  H   UNL     1       8.958   0.170  27.584  0.00  0.00    +0.145 HD
ATOM      6  H   UNL     1       8.004  -1.265  27.679  0.00  0.00    +0.145 HD
ATOM      7  N   UNL     1       8.236  -1.944  25.390  0.00  0.00    -0.195 NA
ATOM      8  C   UNL     1       8.352  -1.951  24.054  0.00  0.00    +0.168 A 
ATOM      9  N   UNL     1       7.880  -2.890  23.178  0.00  0.00    -0.308 N 
ATOM     10  C   UNL     1       8.249  -2.495  21.917  0.00  0.00    +0.202 A 
ATOM     11  N   UNL     1       8.922  -1.363  21.931  0.00  0.00    -0.231 NA
ATOM     12  C   UNL     1       8.995  -1.016  23.266  0.00  0.00    +0.148 A 
ENDROOT
BRANCH   9  13
ATOM     13  C   UNL     1       7.146  -4.082  23.551  0.00  0.00    +0.113 C 
ATOM     14  C   UNL     1       7.417  -5.268  22.672  0.00  0.00    -0.006 C 
ATOM     15  C   UNL     1       6.298  -5.966  22.440  0.00  0.00    -0.023 C 
ATOM     16  C   UNL     1       5.100  -5.349  23.113  0.00  0.00    +0.039 C 
ATOM     17  C   UNL     1       5.619  -3.939  23.442  0.00  0.00    +0.039 C 
BRANCH  16  18
ATOM     18  C   UNL     1       4.668  -6.110  24.372  0.00  0.00    +0.163 C 
BRANCH  18  19
ATOM     19  O   UNL     1       4.477  -7.490  24.090  0.00  0.00    -0.394 OA
ATOM     20  H   UNL     1       5.239  -7.785  23.562  0.00  0.00    +0.209 HD
ENDBRANCH  18  19
ENDBRANCH  16  18
ENDBRANCH   9  13
BRANCH   1  21
ATOM     21  N   UNL     1      10.301   1.066  23.241  0.00  0.00    -0.324 N 
ATOM     22  H   UNL     1      11.060   0.644  22.709  0.00  0.00    +0.148 HD
BRANCH  21  24
ATOM     23  C   UNL     1       9.665   3.524  23.724  0.00  0.00    +0.024 C 
ATOM     24  C   UNL     1      10.544   2.326  23.938  0.00  0.00    +0.072 C 
ATOM     25  C   UNL     1      11.065   3.516  23.181  0.00  0.00    +0.024 C 
ENDBRANCH  21  24
ENDBRANCH   1  21
TORSDOF 5
ENDMDL
MODEL 9
REMARK VINA RESULT:      -6.0      2.197      2.736
REMARK  Name = 
REMARK  5 active torsions:
REMARK  status: ('A' for Active; 'I' for Inactive)
REMARK    1  A    between atoms: C_3  and  N_4
REMARK    2  A    between atoms: N_4  and  C_5
REMARK    3  A    between atoms: N_12  and  C_15
REMARK    4  A    between atoms: C_18  and  C_22
REMARK    5  A    between atoms: C_22  and  O_23
REMARK                            x       y       z     vdW  Elec       q    Type
REMARK                         _______ _______ _______ _____ _____    ______ ____
ROOT
ATOM      1  C   UNL     1       8.892   0.087  25.172  0.00  0.00    +0.152 A 
ATOM      2  N   UNL     1       8.015   0.259  26.199  0.00  0.00    -0.198 NA
ATOM      3  C   UNL     1       7.056  -0.654  26.420  0.00  0.00    +0.216 A 
ATOM      4  N   UNL     1       6.210  -0.407  27.483  0.00  0.00    -0.327 N 
ATOM      5  H   UNL     1       6.219   0.583  27.688  0.00  0.00    +0.145 HD
ATOM      6  H   UNL     1       5.314  -0.842  27.326  0.00  0.00    +0.145 HD
ATOM      7  N   UNL     1       6.819  -1.758  25.698  0.00  0.00    -0.195 NA
ATOM      8  C   UNL     1       7.703  -1.907  24.702  0.00  0.00    +0.168 A 
ATOM      9  N   UNL     1       7.790  -2.938  23.805  0.00  0.00    -0.308 N 
ATOM     10  C   UNL     1       8.857  -2.676  22.983  0.00  0.00    +0.202 A 
ATOM     11  N   UNL     1       9.454  -1.544  23.293  0.00  0.00    -0.231 NA
ATOM     12  C   UNL     1       8.741  -1.056  24.371  0.00  0.00    +0.148 A 
ENDROOT
BRANCH   9  13
ATOM     13  C   UNL     1       6.912  -4.089  23.774  0.00  0.00    +0.113 C 
ATOM     14  C   UNL     1       7.535  -5.319  23.182  0.00  0.00    -0.006 C 
ATOM     15  C   UNL     1       6.659  -5.991  22.424  0.00  0.00    -0.023 C 
ATOM     16  C   UNL     1       5.318  -5.307  22.375  0.00  0.00    +0.039 C 
ATOM     17  C   UNL     1       5.664  -3.902  22.895  0.00  0.00    +0.039 C 
BRANCH  16  18
ATOM     18  C   UNL     1       4.266  -6.000  23.249  0.00  0.00    +0.163 C 
BRANCH  18  19
ATOM     19  O   UNL     1       4.726  -7.274  23.682  0.00  0.00    -0.394 OA
ATOM     20  H   UNL     1       5.653  -7.358  23.400  0.00  0.00    +0.209 HD
ENDBRANCH  18  19
ENDBRANCH  16  18
ENDBRANCH   9  13
BRANCH   1  21
ATOM     21  N   UNL     1       9.924   1.021  24.941  0.00  0.00    -0.324 N 
ATOM     22  H   UNL     1      10.403   1.217  25.819  0.00  0.00    +0.148 HD
BRANCH  21  24
ATOM     23  C   UNL     1      10.021   2.058  22.576  0.00  0.00    +0.024 C 
ATOM     24  C   UNL     1       9.646   2.126  24.027  0.00  0.00    +0.072 C 
ATOM     25  C   UNL     1      10.774   2.970  23.502  0.00  0.00    +0.024 C 
ENDBRANCH  21  24
ENDBRANCH   1  21
TORSDOF 5
ENDMDL
