MODEL 1
REMARK VINA RESULT:      -6.0      0.000      0.000
REMARK  Name = 
REMARK  5 active torsions:
REMARK  status: ('A' for Active; 'I' for Inactive)
REMARK    1  A    between atoms: C3*_2  and  O3*_22
REMARK    2  A    between atoms: C4*_4  and  C5*_20
REMARK    3  A    between atoms: C1*_7  and  N_9
REMARK    4  A    between atoms: C_11  and  C_17
REMARK    5  A    between atoms: C5*_20  and  O5*_21
REMARK                            x       y       z     vdW  Elec       q    Type
REMARK                         _______ _______ _______ _____ _____    ______ ____
ROOT
ATOM      1  N   UNL     1       8.014  -3.298  24.471  0.00  0.00    -0.273 N 
ATOM      2  C   UNL     1       8.313  -2.739  25.707  0.00  0.00    +0.331 A 
ATOM      3  O   UNL     1       7.953  -3.211  26.783  0.00  0.00    -0.246 OA
ATOM      4  N   UNL     1       9.050  -1.589  25.676  0.00  0.00    -0.274 N 
ATOM      5  H   UNL     1       9.254  -1.157  26.563  0.00  0.00    +0.173 HD
ATOM      6  C   UNL     1       9.612  -1.024  24.569  0.00  0.00    +0.261 A 
ATOM      7  O   UNL     1      10.302  -0.011  24.653  0.00  0.00    -0.267 OA
ATOM      8  C   UNL     1       9.341  -1.698  23.262  0.00  0.00    +0.056 A 
ATOM      9  C   UNL     1       8.529  -2.767  23.299  0.00  0.00    +0.106 A 
ENDROOT
BRANCH   1  11
ATOM     10  C2* UNL     1       5.725  -4.335  24.484  0.00  0.00    +0.088 C 
ATOM     11  C1* UNL     1       7.242  -4.546  24.489  0.00  0.00    +0.226 C 
ATOM     12  O4* UNL     1       7.548  -5.364  23.334  0.00  0.00    -0.348 OA
ATOM     13  C4* UNL     1       6.322  -5.619  22.631  0.00  0.00    +0.175 C 
ATOM     14  C3* UNL     1       5.392  -4.483  23.023  0.00  0.00    +0.150 C 
BRANCH  14  15
ATOM     15  O3* UNL     1       4.026  -4.764  22.776  0.00  0.00    -0.389 OA
ATOM     16  H3* UNL     1       3.864  -4.723  21.815  0.00  0.00    +0.210 HD
ENDBRANCH  14  15
BRANCH  13  17
ATOM     17  C5* UNL     1       6.521  -5.716  21.120  0.00  0.00    +0.190 C 
BRANCH  17  18
ATOM     18  O5* UNL     1       5.827  -4.679  20.434  0.00  0.00    -0.392 OA
ATOM     19  H5* UNL     1       6.351  -3.857  20.520  0.00  0.00    +0.210 HD
ENDBRANCH  17  18
ENDBRANCH  13  17
ENDBRANCH   1  11
BRANCH   8  20
ATOM     20  C   UNL     1       9.890  -1.097  22.057  0.00  0.00    +0.022 C 
ATOM     21  C   UNL     1       9.579   0.046  21.432  0.00  0.00    +0.052 C 
ATOM     22 BR   UNL     1       8.310   1.316  21.874  0.00  0.00    -0.059 Br
ENDBRANCH   8  20
TORSDOF 5
ENDMDL
MODEL 2
REMARK VINA RESULT:      -5.9      3.459      5.381
REMARK  Name = 
REMARK  5 active torsions:
REMARK  status: ('A' for Active; 'I' for Inactive)
REMARK    1  A    between atoms: C3*_2  and  O3*_22
REMARK    2  A    between atoms: C4*_4  and  C5*_20
REMARK    3  A    between atoms: C1*_7  and  N_9
REMARK    4  A    between atoms: C_11  and  C_17
REMARK    5  A    between atoms: C5*_20  and  O5*_21
REMARK                            x       y       z     vdW  Elec       q    Type
REMARK                         _______ _______ _______ _____ _____    ______ ____
ROOT
ATOM      1  N   UNL     1       7.583  -5.199  24.853  0.00  0.00    -0.273 N 
ATOM      2  C   UNL     1       8.613  -5.375  25.769  0.00  0.00    +0.331 A 
ATOM      3  O   UNL     1       9.807  -5.304  25.485  0.00  0.00    -0.246 OA
ATOM      4  N   UNL     1       8.228  -5.648  27.050  0.00  0.00    -0.274 N 
ATOM      5  H   UNL     1       8.964  -5.805  27.721  0.00  0.00    +0.173 HD
ATOM      6  C   UNL     1       6.949  -5.640  27.525  0.00  0.00    +0.261 A 
ATOM      7  O   UNL     1       6.710  -5.851  28.711  0.00  0.00    -0.267 OA
ATOM      8  C   UNL     1       5.867  -5.363  26.530  0.00  0.00    +0.056 A 
ATOM      9  C   UNL     1       6.256  -5.199  25.255  0.00  0.00    +0.106 A 
ENDROOT
BRANCH   1  11
ATOM     10  C2* UNL     1       6.845  -5.021  22.457  0.00  0.00    +0.088 C 
ATOM     11  C1* UNL     1       7.980  -4.881  23.476  0.00  0.00    +0.226 C 
ATOM     12  O4* UNL     1       8.460  -3.519  23.374  0.00  0.00    -0.348 OA
ATOM     13  C4* UNL     1       7.664  -2.838  22.392  0.00  0.00    +0.175 C 
ATOM     14  C3* UNL     1       6.352  -3.603  22.340  0.00  0.00    +0.150 C 
BRANCH  14  15
ATOM     15  O3* UNL     1       5.603  -3.356  21.164  0.00  0.00    -0.389 OA
ATOM     16  H3* UNL     1       5.258  -2.444  21.194  0.00  0.00    +0.210 HD
ENDBRANCH  14  15
BRANCH  13  17
ATOM     17  C5* UNL     1       7.465  -1.360  22.719  0.00  0.00    +0.190 C 
BRANCH  17  18
ATOM     18  O5* UNL     1       6.107  -1.072  23.036  0.00  0.00    -0.392 OA
ATOM     19  H5* UNL     1       5.642  -1.923  23.172  0.00  0.00    +0.210 HD
ENDBRANCH  17  18
ENDBRANCH  13  17
ENDBRANCH   1  11
BRANCH   8  20
ATOM     20  C   UNL     1       4.489  -5.388  26.995  0.00  0.00    +0.022 C 
ATOM     21  C   UNL     1       3.444  -6.119  26.588  0.00  0.00    +0.052 C 
ATOM     22 BR   UNL     1       3.356  -7.399  25.255  0.00  0.00    -0.059 Br
ENDBRANCH   8  20
TORSDOF 5
ENDMDL
MODEL 3
REMARK VINA RESULT:      -5.8      3.662      5.792
REMARK  Name = 
REMARK  5 active torsions:
REMARK  status: ('A' for Active; 'I' for Inactive)
REMARK    1  A    between atoms: C3*_2  and  O3*_22
REMARK    2  A    between atoms: C4*_4  and  C5*_20
REMARK    3  A    between atoms: C1*_7  and  N_9
REMARK    4  A    between atoms: C_11  and  C_17
REMARK    5  A    between atoms: C5*_20  and  O5*_21
REMARK                            x       y       z     vdW  Elec       q    Type
REMARK                         _______ _______ _______ _____ _____    ______ ____
ROOT
ATOM      1  N   UNL     1       8.294  -3.889  24.899  0.00  0.00    -0.273 N 
ATOM      2  C   UNL     1       9.114  -4.913  25.356  0.00  0.00    +0.331 A 
ATOM      3  O   UNL     1      10.201  -5.200  24.859  0.00  0.00    -0.246 OA
ATOM      4  N   UNL     1       8.640  -5.623  26.421  0.00  0.00    -0.274 N 
ATOM      5  H   UNL     1       9.211  -6.386  26.749  0.00  0.00    +0.173 HD
ATOM      6  C   UNL     1       7.515  -5.340  27.140  0.00  0.00    +0.261 A 
ATOM      7  O   UNL     1       7.199  -6.013  28.117  0.00  0.00    -0.267 OA
ATOM      8  C   UNL     1       6.697  -4.178  26.673  0.00  0.00    +0.056 A 
ATOM      9  C   UNL     1       7.123  -3.556  25.562  0.00  0.00    +0.106 A 
ENDROOT
BRANCH   1  11
ATOM     10  C2* UNL     1       7.767  -2.143  23.170  0.00  0.00    +0.088 C 
ATOM     11  C1* UNL     1       8.801  -3.102  23.768  0.00  0.00    +0.226 C 
ATOM     12  O4* UNL     1       9.934  -2.292  24.164  0.00  0.00    -0.348 OA
ATOM     13  C4* UNL     1       9.626  -0.921  23.873  0.00  0.00    +0.175 C 
ATOM     14  C3* UNL     1       8.108  -0.846  23.858  0.00  0.00    +0.150 C 
BRANCH  14  15
ATOM     15  O3* UNL     1       7.608   0.299  23.192  0.00  0.00    -0.389 OA
ATOM     16  H3* UNL     1       6.829   0.042  22.663  0.00  0.00    +0.210 HD
ENDBRANCH  14  15
BRANCH  13  17
ATOM     17  C5* UNL     1      10.247   0.047  24.878  0.00  0.00    +0.190 C 
BRANCH  17  18
ATOM     18  O5* UNL     1       9.250   0.727  25.635  0.00  0.00    -0.392 OA
ATOM     19  H5* UNL     1       8.503   0.932  25.035  0.00  0.00    +0.210 HD
ENDBRANCH  17  18
ENDBRANCH  13  17
ENDBRANCH   1  11
BRANCH   8  20
ATOM     20  C   UNL     1       5.469  -3.875  27.391  0.00  0.00    +0.022 C 
ATOM     21  C   UNL     1       4.235  -4.380  27.262  0.00  0.00    +0.052 C 
ATOM     22 BR   UNL     1       3.615  -5.677  26.099  0.00  0.00    -0.059 Br
ENDBRANCH   8  20
TORSDOF 5
ENDMDL
MODEL 4
REMARK VINA RESULT:      -5.7      2.453      4.091
REMARK  Name = 
REMARK  5 active torsions:
REMARK  status: ('A' for Active; 'I' for Inactive)
REMARK    1  A    between atoms: C3*_2  and  O3*_22
REMARK    2  A    between atoms: C4*_4  and  C5*_20
REMARK    3  A    between atoms: C1*_7  and  N_9
REMARK    4  A    between atoms: C_11  and  C_17
REMARK    5  A    between atoms: C5*_20  and  O5*_21
REMARK                            x       y       z     vdW  Elec       q    Type
REMARK                         _______ _______ _______ _____ _____    ______ ____
ROOT
ATOM      1  N   UNL     1       7.746  -2.517  23.734  0.00  0.00    -0.273 N 
ATOM      2  C   UNL     1       6.613  -2.270  22.968  0.00  0.00    +0.331 A 
ATOM      3  O   UNL     1       5.925  -3.149  22.453  0.00  0.00    -0.246 OA
ATOM      4  N   UNL     1       6.286  -0.956  22.796  0.00  0.00    -0.274 N 
ATOM      5  H   UNL     1       5.482  -0.759  22.221  0.00  0.00    +0.173 HD
ATOM      6  C   UNL     1       6.888   0.108  23.402  0.00  0.00    +0.261 A 
ATOM      7  O   UNL     1       6.486   1.255  23.219  0.00  0.00    -0.267 OA
ATOM      8  C   UNL     1       8.052  -0.196  24.289  0.00  0.00    +0.056 A 
ATOM      9  C   UNL     1       8.425  -1.485  24.364  0.00  0.00    +0.106 A 
ENDROOT
BRANCH   1  11
ATOM     10  C2* UNL     1       9.391  -4.127  24.741  0.00  0.00    +0.088 C 
ATOM     11  C1* UNL     1       8.096  -3.925  23.947  0.00  0.00    +0.226 C 
ATOM     12  O4* UNL     1       7.054  -4.617  24.676  0.00  0.00    -0.348 OA
ATOM     13  C4* UNL     1       7.637  -5.182  25.860  0.00  0.00    +0.175 C 
ATOM     14  C3* UNL     1       8.872  -4.340  26.139  0.00  0.00    +0.150 C 
BRANCH  14  15
ATOM     15  O3* UNL     1       9.801  -4.973  27.000  0.00  0.00    -0.389 OA
ATOM     16  H3* UNL     1      10.051  -5.834  26.617  0.00  0.00    +0.210 HD
ENDBRANCH  14  15
BRANCH  13  17
ATOM     17  C5* UNL     1       6.668  -5.203  27.040  0.00  0.00    +0.190 C 
BRANCH  17  18
ATOM     18  O5* UNL     1       7.177  -5.977  28.122  0.00  0.00    -0.392 OA
ATOM     19  H5* UNL     1       7.984  -5.534  28.456  0.00  0.00    +0.210 HD
ENDBRANCH  17  18
ENDBRANCH  13  17
ENDBRANCH   1  11
BRANCH   8  20
ATOM     20  C   UNL     1       8.743   0.918  24.918  0.00  0.00    +0.022 C 
ATOM     21  C   UNL     1       9.555   1.848  24.396  0.00  0.00    +0.052 C 
ATOM     22 BR   UNL     1      10.114   2.068  22.647  0.00  0.00    -0.059 Br
ENDBRANCH   8  20
TORSDOF 5
ENDMDL
MODEL 5
REMARK VINA RESULT:      -5.7      1.985      2.268
REMARK  Name = 
REMARK  5 active torsions:
REMARK  status: ('A' for Active; 'I' for Inactive)
REMARK    1  A    between atoms: C3*_2  and  O3*_22
REMARK    2  A    between atoms: C4*_4  and  C5*_20
REMARK    3  A    between atoms: C1*_7  and  N_9
REMARK    4  A    between atoms: C_11  and  C_17
REMARK    5  A    between atoms: C5*_20  and  O5*_21
REMARK                            x       y       z     vdW  Elec       q    Type
REMARK                         _______ _______ _______ _____ _____    ______ ____
ROOT
ATOM      1  N   UNL     1       8.207  -2.009  23.623  0.00  0.00    -0.273 N 
ATOM      2  C   UNL     1       9.591  -2.082  23.513  0.00  0.00    +0.331 A 
ATOM      3  O   UNL     1      10.257  -3.063  23.834  0.00  0.00    -0.246 OA
ATOM      4  N   UNL     1      10.206  -0.968  23.018  0.00  0.00    -0.274 N 
ATOM      5  H   UNL     1      11.212  -0.995  22.956  0.00  0.00    +0.173 HD
ATOM      6  C   UNL     1       9.585   0.138  22.517  0.00  0.00    +0.261 A 
ATOM      7  O   UNL     1      10.231   1.072  22.047  0.00  0.00    -0.267 OA
ATOM      8  C   UNL     1       8.091   0.151  22.572  0.00  0.00    +0.056 A 
ATOM      9  C   UNL     1       7.506  -0.908  23.157  0.00  0.00    +0.106 A 
ENDROOT
BRANCH   1  11
ATOM     10  C2* UNL     1       6.001  -3.133  24.050  0.00  0.00    +0.088 C 
ATOM     11  C1* UNL     1       7.529  -3.207  24.132  0.00  0.00    +0.226 C 
ATOM     12  O4* UNL     1       7.925  -4.385  23.388  0.00  0.00    -0.348 OA
ATOM     13  C4* UNL     1       6.741  -4.989  22.846  0.00  0.00    +0.175 C 
ATOM     14  C3* UNL     1       5.720  -3.867  22.765  0.00  0.00    +0.150 C 
BRANCH  14  15
ATOM     15  O3* UNL     1       4.385  -4.327  22.654  0.00  0.00    -0.389 OA
ATOM     16  H3* UNL     1       3.815  -3.582  22.386  0.00  0.00    +0.210 HD
ENDBRANCH  14  15
BRANCH  13  17
ATOM     17  C5* UNL     1       6.987  -5.653  21.493  0.00  0.00    +0.190 C 
BRANCH  17  18
ATOM     18  O5* UNL     1       5.977  -5.307  20.550  0.00  0.00    -0.392 OA
ATOM     19  H5* UNL     1       5.606  -4.439  20.809  0.00  0.00    +0.210 HD
ENDBRANCH  17  18
ENDBRANCH  13  17
ENDBRANCH   1  11
BRANCH   8  20
ATOM     20  C   UNL     1       7.399   1.333  22.084  0.00  0.00    +0.022 C 
ATOM     21  C   UNL     1       7.202   2.527  22.657  0.00  0.00    +0.052 C 
ATOM     22 BR   UNL     1       7.744   3.135  24.317  0.00  0.00    -0.059 Br
ENDBRANCH   8  20
TORSDOF 5
ENDMDL
MODEL 6
REMARK VINA RESULT:      -5.6      3.229      5.394
REMARK  Name = 
REMARK  5 active torsions:
REMARK  status: ('A' for Active; 'I' for Inactive)
REMARK    1  A    between atoms: C3*_2  and  O3*_22
REMARK    2  A    between atoms: C4*_4  and  C5*_20
REMARK    3  A    between atoms: C1*_7  and  N_9
REMARK    4  A    between atoms: C_11  and  C_17
REMARK    5  A    between atoms: C5*_20  and  O5*_21
REMARK                            x       y       z     vdW  Elec       q    Type
REMARK                         _______ _______ _______ _____ _____    ______ ____
ROOT
ATOM      1  N   UNL     1       8.115  -3.577  25.560  0.00  0.00    -0.273 N 
ATOM      2  C   UNL     1       8.693  -4.656  26.219  0.00  0.00    +0.331 A 
ATOM      3  O   UNL     1       9.892  -4.744  26.474  0.00  0.00    -0.246 OA
ATOM      4  N   UNL     1       7.840  -5.659  26.580  0.00  0.00    -0.274 N 
ATOM      5  H   UNL     1       8.248  -6.460  27.035  0.00  0.00    +0.173 HD
ATOM      6  C   UNL     1       6.481  -5.638  26.465  0.00  0.00    +0.261 A 
ATOM      7  O   UNL     1       5.795  -6.575  26.867  0.00  0.00    -0.267 OA
ATOM      8  C   UNL     1       5.880  -4.426  25.829  0.00  0.00    +0.056 A 
ATOM      9  C   UNL     1       6.742  -3.495  25.385  0.00  0.00    +0.106 A 
ENDROOT
BRANCH   1  11
ATOM     10  C2* UNL     1       9.838  -2.760  23.925  0.00  0.00    +0.088 C 
ATOM     11  C1* UNL     1       9.015  -2.481  25.187  0.00  0.00    +0.226 C 
ATOM     12  O4* UNL     1       8.275  -1.262  24.936  0.00  0.00    -0.348 OA
ATOM     13  C4* UNL     1       8.578  -0.823  23.602  0.00  0.00    +0.175 C 
ATOM     14  C3* UNL     1       9.022  -2.073  22.861  0.00  0.00    +0.150 C 
BRANCH  14  15
ATOM     15  O3* UNL     1       9.748  -1.796  21.677  0.00  0.00    -0.389 OA
ATOM     16  H3* UNL     1       9.484  -0.919  21.342  0.00  0.00    +0.210 HD
ENDBRANCH  14  15
BRANCH  13  17
ATOM     17  C5* UNL     1       7.393  -0.135  22.928  0.00  0.00    +0.190 C 
BRANCH  17  18
ATOM     18  O5* UNL     1       6.231  -0.957  22.945  0.00  0.00    -0.392 OA
ATOM     19  H5* UNL     1       6.403  -1.711  23.547  0.00  0.00    +0.210 HD
ENDBRANCH  17  18
ENDBRANCH  13  17
ENDBRANCH   1  11
BRANCH   8  20
ATOM     20  C   UNL     1       4.437  -4.390  25.653  0.00  0.00    +0.022 C 
ATOM     21  C   UNL     1       3.667  -4.858  24.662  0.00  0.00    +0.052 C 
ATOM     22 BR   UNL     1       4.157  -5.743  23.114  0.00  0.00    -0.059 Br
ENDBRANCH   8  20
TORSDOF 5
ENDMDL
MODEL 7
REMARK VINA RESULT:      -5.6      2.453      3.744
REMARK  Name = 
REMARK  5 active torsions:
REMARK  status: ('A' for Active; 'I' for Inactive)
REMARK    1  A    between atoms: C3*_2  and  O3*_22
REMARK    2  A    between atoms: C4*_4  and  C5*_20
REMARK    3  A    between atoms: C1*_7  and  N_9
REMARK    4  A    between atoms: C_11  and  C_17
REMARK    5  A    between atoms: C5*_20  and  O5*_21
REMARK                            x       y       z     vdW  Elec       q    Type
REMARK                         _______ _______ _______ _____ _____    ______ ____
ROOT
ATOM      1  N   UNL     1       6.899  -3.095  23.436  0.00  0.00    -0.273 N 
ATOM      2  C   UNL     1       5.810  -2.313  23.800  0.00  0.00    +0.331 A 
ATOM      3  O   UNL     1       4.781  -2.756  24.305  0.00  0.00    -0.246 OA
ATOM      4  N   UNL     1       5.931  -0.975  23.556  0.00  0.00    -0.274 N 
ATOM      5  H   UNL     1       5.139  -0.397  23.790  0.00  0.00    +0.173 HD
ATOM      6  C   UNL     1       7.052  -0.337  23.112  0.00  0.00    +0.261 A 
ATOM      7  O   UNL     1       7.075   0.883  22.971  0.00  0.00    -0.267 OA
ATOM      8  C   UNL     1       8.237  -1.197  22.810  0.00  0.00    +0.056 A 
ATOM      9  C   UNL     1       8.067  -2.521  22.956  0.00  0.00    +0.106 A 
ENDROOT
BRANCH   1  11
ATOM     10  C2* UNL     1       8.146  -5.244  23.809  0.00  0.00    +0.088 C 
ATOM     11  C1* UNL     1       6.793  -4.532  23.713  0.00  0.00    +0.226 C 
ATOM     12  O4* UNL     1       6.111  -4.771  24.968  0.00  0.00    -0.348 OA
ATOM     13  C4* UNL     1       6.982  -5.544  25.808  0.00  0.00    +0.175 C 
ATOM     14  C3* UNL     1       8.385  -5.264  25.297  0.00  0.00    +0.150 C 
BRANCH  14  15
ATOM     15  O3* UNL     1       9.336  -6.229  25.707  0.00  0.00    -0.389 OA
ATOM     16  H3* UNL     1       9.716  -6.654  24.916  0.00  0.00    +0.210 HD
ENDBRANCH  14  15
BRANCH  13  17
ATOM     17  C5* UNL     1       6.822  -5.205  27.289  0.00  0.00    +0.190 C 
BRANCH  17  18
ATOM     18  O5* UNL     1       7.545  -6.113  28.114  0.00  0.00    -0.392 OA
ATOM     19  H5* UNL     1       7.489  -5.792  29.038  0.00  0.00    +0.210 HD
ENDBRANCH  17  18
ENDBRANCH  13  17
ENDBRANCH   1  11
BRANCH   8  20
ATOM     20  C   UNL     1       9.436  -0.553  22.295  0.00  0.00    +0.022 C 
ATOM     21  C   UNL     1      10.421   0.093  22.932  0.00  0.00    +0.052 C 
ATOM     22 BR   UNL     1      10.634   0.417  24.740  0.00  0.00    -0.059 Br
ENDBRANCH   8  20
TORSDOF 5
ENDMDL
MODEL 8
REMARK VINA RESULT:      -5.5      2.933      6.016
REMARK  Name = 
REMARK  5 active torsions:
REMARK  status: ('A' for Active; 'I' for Inactive)
REMARK    1  A    between atoms: C3*_2  and  O3*_22
REMARK    2  A    between atoms: C4*_4  and  C5*_20
REMARK    3  A    between atoms: C1*_7  and  N_9
REMARK    4  A    between atoms: C_11  and  C_17
REMARK    5  A    between atoms: C5*_20  and  O5*_21
REMARK                            x       y       z     vdW  Elec       q    Type
REMARK                         _______ _______ _______ _____ _____    ______ ____
ROOT
ATOM      1  N   UNL     1       8.639  -0.836  24.696  0.00  0.00    -0.273 N 
ATOM      2  C   UNL     1       8.373  -1.341  25.964  0.00  0.00    +0.331 A 
ATOM      3  O   UNL     1       8.948  -0.974  26.986  0.00  0.00    -0.246 OA
ATOM      4  N   UNL     1       7.410  -2.306  26.029  0.00  0.00    -0.274 N 
ATOM      5  H   UNL     1       7.223  -2.701  26.937  0.00  0.00    +0.173 HD
ATOM      6  C   UNL     1       6.616  -2.720  24.999  0.00  0.00    +0.261 A 
ATOM      7  O   UNL     1       5.740  -3.565  25.172  0.00  0.00    -0.267 OA
ATOM      8  C   UNL     1       6.870  -2.097  23.664  0.00  0.00    +0.056 A 
ATOM      9  C   UNL     1       7.890  -1.226  23.597  0.00  0.00    +0.106 A 
ENDROOT
BRANCH   1  11
ATOM     10  C2* UNL     1      10.296   0.352  23.229  0.00  0.00    +0.088 C 
ATOM     11  C1* UNL     1       9.655   0.219  24.614  0.00  0.00    +0.226 C 
ATOM     12  O4* UNL     1       9.089   1.513  24.933  0.00  0.00    -0.348 OA
ATOM     13  C4* UNL     1       9.322   2.388  23.818  0.00  0.00    +0.175 C 
ATOM     14  C3* UNL     1       9.494   1.471  22.618  0.00  0.00    +0.150 C 
BRANCH  14  15
ATOM     15  O3* UNL     1      10.134   2.096  21.521  0.00  0.00    -0.389 OA
ATOM     16  H3* UNL     1       9.518   2.113  20.764  0.00  0.00    +0.210 HD
ENDBRANCH  14  15
BRANCH  13  17
ATOM     17  C5* UNL     1       8.196   3.401  23.622  0.00  0.00    +0.190 C 
BRANCH  17  18
ATOM     18  O5* UNL     1       8.593   4.464  22.762  0.00  0.00    -0.392 OA
ATOM     19  H5* UNL     1       9.182   5.060  23.271  0.00  0.00    +0.210 HD
ENDBRANCH  17  18
ENDBRANCH  13  17
ENDBRANCH   1  11
BRANCH   8  20
ATOM     20  C   UNL     1       6.069  -2.547  22.536  0.00  0.00    +0.022 C 
ATOM     21  C   UNL     1       6.070  -3.711  21.875  0.00  0.00    +0.052 C 
ATOM     22 BR   UNL     1       7.109  -5.216  22.151  0.00  0.00    -0.059 Br
ENDBRANCH   8  20
TORSDOF 5
ENDMDL
MODEL 9
REMARK VINA RESULT:      -5.5      2.707      5.224
REMARK  Name = 
REMARK  5 active torsions:
REMARK  status: ('A' for Active; 'I' for Inactive)
REMARK    1  A    between atoms: C3*_2  and  O3*_22
REMARK    2  A    between atoms: C4*_4  and  C5*_20
REMARK    3  A    between atoms: C1*_7  and  N_9
REMARK    4  A    between atoms: C_11  and  C_17
REMARK    5  A    between atoms: C5*_20  and  O5*_21
REMARK                            x       y       z     vdW  Elec       q    Type
REMARK                         _______ _______ _______ _____ _____    ______ ____
ROOT
ATOM      1  N   UNL     1       7.594  -2.098  25.110  0.00  0.00    -0.273 N 
ATOM      2  C   UNL     1       6.961  -2.347  26.322  0.00  0.00    +0.331 A 
ATOM      3  O   UNL     1       6.588  -1.469  27.097  0.00  0.00    -0.246 OA
ATOM      4  N   UNL     1       6.770  -3.662  26.634  0.00  0.00    -0.274 N 
ATOM      5  H   UNL     1       6.336  -3.859  27.521  0.00  0.00    +0.173 HD
ATOM      6  C   UNL     1       7.025  -4.726  25.820  0.00  0.00    +0.261 A 
ATOM      7  O   UNL     1       6.770  -5.874  26.176  0.00  0.00    -0.267 OA
ATOM      8  C   UNL     1       7.628  -4.421  24.486  0.00  0.00    +0.056 A 
ATOM      9  C   UNL     1       7.906  -3.130  24.238  0.00  0.00    +0.106 A 
ENDROOT
BRANCH   1  11
ATOM     10  C2* UNL     1       9.096  -0.091  25.273  0.00  0.00    +0.088 C 
ATOM     11  C1* UNL     1       7.786  -0.689  24.750  0.00  0.00    +0.226 C 
ATOM     12  O4* UNL     1       7.799  -0.515  23.313  0.00  0.00    -0.348 OA
ATOM     13  C4* UNL     1       9.039   0.111  22.950  0.00  0.00    +0.175 C 
ATOM     14  C3* UNL     1      10.002  -0.225  24.077  0.00  0.00    +0.150 C 
BRANCH  14  15
ATOM     15  O3* UNL     1      11.133   0.625  24.122  0.00  0.00    -0.389 OA
ATOM     16  H3* UNL     1      10.848   1.540  23.941  0.00  0.00    +0.210 HD
ENDBRANCH  14  15
BRANCH  13  17
ATOM     17  C5* UNL     1       9.553  -0.349  21.587  0.00  0.00    +0.190 C 
BRANCH  17  18
ATOM     18  O5* UNL     1      10.396  -1.491  21.704  0.00  0.00    -0.392 OA
ATOM     19  H5* UNL     1      11.324  -1.180  21.721  0.00  0.00    +0.210 HD
ENDBRANCH  17  18
ENDBRANCH  13  17
ENDBRANCH   1  11
BRANCH   8  20
ATOM     20  C   UNL     1       7.952  -5.536  23.610  0.00  0.00    +0.022 C 
ATOM     21  C   UNL     1       7.443  -5.889  22.422  0.00  0.00    +0.052 C 
ATOM     22 BR   UNL     1       6.112  -5.077  21.428  0.00  0.00    -0.059 Br
ENDBRANCH   8  20
TORSDOF 5
ENDMDL
