MODEL 1
REMARK VINA RESULT:      -6.6      0.000      0.000
REMARK  Name = 
REMARK  23 active torsions:
REMARK  status: ('A' for Active; 'I' for Inactive)
REMARK    1  A    between atoms: C_1  and  C_2
REMARK    2  A    between atoms: C_2  and  C_3
REMARK    3  A    between atoms: C_2  and  C_4
REMARK    4  A    between atoms: C_2  and  C_5
REMARK    5  A    between atoms: C_5  and  C_7
REMARK    6  A    between atoms: C_5  and  N_49
REMARK    7  A    between atoms: C_11  and  O_34
REMARK    8  A    between atoms: C_14  and  C_16
REMARK    9  A    between atoms: C_16  and  C_18
REMARK   10  A    between atoms: C_18  and  C_19
REMARK   11  A    between atoms: C_19  and  C_25
REMARK   12  A    between atoms: C_21  and  C_23
REMARK   13  A    between atoms: N_27  and  S_28
REMARK   14  A    between atoms: S_28  and  C_31
REMARK   15  A    between atoms: O_34  and  C_35
REMARK   16  A    between atoms: C_38  and  O_47
REMARK   17  A    between atoms: C_42  and  C_45
REMARK   18  A    between atoms: O_47  and  C_48
REMARK   19  A    between atoms: C_50  and  O_52
REMARK   20  A    between atoms: O_52  and  C_53
REMARK   21  A    between atoms: C_53  and  C_54
REMARK   22  A    between atoms: C_53  and  C_55
REMARK   23  A    between atoms: C_53  and  C_56
REMARK                            x       y       z     vdW  Elec       q    Type
REMARK                         _______ _______ _______ _____ _____    ______ ____
ROOT
ATOM      1  C   UNL     1       5.548   0.831  25.898  0.00  0.00    +0.237 C 
ATOM      2  N   UNL     1       6.625   0.256  25.234  0.00  0.00    -0.286 N 
ATOM      3  C   UNL     1       6.468  -0.610  24.056  0.00  0.00    +0.146 C 
ATOM      4  C   UNL     1       7.873  -0.704  23.435  0.00  0.00    +0.076 C 
ATOM      5  C   UNL     1       8.617   0.506  23.996  0.00  0.00    +0.195 C 
ATOM      6  C   UNL     1       8.032   0.618  25.399  0.00  0.00    +0.153 C 
ATOM      7  O   UNL     1       4.422   0.827  25.390  0.00  0.00    -0.274 OA
ENDROOT
BRANCH   3   8
ATOM      8  C   UNL     1       6.035  -2.020  24.502  0.00  0.00    +0.155 C 
ATOM      9  O   UNL     1       4.983  -2.549  24.130  0.00  0.00    -0.295 OA
BRANCH   8  10
ATOM     10  C   UNL     1       6.985  -2.796  25.374  0.00  0.00    +0.093 C 
BRANCH  10  11
ATOM     11  C   UNL     1       7.222  -4.208  24.879  0.00  0.00    +0.062 C 
ATOM     12  C   UNL     1       7.720  -4.292  23.442  0.00  0.00    +0.028 C 
ATOM     13  C   UNL     1       8.650  -4.649  24.557  0.00  0.00    +0.025 C 
BRANCH  11  14
ATOM     14  C   UNL     1       6.355  -5.270  25.501  0.00  0.00    +0.239 C 
ATOM     15  N   UNL     1       5.033  -5.275  25.051  0.00  0.00    -0.189 N 
ATOM     16  H   UNL     1       4.775  -4.757  24.217  0.00  0.00    +0.176 HD
ATOM     17  O   UNL     1       6.778  -6.014  26.369  0.00  0.00    -0.274 OA
BRANCH  15  18
ATOM     18  S   UNL     1       3.897  -6.395  25.497  0.00  0.00    +0.048 S 
ATOM     19  O   UNL     1       3.773  -6.344  26.938  0.00  0.00    -0.155 OA
ATOM     20  O   UNL     1       4.310  -7.622  24.844  0.00  0.00    -0.155 OA
BRANCH  18  21
ATOM     21  C   UNL     1       2.280  -5.912  24.829  0.00  0.00    +0.151 C 
ATOM     22  C   UNL     1       2.310  -5.375  23.419  0.00  0.00    +0.030 C 
ATOM     23  C   UNL     1       2.089  -4.440  24.576  0.00  0.00    +0.030 C 
ENDBRANCH  18  21
ENDBRANCH  15  18
ENDBRANCH  11  14
BRANCH  12  24
ATOM     24  C   UNL     1       7.234  -5.320  22.524  0.00  0.00    -0.030 C 
ATOM     25  C   UNL     1       6.250  -5.136  21.633  0.00  0.00    +0.004 C 
ENDBRANCH  12  24
ENDBRANCH  10  11
ENDBRANCH   8  10
ENDBRANCH   3   8
BRANCH   5  26
ATOM     26  O   UNL     1       8.275   1.707  23.313  0.00  0.00    -0.471 OA
BRANCH  26  27
ATOM     27  C   UNL     1       9.221   2.705  23.411  0.00  0.00    +0.223 A 
ATOM     28  C   UNL     1       8.749   4.020  23.388  0.00  0.00    +0.047 A 
ATOM     29  C   UNL     1       7.372   4.329  23.314  0.00  0.00    +0.018 A 
ATOM     30  C   UNL     1       6.920   5.651  23.280  0.00  0.00    -0.037 A 
ATOM     31  C   UNL     1       7.868   6.676  23.301  0.00  0.00    +0.005 A 
ATOM     32  C   UNL     1       9.236   6.381  23.382  0.00  0.00    +0.012 A 
ATOM     33  C   UNL     1       9.708   5.051  23.430  0.00  0.00    +0.030 A 
ATOM     34  C   UNL     1      11.080   4.707  23.505  0.00  0.00    +0.146 A 
ATOM     35  C   UNL     1      11.416   3.357  23.521  0.00  0.00    +0.160 A 
ATOM     36  N   UNL     1      10.520   2.351  23.482  0.00  0.00    -0.217 NA
BRANCH  34  37
ATOM     37  O   UNL     1      11.986   5.735  23.557  0.00  0.00    -0.493 OA
ATOM     38  C   UNL     1      13.101   5.655  22.674  0.00  0.00    +0.277 C 
ENDBRANCH  34  37
BRANCH  30  39
ATOM     39  C   UNL     1       5.442   5.941  23.210  0.00  0.00    +0.109 C 
ATOM     40  I   UNL     1       4.342   4.502  24.322  0.00  0.00    -0.080 I 
ENDBRANCH  30  39
ENDBRANCH  26  27
ENDBRANCH   5  26
BRANCH   1  41
ATOM     41  C   UNL     1       5.756   1.261  27.399  0.00  0.00    +0.168 C 
BRANCH  41  43
ATOM     42  C   UNL     1       5.108   0.498  29.801  0.00  0.00    +0.013 C 
ATOM     43  C   UNL     1       4.740   0.451  28.306  0.00  0.00    -0.011 C 
ATOM     44  C   UNL     1       3.324   1.049  28.244  0.00  0.00    +0.013 C 
ATOM     45  C   UNL     1       4.687  -1.032  27.880  0.00  0.00    +0.013 C 
ENDBRANCH  41  43
BRANCH  41  46
ATOM     46  N   UNL     1       5.595   2.733  27.575  0.00  0.00    -0.269 N 
ATOM     47  H   UNL     1       4.806   3.193  27.138  0.00  0.00    +0.153 HD
ATOM     48  C   UNL     1       6.385   3.494  28.409  0.00  0.00    +0.401 C 
ATOM     49  O   UNL     1       7.375   3.057  28.975  0.00  0.00    -0.226 OA
BRANCH  48  50
ATOM     50  O   UNL     1       5.907   4.768  28.543  0.00  0.00    -0.445 OA
BRANCH  50  51
ATOM     51  C   UNL     1       6.593   5.903  27.906  0.00  0.00    +0.107 C 
ATOM     52  C   UNL     1       7.619   5.455  26.852  0.00  0.00    +0.055 C 
ATOM     53  C   UNL     1       7.376   6.632  29.017  0.00  0.00    +0.055 C 
ATOM     54  C   UNL     1       5.598   6.909  27.309  0.00  0.00    +0.055 C 
ENDBRANCH  50  51
ENDBRANCH  48  50
ENDBRANCH  41  46
ENDBRANCH   1  41
TORSDOF 16
ENDMDL
MODEL 2
REMARK VINA RESULT:      -6.3      1.054      1.385
REMARK  Name = 
REMARK  23 active torsions:
REMARK  status: ('A' for Active; 'I' for Inactive)
REMARK    1  A    between atoms: C_1  and  C_2
REMARK    2  A    between atoms: C_2  and  C_3
REMARK    3  A    between atoms: C_2  and  C_4
REMARK    4  A    between atoms: C_2  and  C_5
REMARK    5  A    between atoms: C_5  and  C_7
REMARK    6  A    between atoms: C_5  and  N_49
REMARK    7  A    between atoms: C_11  and  O_34
REMARK    8  A    between atoms: C_14  and  C_16
REMARK    9  A    between atoms: C_16  and  C_18
REMARK   10  A    between atoms: C_18  and  C_19
REMARK   11  A    between atoms: C_19  and  C_25
REMARK   12  A    between atoms: C_21  and  C_23
REMARK   13  A    between atoms: N_27  and  S_28
REMARK   14  A    between atoms: S_28  and  C_31
REMARK   15  A    between atoms: O_34  and  C_35
REMARK   16  A    between atoms: C_38  and  O_47
REMARK   17  A    between atoms: C_42  and  C_45
REMARK   18  A    between atoms: O_47  and  C_48
REMARK   19  A    between atoms: C_50  and  O_52
REMARK   20  A    between atoms: O_52  and  C_53
REMARK   21  A    between atoms: C_53  and  C_54
REMARK   22  A    between atoms: C_53  and  C_55
REMARK   23  A    between atoms: C_53  and  C_56
REMARK                            x       y       z     vdW  Elec       q    Type
REMARK                         _______ _______ _______ _____ _____    ______ ____
ROOT
ATOM      1  C   UNL     1       5.783   0.960  25.749  0.00  0.00    +0.237 C 
ATOM      2  N   UNL     1       6.918   0.362  25.213  0.00  0.00    -0.286 N 
ATOM      3  C   UNL     1       6.860  -0.649  24.146  0.00  0.00    +0.146 C 
ATOM      4  C   UNL     1       8.298  -0.747  23.607  0.00  0.00    +0.076 C 
ATOM      5  C   UNL     1       8.958   0.558  24.046  0.00  0.00    +0.195 C 
ATOM      6  C   UNL     1       8.297   0.813  25.396  0.00  0.00    +0.153 C 
ATOM      7  O   UNL     1       4.686   0.837  25.195  0.00  0.00    -0.274 OA
ENDROOT
BRANCH   3   8
ATOM      8  C   UNL     1       6.467  -2.013  24.745  0.00  0.00    +0.155 C 
ATOM      9  O   UNL     1       5.381  -2.557  24.522  0.00  0.00    -0.295 OA
BRANCH   8  10
ATOM     10  C   UNL     1       7.496  -2.729  25.579  0.00  0.00    +0.093 C 
BRANCH  10  11
ATOM     11  C   UNL     1       7.702  -4.169  25.155  0.00  0.00    +0.062 C 
ATOM     12  C   UNL     1       7.984  -4.349  23.669  0.00  0.00    +0.028 C 
ATOM     13  C   UNL     1       9.080  -4.602  24.653  0.00  0.00    +0.025 C 
BRANCH  11  14
ATOM     14  C   UNL     1       6.973  -5.199  25.974  0.00  0.00    +0.239 C 
ATOM     15  N   UNL     1       5.660  -5.441  25.565  0.00  0.00    -0.189 N 
ATOM     16  H   UNL     1       5.338  -5.114  24.660  0.00  0.00    +0.176 HD
ATOM     17  O   UNL     1       7.487  -5.722  26.949  0.00  0.00    -0.274 OA
BRANCH  15  18
ATOM     18  S   UNL     1       4.671  -6.593  26.228  0.00  0.00    +0.048 S 
ATOM     19  O   UNL     1       5.337  -7.122  27.398  0.00  0.00    -0.155 OA
ATOM     20  O   UNL     1       4.329  -7.468  25.124  0.00  0.00    -0.155 OA
BRANCH  18  21
ATOM     21  C   UNL     1       3.146  -5.806  26.822  0.00  0.00    +0.151 C 
ATOM     22  C   UNL     1       2.611  -4.707  25.937  0.00  0.00    +0.030 C 
ATOM     23  C   UNL     1       3.273  -4.367  27.244  0.00  0.00    +0.030 C 
ENDBRANCH  18  21
ENDBRANCH  15  18
ENDBRANCH  11  14
BRANCH  12  24
ATOM     24  C   UNL     1       7.399  -5.453  22.909  0.00  0.00    -0.030 C 
ATOM     25  C   UNL     1       7.079  -5.393  21.610  0.00  0.00    +0.004 C 
ENDBRANCH  12  24
ENDBRANCH  10  11
ENDBRANCH   8  10
ENDBRANCH   3   8
BRANCH   5  26
ATOM     26  O   UNL     1       8.599   1.648  23.204  0.00  0.00    -0.471 OA
BRANCH  26  27
ATOM     27  C   UNL     1       9.372   2.776  23.375  0.00  0.00    +0.223 A 
ATOM     28  C   UNL     1       8.689   3.980  23.571  0.00  0.00    +0.047 A 
ATOM     29  C   UNL     1       7.279   4.047  23.638  0.00  0.00    +0.018 A 
ATOM     30  C   UNL     1       6.613   5.263  23.824  0.00  0.00    -0.037 A 
ATOM     31  C   UNL     1       7.376   6.427  23.924  0.00  0.00    +0.005 A 
ATOM     32  C   UNL     1       8.776   6.371  23.865  0.00  0.00    +0.012 A 
ATOM     33  C   UNL     1       9.463   5.150  23.691  0.00  0.00    +0.030 A 
ATOM     34  C   UNL     1      10.874   5.047  23.620  0.00  0.00    +0.146 A 
ATOM     35  C   UNL     1      11.429   3.787  23.421  0.00  0.00    +0.160 A 
ATOM     36  N   UNL     1      10.713   2.651  23.303  0.00  0.00    -0.217 NA
BRANCH  34  37
ATOM     37  O   UNL     1      11.599   6.204  23.752  0.00  0.00    -0.493 OA
ATOM     38  C   UNL     1      12.151   6.475  25.037  0.00  0.00    +0.277 C 
ENDBRANCH  34  37
BRANCH  30  39
ATOM     39  C   UNL     1       5.107   5.293  23.901  0.00  0.00    +0.109 C 
ATOM     40  I   UNL     1       4.265   3.697  22.778  0.00  0.00    -0.080 I 
ENDBRANCH  30  39
ENDBRANCH  26  27
ENDBRANCH   5  26
BRANCH   1  41
ATOM     41  C   UNL     1       5.893   1.581  27.193  0.00  0.00    +0.168 C 
BRANCH  41  43
ATOM     42  C   UNL     1       3.515   1.081  28.124  0.00  0.00    +0.013 C 
ATOM     43  C   UNL     1       5.011   0.718  28.187  0.00  0.00    -0.011 C 
ATOM     44  C   UNL     1       5.054  -0.778  27.831  0.00  0.00    +0.013 C 
ATOM     45  C   UNL     1       5.481   0.910  29.645  0.00  0.00    +0.013 C 
ENDBRANCH  41  43
BRANCH  41  46
ATOM     46  N   UNL     1       5.489   3.016  27.205  0.00  0.00    -0.269 N 
ATOM     47  H   UNL     1       4.506   3.244  27.287  0.00  0.00    +0.153 HD
ATOM     48  C   UNL     1       6.384   4.062  27.243  0.00  0.00    +0.401 C 
ATOM     49  O   UNL     1       7.593   3.913  27.133  0.00  0.00    -0.226 OA
BRANCH  48  50
ATOM     50  O   UNL     1       5.761   5.261  27.449  0.00  0.00    -0.445 OA
BRANCH  50  51
ATOM     51  C   UNL     1       5.910   5.982  28.723  0.00  0.00    +0.107 C 
ATOM     52  C   UNL     1       4.678   6.835  29.065  0.00  0.00    +0.055 C 
ATOM     53  C   UNL     1       7.096   6.952  28.550  0.00  0.00    +0.055 C 
ATOM     54  C   UNL     1       6.257   5.032  29.878  0.00  0.00    +0.055 C 
ENDBRANCH  50  51
ENDBRANCH  48  50
ENDBRANCH  41  46
ENDBRANCH   1  41
TORSDOF 16
ENDMDL
MODEL 3
REMARK VINA RESULT:      -5.5      1.691      2.683
REMARK  Name = 
REMARK  23 active torsions:
REMARK  status: ('A' for Active; 'I' for Inactive)
REMARK    1  A    between atoms: C_1  and  C_2
REMARK    2  A    between atoms: C_2  and  C_3
REMARK    3  A    between atoms: C_2  and  C_4
REMARK    4  A    between atoms: C_2  and  C_5
REMARK    5  A    between atoms: C_5  and  C_7
REMARK    6  A    between atoms: C_5  and  N_49
REMARK    7  A    between atoms: C_11  and  O_34
REMARK    8  A    between atoms: C_14  and  C_16
REMARK    9  A    between atoms: C_16  and  C_18
REMARK   10  A    between atoms: C_18  and  C_19
REMARK   11  A    between atoms: C_19  and  C_25
REMARK   12  A    between atoms: C_21  and  C_23
REMARK   13  A    between atoms: N_27  and  S_28
REMARK   14  A    between atoms: S_28  and  C_31
REMARK   15  A    between atoms: O_34  and  C_35
REMARK   16  A    between atoms: C_38  and  O_47
REMARK   17  A    between atoms: C_42  and  C_45
REMARK   18  A    between atoms: O_47  and  C_48
REMARK   19  A    between atoms: C_50  and  O_52
REMARK   20  A    between atoms: O_52  and  C_53
REMARK   21  A    between atoms: C_53  and  C_54
REMARK   22  A    between atoms: C_53  and  C_55
REMARK   23  A    between atoms: C_53  and  C_56
REMARK                            x       y       z     vdW  Elec       q    Type
REMARK                         _______ _______ _______ _____ _____    ______ ____
ROOT
ATOM      1  C   UNL     1       5.641   0.091  26.237  0.00  0.00    +0.237 C 
ATOM      2  N   UNL     1       6.838  -0.436  25.765  0.00  0.00    -0.286 N 
ATOM      3  C   UNL     1       6.899  -1.553  24.811  0.00  0.00    +0.146 C 
ATOM      4  C   UNL     1       8.345  -1.553  24.284  0.00  0.00    +0.076 C 
ATOM      5  C   UNL     1       8.858  -0.146  24.582  0.00  0.00    +0.195 C 
ATOM      6  C   UNL     1       8.160   0.176  25.899  0.00  0.00    +0.153 C 
ATOM      7  O   UNL     1       4.569  -0.206  25.700  0.00  0.00    -0.274 OA
ENDROOT
BRANCH   3   8
ATOM      8  C   UNL     1       6.647  -2.881  25.550  0.00  0.00    +0.155 C 
ATOM      9  O   UNL     1       6.679  -2.982  26.781  0.00  0.00    -0.295 OA
BRANCH   8  10
ATOM     10  C   UNL     1       6.277  -4.081  24.719  0.00  0.00    +0.093 C 
BRANCH  10  11
ATOM     11  C   UNL     1       4.876  -4.583  24.997  0.00  0.00    +0.062 C 
ATOM     12  C   UNL     1       3.804  -3.501  24.959  0.00  0.00    +0.028 C 
ATOM     13  C   UNL     1       3.836  -4.533  23.877  0.00  0.00    +0.025 C 
BRANCH  11  14
ATOM     14  C   UNL     1       4.781  -5.786  25.895  0.00  0.00    +0.239 C 
ATOM     15  N   UNL     1       4.771  -5.491  27.260  0.00  0.00    -0.189 N 
ATOM     16  H   UNL     1       4.605  -4.541  27.576  0.00  0.00    +0.176 HD
ATOM     17  O   UNL     1       4.778  -6.921  25.448  0.00  0.00    -0.274 OA
BRANCH  15  18
ATOM     18  S   UNL     1       4.577  -6.617  28.460  0.00  0.00    +0.048 S 
ATOM     19  O   UNL     1       5.741  -7.476  28.447  0.00  0.00    -0.155 OA
ATOM     20  O   UNL     1       3.257  -7.173  28.237  0.00  0.00    -0.155 OA
BRANCH  18  21
ATOM     21  C   UNL     1       4.577  -5.783  30.073  0.00  0.00    +0.151 C 
ATOM     22  C   UNL     1       3.283  -5.097  30.434  0.00  0.00    +0.030 C 
ATOM     23  C   UNL     1       4.481  -4.282  30.035  0.00  0.00    +0.030 C 
ENDBRANCH  18  21
ENDBRANCH  15  18
ENDBRANCH  11  14
BRANCH  12  24
ATOM     24  C   UNL     1       2.709  -3.475  25.927  0.00  0.00    -0.030 C 
ATOM     25  C   UNL     1       1.470  -3.042  25.659  0.00  0.00    +0.004 C 
ENDBRANCH  12  24
ENDBRANCH  10  11
ENDBRANCH   8  10
ENDBRANCH   3   8
BRANCH   5  26
ATOM     26  O   UNL     1       8.394   0.805  23.630  0.00  0.00    -0.471 OA
BRANCH  26  27
ATOM     27  C   UNL     1       9.100   1.989  23.621  0.00  0.00    +0.223 A 
ATOM     28  C   UNL     1       8.361   3.157  23.413  0.00  0.00    +0.047 A 
ATOM     29  C   UNL     1       6.956   3.147  23.264  0.00  0.00    +0.018 A 
ATOM     30  C   UNL     1       6.235   4.325  23.046  0.00  0.00    -0.037 A 
ATOM     31  C   UNL     1       6.941   5.526  22.957  0.00  0.00    +0.005 A 
ATOM     32  C   UNL     1       8.334   5.548  23.110  0.00  0.00    +0.012 A 
ATOM     33  C   UNL     1       9.074   4.369  23.344  0.00  0.00    +0.030 A 
ATOM     34  C   UNL     1      10.482   4.344  23.499  0.00  0.00    +0.146 A 
ATOM     35  C   UNL     1      11.097   3.112  23.700  0.00  0.00    +0.160 A 
ATOM     36  N   UNL     1      10.439   1.937  23.770  0.00  0.00    -0.217 NA
BRANCH  34  37
ATOM     37  O   UNL     1      11.145   5.543  23.438  0.00  0.00    -0.493 OA
ATOM     38  C   UNL     1      12.533   5.496  23.122  0.00  0.00    +0.277 C 
ENDBRANCH  34  37
BRANCH  30  39
ATOM     39  C   UNL     1       4.735   4.275  22.901  0.00  0.00    +0.109 C 
ATOM     40  I   UNL     1       3.928   6.237  22.765  0.00  0.00    -0.080 I 
ENDBRANCH  30  39
ENDBRANCH  26  27
ENDBRANCH   5  26
BRANCH   1  41
ATOM     41  C   UNL     1       5.671   0.868  27.608  0.00  0.00    +0.168 C 
BRANCH  41  43
ATOM     42  C   UNL     1       4.307  -1.227  28.332  0.00  0.00    +0.013 C 
ATOM     43  C   UNL     1       4.541   0.280  28.551  0.00  0.00    -0.011 C 
ATOM     44  C   UNL     1       4.926   0.392  30.035  0.00  0.00    +0.013 C 
ATOM     45  C   UNL     1       3.198   1.004  28.315  0.00  0.00    +0.013 C 
ENDBRANCH  41  43
BRANCH  41  46
ATOM     46  N   UNL     1       5.510   2.336  27.409  0.00  0.00    -0.269 N 
ATOM     47  H   UNL     1       4.776   2.667  26.794  0.00  0.00    +0.153 HD
ATOM     48  C   UNL     1       6.216   3.285  28.115  0.00  0.00    +0.401 C 
ATOM     49  O   UNL     1       7.136   3.010  28.871  0.00  0.00    -0.226 OA
BRANCH  48  50
ATOM     50  O   UNL     1       5.741   4.548  27.889  0.00  0.00    -0.445 OA
BRANCH  50  51
ATOM     51  C   UNL     1       6.633   5.616  27.410  0.00  0.00    +0.107 C 
ATOM     52  C   UNL     1       7.172   6.489  28.554  0.00  0.00    +0.055 C 
ATOM     53  C   UNL     1       5.785   6.532  26.504  0.00  0.00    +0.055 C 
ATOM     54  C   UNL     1       7.781   5.060  26.557  0.00  0.00    +0.055 C 
ENDBRANCH  50  51
ENDBRANCH  48  50
ENDBRANCH  41  46
ENDBRANCH   1  41
TORSDOF 16
ENDMDL
MODEL 4
REMARK VINA RESULT:      -5.5      1.776      5.418
REMARK  Name = 
REMARK  23 active torsions:
REMARK  status: ('A' for Active; 'I' for Inactive)
REMARK    1  A    between atoms: C_1  and  C_2
REMARK    2  A    between atoms: C_2  and  C_3
REMARK    3  A    between atoms: C_2  and  C_4
REMARK    4  A    between atoms: C_2  and  C_5
REMARK    5  A    between atoms: C_5  and  C_7
REMARK    6  A    between atoms: C_5  and  N_49
REMARK    7  A    between atoms: C_11  and  O_34
REMARK    8  A    between atoms: C_14  and  C_16
REMARK    9  A    between atoms: C_16  and  C_18
REMARK   10  A    between atoms: C_18  and  C_19
REMARK   11  A    between atoms: C_19  and  C_25
REMARK   12  A    between atoms: C_21  and  C_23
REMARK   13  A    between atoms: N_27  and  S_28
REMARK   14  A    between atoms: S_28  and  C_31
REMARK   15  A    between atoms: O_34  and  C_35
REMARK   16  A    between atoms: C_38  and  O_47
REMARK   17  A    between atoms: C_42  and  C_45
REMARK   18  A    between atoms: O_47  and  C_48
REMARK   19  A    between atoms: C_50  and  O_52
REMARK   20  A    between atoms: O_52  and  C_53
REMARK   21  A    between atoms: C_53  and  C_54
REMARK   22  A    between atoms: C_53  and  C_55
REMARK   23  A    between atoms: C_53  and  C_56
REMARK                            x       y       z     vdW  Elec       q    Type
REMARK                         _______ _______ _______ _____ _____    ______ ____
ROOT
ATOM      1  C   UNL     1       9.095   0.437  25.155  0.00  0.00    +0.237 C 
ATOM      2  N   UNL     1       7.837   0.303  25.731  0.00  0.00    -0.286 N 
ATOM      3  C   UNL     1       7.558  -0.631  26.833  0.00  0.00    +0.146 C 
ATOM      4  C   UNL     1       6.197  -0.190  27.398  0.00  0.00    +0.076 C 
ATOM      5  C   UNL     1       6.037   1.253  26.923  0.00  0.00    +0.195 C 
ATOM      6  C   UNL     1       6.707   1.214  25.554  0.00  0.00    +0.153 C 
ATOM      7  O   UNL     1      10.090  -0.057  25.695  0.00  0.00    -0.274 OA
ENDROOT
BRANCH   3   8
ATOM      8  C   UNL     1       7.418  -2.061  26.278  0.00  0.00    +0.155 C 
ATOM      9  O   UNL     1       6.437  -2.437  25.629  0.00  0.00    -0.295 OA
BRANCH   8  10
ATOM     10  C   UNL     1       8.572  -3.005  26.488  0.00  0.00    +0.093 C 
BRANCH  10  11
ATOM     11  C   UNL     1       8.328  -4.378  25.896  0.00  0.00    +0.062 C 
ATOM     12  C   UNL     1       8.592  -4.470  24.399  0.00  0.00    +0.028 C 
ATOM     13  C   UNL     1       9.516  -5.167  25.345  0.00  0.00    +0.025 C 
BRANCH  11  14
ATOM     14  C   UNL     1       7.281  -5.209  26.587  0.00  0.00    +0.239 C 
ATOM     15  N   UNL     1       6.072  -5.309  25.896  0.00  0.00    -0.189 N 
ATOM     16  H   UNL     1       6.017  -5.036  24.920  0.00  0.00    +0.176 HD
ATOM     17  O   UNL     1       7.473  -5.693  27.690  0.00  0.00    -0.274 OA
BRANCH  15  18
ATOM     18  S   UNL     1       4.790  -6.239  26.382  0.00  0.00    +0.048 S 
ATOM     19  O   UNL     1       3.745  -5.345  26.831  0.00  0.00    -0.155 OA
ATOM     20  O   UNL     1       5.361  -7.209  27.295  0.00  0.00    -0.155 OA
BRANCH  18  21
ATOM     21  C   UNL     1       4.117  -7.132  24.951  0.00  0.00    +0.151 C 
ATOM     22  C   UNL     1       3.956  -6.301  23.703  0.00  0.00    +0.030 C 
ATOM     23  C   UNL     1       2.747  -6.705  24.499  0.00  0.00    +0.030 C 
ENDBRANCH  18  21
ENDBRANCH  15  18
ENDBRANCH  11  14
BRANCH  12  24
ATOM     24  C   UNL     1       7.717  -5.237  23.514  0.00  0.00    -0.030 C 
ATOM     25  C   UNL     1       7.138  -4.747  22.410  0.00  0.00    +0.004 C 
ENDBRANCH  12  24
ENDBRANCH  10  11
ENDBRANCH   8  10
ENDBRANCH   3   8
BRANCH   5  26
ATOM     26  O   UNL     1       6.787   2.164  27.719  0.00  0.00    -0.471 OA
BRANCH  26  27
ATOM     27  C   UNL     1       6.021   3.075  28.412  0.00  0.00    +0.223 A 
ATOM     28  C   UNL     1       5.878   4.341  27.836  0.00  0.00    +0.047 A 
ATOM     29  C   UNL     1       6.447   4.671  26.585  0.00  0.00    +0.018 A 
ATOM     30  C   UNL     1       6.303   5.946  26.030  0.00  0.00    -0.037 A 
ATOM     31  C   UNL     1       5.594   6.907  26.753  0.00  0.00    +0.005 A 
ATOM     32  C   UNL     1       5.020   6.588  27.992  0.00  0.00    +0.012 A 
ATOM     33  C   UNL     1       5.145   5.302  28.559  0.00  0.00    +0.030 A 
ATOM     34  C   UNL     1       4.587   4.937  29.810  0.00  0.00    +0.146 A 
ATOM     35  C   UNL     1       4.804   3.642  30.271  0.00  0.00    +0.160 A 
ATOM     36  N   UNL     1       5.501   2.704  29.600  0.00  0.00    -0.217 NA
BRANCH  34  37
ATOM     37  O   UNL     1       3.870   5.892  30.482  0.00  0.00    -0.493 OA
ATOM     38  C   UNL     1       2.451   5.818  30.387  0.00  0.00    +0.277 C 
ENDBRANCH  34  37
BRANCH  30  39
ATOM     39  C   UNL     1       6.916   6.258  24.688  0.00  0.00    +0.109 C 
ATOM     40  I   UNL     1       6.165   4.944  23.196  0.00  0.00    -0.080 I 
ENDBRANCH  30  39
ENDBRANCH  26  27
ENDBRANCH   5  26
BRANCH   1  41
ATOM     41  C   UNL     1       9.174   1.014  23.691  0.00  0.00    +0.168 C 
BRANCH  41  43
ATOM     42  C   UNL     1       9.307   0.266  21.202  0.00  0.00    +0.013 C 
ATOM     43  C   UNL     1       9.170  -0.194  22.666  0.00  0.00    -0.011 C 
ATOM     44  C   UNL     1      10.373  -1.127  22.885  0.00  0.00    +0.013 C 
ATOM     45  C   UNL     1       7.864  -1.009  22.783  0.00  0.00    +0.013 C 
ENDBRANCH  41  43
BRANCH  41  46
ATOM     46  N   UNL     1      10.370   1.885  23.509  0.00  0.00    -0.269 N 
ATOM     47  H   UNL     1      11.160   1.525  22.986  0.00  0.00    +0.153 HD
ATOM     48  C   UNL     1      10.421   3.206  23.897  0.00  0.00    +0.401 C 
ATOM     49  O   UNL     1       9.540   3.746  24.549  0.00  0.00    -0.226 OA
BRANCH  48  50
ATOM     50  O   UNL     1      11.548   3.830  23.440  0.00  0.00    -0.445 OA
BRANCH  50  51
ATOM     51  C   UNL     1      11.628   5.298  23.379  0.00  0.00    +0.107 C 
ATOM     52  C   UNL     1      10.284   5.945  23.007  0.00  0.00    +0.055 C 
ATOM     53  C   UNL     1      12.623   5.645  22.253  0.00  0.00    +0.055 C 
ATOM     54  C   UNL     1      12.182   5.893  24.682  0.00  0.00    +0.055 C 
ENDBRANCH  50  51
ENDBRANCH  48  50
ENDBRANCH  41  46
ENDBRANCH   1  41
TORSDOF 16
ENDMDL
MODEL 5
REMARK VINA RESULT:      -5.4      2.822      6.348
REMARK  Name = 
REMARK  23 active torsions:
REMARK  status: ('A' for Active; 'I' for Inactive)
REMARK    1  A    between atoms: C_1  and  C_2
REMARK    2  A    between atoms: C_2  and  C_3
REMARK    3  A    between atoms: C_2  and  C_4
REMARK    4  A    between atoms: C_2  and  C_5
REMARK    5  A    between atoms: C_5  and  C_7
REMARK    6  A    between atoms: C_5  and  N_49
REMARK    7  A    between atoms: C_11  and  O_34
REMARK    8  A    between atoms: C_14  and  C_16
REMARK    9  A    between atoms: C_16  and  C_18
REMARK   10  A    between atoms: C_18  and  C_19
REMARK   11  A    between atoms: C_19  and  C_25
REMARK   12  A    between atoms: C_21  and  C_23
REMARK   13  A    between atoms: N_27  and  S_28
REMARK   14  A    between atoms: S_28  and  C_31
REMARK   15  A    between atoms: O_34  and  C_35
REMARK   16  A    between atoms: C_38  and  O_47
REMARK   17  A    between atoms: C_42  and  C_45
REMARK   18  A    between atoms: O_47  and  C_48
REMARK   19  A    between atoms: C_50  and  O_52
REMARK   20  A    between atoms: O_52  and  C_53
REMARK   21  A    between atoms: C_53  and  C_54
REMARK   22  A    between atoms: C_53  and  C_55
REMARK   23  A    between atoms: C_53  and  C_56
REMARK                            x       y       z     vdW  Elec       q    Type
REMARK                         _______ _______ _______ _____ _____    ______ ____
ROOT
ATOM      1  C   UNL     1       8.179  -0.112  25.847  0.00  0.00    +0.237 C 
ATOM      2  N   UNL     1       6.865   0.102  25.446  0.00  0.00    -0.286 N 
ATOM      3  C   UNL     1       5.746   0.202  26.395  0.00  0.00    +0.146 C 
ATOM      4  C   UNL     1       4.585   0.805  25.586  0.00  0.00    +0.076 C 
ATOM      5  C   UNL     1       5.261   1.471  24.390  0.00  0.00    +0.195 C 
ATOM      6  C   UNL     1       6.429   0.529  24.117  0.00  0.00    +0.153 C 
ATOM      7  O   UNL     1       8.500   0.000  27.034  0.00  0.00    -0.274 OA
ENDROOT
BRANCH   3   8
ATOM      8  C   UNL     1       5.337  -1.207  26.865  0.00  0.00    +0.155 C 
ATOM      9  O   UNL     1       5.308  -1.537  28.054  0.00  0.00    -0.295 OA
BRANCH   8  10
ATOM     10  C   UNL     1       4.887  -2.187  25.814  0.00  0.00    +0.093 C 
BRANCH  10  11
ATOM     11  C   UNL     1       3.775  -3.098  26.292  0.00  0.00    +0.062 C 
ATOM     12  C   UNL     1       2.608  -2.370  26.948  0.00  0.00    +0.028 C 
ATOM     13  C   UNL     1       2.407  -3.014  25.614  0.00  0.00    +0.025 C 
BRANCH  11  14
ATOM     14  C   UNL     1       4.197  -4.484  26.698  0.00  0.00    +0.239 C 
ATOM     15  N   UNL     1       5.459  -4.554  27.292  0.00  0.00    -0.189 N 
ATOM     16  H   UNL     1       5.918  -3.710  27.619  0.00  0.00    +0.176 HD
ATOM     17  O   UNL     1       3.504  -5.459  26.460  0.00  0.00    -0.274 OA
BRANCH  15  18
ATOM     18  S   UNL     1       6.122  -5.937  27.918  0.00  0.00    +0.048 S 
ATOM     19  O   UNL     1       7.561  -5.794  27.868  0.00  0.00    -0.155 OA
ATOM     20  O   UNL     1       5.471  -7.017  27.204  0.00  0.00    -0.155 OA
BRANCH  18  21
ATOM     21  C   UNL     1       5.685  -6.073  29.675  0.00  0.00    +0.151 C 
ATOM     22  C   UNL     1       4.223  -6.326  29.948  0.00  0.00    +0.030 C 
ATOM     23  C   UNL     1       4.816  -4.972  30.221  0.00  0.00    +0.030 C 
ENDBRANCH  18  21
ENDBRANCH  15  18
ENDBRANCH  11  14
BRANCH  12  24
ATOM     24  C   UNL     1       1.947  -2.903  28.138  0.00  0.00    -0.030 C 
ATOM     25  C   UNL     1       0.845  -3.665  28.114  0.00  0.00    +0.004 C 
ENDBRANCH  12  24
ENDBRANCH  10  11
ENDBRANCH   8  10
ENDBRANCH   3   8
BRANCH   5  26
ATOM     26  O   UNL     1       5.825   2.733  24.730  0.00  0.00    -0.471 OA
BRANCH  26  27
ATOM     27  C   UNL     1       5.330   3.791  23.998  0.00  0.00    +0.223 A 
ATOM     28  C   UNL     1       6.256   4.753  23.583  0.00  0.00    +0.047 A 
ATOM     29  C   UNL     1       7.638   4.638  23.851  0.00  0.00    +0.018 A 
ATOM     30  C   UNL     1       8.547   5.617  23.437  0.00  0.00    -0.037 A 
ATOM     31  C   UNL     1       8.055   6.734  22.761  0.00  0.00    +0.005 A 
ATOM     32  C   UNL     1       6.686   6.854  22.483  0.00  0.00    +0.012 A 
ATOM     33  C   UNL     1       5.758   5.869  22.883  0.00  0.00    +0.030 A 
ATOM     34  C   UNL     1       4.366   5.952  22.629  0.00  0.00    +0.146 A 
ATOM     35  C   UNL     1       3.553   4.926  23.099  0.00  0.00    +0.160 A 
ATOM     36  N   UNL     1       4.002   3.847  23.770  0.00  0.00    -0.217 NA
BRANCH  34  37
ATOM     37  O   UNL     1       3.916   7.046  21.936  0.00  0.00    -0.493 OA
ATOM     38  C   UNL     1       2.798   6.849  21.076  0.00  0.00    +0.277 C 
ENDBRANCH  34  37
BRANCH  30  39
ATOM     39  C   UNL     1      10.017   5.454  23.734  0.00  0.00    +0.109 C 
ATOM     40  I   UNL     1      10.610   6.743  25.317  0.00  0.00    -0.080 I 
ENDBRANCH  30  39
ENDBRANCH  26  27
ENDBRANCH   5  26
BRANCH   1  41
ATOM     41  C   UNL     1       9.175  -0.733  24.796  0.00  0.00    +0.168 C 
BRANCH  41  43
ATOM     42  C   UNL     1       9.447   1.836  24.489  0.00  0.00    +0.013 C 
ATOM     43  C   UNL     1       9.964   0.442  24.085  0.00  0.00    -0.011 C 
ATOM     44  C   UNL     1      11.448   0.455  24.489  0.00  0.00    +0.013 C 
ATOM     45  C   UNL     1       9.854   0.327  22.549  0.00  0.00    +0.013 C 
ENDBRANCH  41  43
BRANCH  41  46
ATOM     46  N   UNL     1       8.462  -1.592  23.807  0.00  0.00    -0.269 N 
ATOM     47  H   UNL     1       7.713  -1.186  23.259  0.00  0.00    +0.153 HD
ATOM     48  C   UNL     1       8.846  -2.878  23.494  0.00  0.00    +0.401 C 
ATOM     49  O   UNL     1       9.722  -3.480  24.097  0.00  0.00    -0.226 OA
BRANCH  48  50
ATOM     50  O   UNL     1       8.155  -3.371  22.422  0.00  0.00    -0.445 OA
BRANCH  50  51
ATOM     51  C   UNL     1       6.974  -4.227  22.612  0.00  0.00    +0.107 C 
ATOM     52  C   UNL     1       6.917  -5.384  21.602  0.00  0.00    +0.055 C 
ATOM     53  C   UNL     1       5.736  -3.344  22.356  0.00  0.00    +0.055 C 
ATOM     54  C   UNL     1       6.875  -4.751  24.052  0.00  0.00    +0.055 C 
ENDBRANCH  50  51
ENDBRANCH  48  50
ENDBRANCH  41  46
ENDBRANCH   1  41
TORSDOF 16
ENDMDL
MODEL 6
REMARK VINA RESULT:      -5.4      2.399      5.607
REMARK  Name = 
REMARK  23 active torsions:
REMARK  status: ('A' for Active; 'I' for Inactive)
REMARK    1  A    between atoms: C_1  and  C_2
REMARK    2  A    between atoms: C_2  and  C_3
REMARK    3  A    between atoms: C_2  and  C_4
REMARK    4  A    between atoms: C_2  and  C_5
REMARK    5  A    between atoms: C_5  and  C_7
REMARK    6  A    between atoms: C_5  and  N_49
REMARK    7  A    between atoms: C_11  and  O_34
REMARK    8  A    between atoms: C_14  and  C_16
REMARK    9  A    between atoms: C_16  and  C_18
REMARK   10  A    between atoms: C_18  and  C_19
REMARK   11  A    between atoms: C_19  and  C_25
REMARK   12  A    between atoms: C_21  and  C_23
REMARK   13  A    between atoms: N_27  and  S_28
REMARK   14  A    between atoms: S_28  and  C_31
REMARK   15  A    between atoms: O_34  and  C_35
REMARK   16  A    between atoms: C_38  and  O_47
REMARK   17  A    between atoms: C_42  and  C_45
REMARK   18  A    between atoms: O_47  and  C_48
REMARK   19  A    between atoms: C_50  and  O_52
REMARK   20  A    between atoms: O_52  and  C_53
REMARK   21  A    between atoms: C_53  and  C_54
REMARK   22  A    between atoms: C_53  and  C_55
REMARK   23  A    between atoms: C_53  and  C_56
REMARK                            x       y       z     vdW  Elec       q    Type
REMARK                         _______ _______ _______ _____ _____    ______ ____
ROOT
ATOM      1  C   UNL     1       7.897   0.565  25.039  0.00  0.00    +0.237 C 
ATOM      2  N   UNL     1       6.711   0.068  25.569  0.00  0.00    -0.286 N 
ATOM      3  C   UNL     1       6.637  -0.595  26.879  0.00  0.00    +0.146 C 
ATOM      4  C   UNL     1       5.139  -0.633  27.226  0.00  0.00    +0.076 C 
ATOM      5  C   UNL     1       4.517   0.449  26.345  0.00  0.00    +0.195 C 
ATOM      6  C   UNL     1       5.363   0.356  25.080  0.00  0.00    +0.153 C 
ATOM      7  O   UNL     1       8.904   0.677  25.747  0.00  0.00    -0.274 OA
ENDROOT
BRANCH   3   8
ATOM      8  C   UNL     1       7.149  -2.043  26.758  0.00  0.00    +0.155 C 
ATOM      9  O   UNL     1       8.306  -2.321  26.426  0.00  0.00    -0.295 OA
BRANCH   8  10
ATOM     10  C   UNL     1       6.200  -3.150  27.134  0.00  0.00    +0.093 C 
BRANCH  10  11
ATOM     11  C   UNL     1       6.586  -4.487  26.536  0.00  0.00    +0.062 C 
ATOM     12  C   UNL     1       8.058  -4.844  26.699  0.00  0.00    +0.028 C 
ATOM     13  C   UNL     1       7.034  -5.613  27.470  0.00  0.00    +0.025 C 
BRANCH  11  14
ATOM     14  C   UNL     1       5.770  -4.932  25.353  0.00  0.00    +0.239 C 
ATOM     15  N   UNL     1       5.751  -4.028  24.289  0.00  0.00    -0.189 N 
ATOM     16  H   UNL     1       6.421  -3.266  24.254  0.00  0.00    +0.176 HD
ATOM     17  O   UNL     1       5.135  -5.973  25.369  0.00  0.00    -0.274 OA
BRANCH  15  18
ATOM     18  S   UNL     1       5.014  -4.311  22.833  0.00  0.00    +0.048 S 
ATOM     19  O   UNL     1       5.398  -3.246  21.933  0.00  0.00    -0.155 OA
ATOM     20  O   UNL     1       3.617  -4.521  23.160  0.00  0.00    -0.155 OA
BRANCH  18  21
ATOM     21  C   UNL     1       5.668  -5.845  22.116  0.00  0.00    +0.151 C 
ATOM     22  C   UNL     1       7.173  -5.939  22.080  0.00  0.00    +0.030 C 
ATOM     23  C   UNL     1       6.403  -5.697  20.811  0.00  0.00    +0.030 C 
ENDBRANCH  18  21
ENDBRANCH  15  18
ENDBRANCH  11  14
BRANCH  12  24
ATOM     24  C   UNL     1       8.813  -5.484  25.624  0.00  0.00    -0.030 C 
ATOM     25  C   UNL     1       9.799  -4.895  24.935  0.00  0.00    +0.004 C 
ENDBRANCH  12  24
ENDBRANCH  10  11
ENDBRANCH   8  10
ENDBRANCH   3   8
BRANCH   5  26
ATOM     26  O   UNL     1       4.720   1.753  26.877  0.00  0.00    -0.471 OA
BRANCH  26  27
ATOM     27  C   UNL     1       3.998   2.742  26.246  0.00  0.00    +0.223 A 
ATOM     28  C   UNL     1       4.294   4.060  26.604  0.00  0.00    +0.047 A 
ATOM     29  C   UNL     1       5.311   4.382  27.531  0.00  0.00    +0.018 A 
ATOM     30  C   UNL     1       5.586   5.706  27.885  0.00  0.00    -0.037 A 
ATOM     31  C   UNL     1       4.813   6.719  27.313  0.00  0.00    +0.005 A 
ATOM     32  C   UNL     1       3.806   6.411  26.387  0.00  0.00    +0.012 A 
ATOM     33  C   UNL     1       3.526   5.080  26.009  0.00  0.00    +0.030 A 
ATOM     34  C   UNL     1       2.515   4.723  25.083  0.00  0.00    +0.146 A 
ATOM     35  C   UNL     1       2.321   3.372  24.814  0.00  0.00    +0.160 A 
ATOM     36  N   UNL     1       3.041   2.376  25.368  0.00  0.00    -0.217 NA
BRANCH  34  37
ATOM     37  O   UNL     1       1.793   5.741  24.514  0.00  0.00    -0.493 OA
ATOM     38  C   UNL     1       1.303   5.523  23.194  0.00  0.00    +0.277 C 
ENDBRANCH  34  37
BRANCH  30  39
ATOM     39  C   UNL     1       6.685   6.011  28.871  0.00  0.00    +0.109 C 
ATOM     40  I   UNL     1       6.849   4.461  30.316  0.00  0.00    -0.080 I 
ENDBRANCH  30  39
ENDBRANCH  26  27
ENDBRANCH   5  26
BRANCH   1  41
ATOM     41  C   UNL     1       7.985   0.745  23.476  0.00  0.00    +0.168 C 
BRANCH  41  43
ATOM     42  C   UNL     1       9.383  -0.009  21.415  0.00  0.00    +0.013 C 
ATOM     43  C   UNL     1       9.101  -0.229  22.914  0.00  0.00    -0.011 C 
ATOM     44  C   UNL     1      10.458   0.011  23.596  0.00  0.00    +0.013 C 
ATOM     45  C   UNL     1       8.688  -1.705  23.104  0.00  0.00    +0.013 C 
ENDBRANCH  41  43
BRANCH  41  46
ATOM     46  N   UNL     1       8.254   2.162  23.102  0.00  0.00    -0.269 N 
ATOM     47  H   UNL     1       9.201   2.514  23.174  0.00  0.00    +0.153 HD
ATOM     48  C   UNL     1       7.314   2.995  22.536  0.00  0.00    +0.401 C 
ATOM     49  O   UNL     1       6.137   2.691  22.414  0.00  0.00    -0.226 OA
BRANCH  48  50
ATOM     50  O   UNL     1       7.865   4.170  22.106  0.00  0.00    -0.445 OA
BRANCH  50  51
ATOM     51  C   UNL     1       7.636   5.425  22.839  0.00  0.00    +0.107 C 
ATOM     52  C   UNL     1       7.070   6.537  21.941  0.00  0.00    +0.055 C 
ATOM     53  C   UNL     1       9.013   5.907  23.339  0.00  0.00    +0.055 C 
ATOM     54  C   UNL     1       6.748   5.211  24.072  0.00  0.00    +0.055 C 
ENDBRANCH  50  51
ENDBRANCH  48  50
ENDBRANCH  41  46
ENDBRANCH   1  41
TORSDOF 16
ENDMDL
MODEL 7
REMARK VINA RESULT:      -5.4      3.129      8.887
REMARK  Name = 
REMARK  23 active torsions:
REMARK  status: ('A' for Active; 'I' for Inactive)
REMARK    1  A    between atoms: C_1  and  C_2
REMARK    2  A    between atoms: C_2  and  C_3
REMARK    3  A    between atoms: C_2  and  C_4
REMARK    4  A    between atoms: C_2  and  C_5
REMARK    5  A    between atoms: C_5  and  C_7
REMARK    6  A    between atoms: C_5  and  N_49
REMARK    7  A    between atoms: C_11  and  O_34
REMARK    8  A    between atoms: C_14  and  C_16
REMARK    9  A    between atoms: C_16  and  C_18
REMARK   10  A    between atoms: C_18  and  C_19
REMARK   11  A    between atoms: C_19  and  C_25
REMARK   12  A    between atoms: C_21  and  C_23
REMARK   13  A    between atoms: N_27  and  S_28
REMARK   14  A    between atoms: S_28  and  C_31
REMARK   15  A    between atoms: O_34  and  C_35
REMARK   16  A    between atoms: C_38  and  O_47
REMARK   17  A    between atoms: C_42  and  C_45
REMARK   18  A    between atoms: O_47  and  C_48
REMARK   19  A    between atoms: C_50  and  O_52
REMARK   20  A    between atoms: O_52  and  C_53
REMARK   21  A    between atoms: C_53  and  C_54
REMARK   22  A    between atoms: C_53  and  C_55
REMARK   23  A    between atoms: C_53  and  C_56
REMARK                            x       y       z     vdW  Elec       q    Type
REMARK                         _______ _______ _______ _____ _____    ______ ____
ROOT
ATOM      1  C   UNL     1       6.097  -1.829  24.244  0.00  0.00    +0.237 C 
ATOM      2  N   UNL     1       6.319  -0.606  24.868  0.00  0.00    -0.286 N 
ATOM      3  C   UNL     1       6.730   0.601  24.136  0.00  0.00    +0.146 C 
ATOM      4  C   UNL     1       6.492   1.765  25.114  0.00  0.00    +0.076 C 
ATOM      5  C   UNL     1       5.499   1.208  26.132  0.00  0.00    +0.195 C 
ATOM      6  C   UNL     1       5.928  -0.252  26.232  0.00  0.00    +0.153 C 
ATOM      7  O   UNL     1       6.012  -1.901  23.014  0.00  0.00    -0.274 OA
ENDROOT
BRANCH   3   8
ATOM      8  C   UNL     1       8.236   0.528  23.819  0.00  0.00    +0.155 C 
ATOM      9  O   UNL     1       8.725  -0.325  23.073  0.00  0.00    -0.295 OA
BRANCH   8  10
ATOM     10  C   UNL     1       9.122   1.599  24.399  0.00  0.00    +0.093 C 
BRANCH  10  11
ATOM     11  C   UNL     1       9.553   2.628  23.376  0.00  0.00    +0.062 C 
ATOM     12  C   UNL     1      11.020   3.029  23.471  0.00  0.00    +0.028 C 
ATOM     13  C   UNL     1      10.560   2.223  22.298  0.00  0.00    +0.025 C 
BRANCH  11  14
ATOM     14  C   UNL     1       8.481   3.579  22.916  0.00  0.00    +0.239 C 
ATOM     15  N   UNL     1       8.447   4.792  23.608  0.00  0.00    -0.189 N 
ATOM     16  H   UNL     1       9.228   5.068  24.194  0.00  0.00    +0.176 HD
ATOM     17  O   UNL     1       7.679   3.270  22.051  0.00  0.00    -0.274 OA
BRANCH  15  18
ATOM     18  S   UNL     1       7.434   6.050  23.240  0.00  0.00    +0.048 S 
ATOM     19  O   UNL     1       7.505   6.267  21.812  0.00  0.00    -0.155 OA
ATOM     20  O   UNL     1       7.809   7.108  24.157  0.00  0.00    -0.155 OA
BRANCH  18  21
ATOM     21  C   UNL     1       5.720   5.568  23.599  0.00  0.00    +0.151 C 
ATOM     22  C   UNL     1       4.779   6.717  23.861  0.00  0.00    +0.030 C 
ATOM     23  C   UNL     1       5.240   5.847  24.998  0.00  0.00    +0.030 C 
ENDBRANCH  18  21
ENDBRANCH  15  18
ENDBRANCH  11  14
BRANCH  12  24
ATOM     24  C   UNL     1      11.446   4.416  23.296  0.00  0.00    -0.030 C 
ATOM     25  C   UNL     1      12.723   4.821  23.290  0.00  0.00    +0.004 C 
ENDBRANCH  12  24
ENDBRANCH  10  11
ENDBRANCH   8  10
ENDBRANCH   3   8
BRANCH   5  26
ATOM     26  O   UNL     1       4.166   1.208  25.633  0.00  0.00    -0.471 OA
BRANCH  26  27
ATOM     27  C   UNL     1       3.366   2.203  26.152  0.00  0.00    +0.223 A 
ATOM     28  C   UNL     1       2.803   3.096  25.237  0.00  0.00    +0.047 A 
ATOM     29  C   UNL     1       2.998   2.973  23.843  0.00  0.00    +0.018 A 
ATOM     30  C   UNL     1       2.437   3.884  22.942  0.00  0.00    -0.037 A 
ATOM     31  C   UNL     1       1.685   4.944  23.455  0.00  0.00    +0.005 A 
ATOM     32  C   UNL     1       1.480   5.071  24.836  0.00  0.00    +0.012 A 
ATOM     33  C   UNL     1       2.029   4.152  25.756  0.00  0.00    +0.030 A 
ATOM     34  C   UNL     1       1.853   4.245  27.158  0.00  0.00    +0.146 A 
ATOM     35  C   UNL     1       2.468   3.289  27.961  0.00  0.00    +0.160 A 
ATOM     36  N   UNL     1       3.213   2.270  27.491  0.00  0.00    -0.217 NA
BRANCH  34  37
ATOM     37  O   UNL     1       1.084   5.278  27.630  0.00  0.00    -0.493 OA
ATOM     38  C   UNL     1       1.740   6.255  28.433  0.00  0.00    +0.277 C 
ENDBRANCH  34  37
BRANCH  30  39
ATOM     39  C   UNL     1       2.659   3.715  21.461  0.00  0.00    +0.109 C 
ATOM     40  I   UNL     1       1.096   2.564  20.594  0.00  0.00    -0.080 I 
ENDBRANCH  30  39
ENDBRANCH  26  27
ENDBRANCH   5  26
BRANCH   1  41
ATOM     41  C   UNL     1       6.203  -3.132  25.125  0.00  0.00    +0.168 C 
BRANCH  41  43
ATOM     42  C   UNL     1       8.047  -3.981  23.497  0.00  0.00    +0.013 C 
ATOM     43  C   UNL     1       7.659  -3.736  24.967  0.00  0.00    -0.011 C 
ATOM     44  C   UNL     1       8.734  -2.767  25.488  0.00  0.00    +0.013 C 
ATOM     45  C   UNL     1       7.779  -5.081  25.716  0.00  0.00    +0.013 C 
ENDBRANCH  41  43
BRANCH  41  46
ATOM     46  N   UNL     1       5.154  -4.126  24.760  0.00  0.00    -0.269 N 
ATOM     47  H   UNL     1       5.339  -4.774  24.003  0.00  0.00    +0.153 HD
ATOM     48  C   UNL     1       3.991  -4.309  25.475  0.00  0.00    +0.401 C 
ATOM     49  O   UNL     1       3.650  -3.579  26.395  0.00  0.00    -0.226 OA
BRANCH  48  50
ATOM     50  O   UNL     1       3.298  -5.409  25.053  0.00  0.00    -0.445 OA
BRANCH  50  51
ATOM     51  C   UNL     1       3.236  -6.626  25.879  0.00  0.00    +0.107 C 
ATOM     52  C   UNL     1       4.554  -6.902  26.620  0.00  0.00    +0.055 C 
ATOM     53  C   UNL     1       3.005  -7.808  24.915  0.00  0.00    +0.055 C 
ATOM     54  C   UNL     1       2.054  -6.592  26.857  0.00  0.00    +0.055 C 
ENDBRANCH  50  51
ENDBRANCH  48  50
ENDBRANCH  41  46
ENDBRANCH   1  41
TORSDOF 16
ENDMDL
MODEL 8
REMARK VINA RESULT:      -5.4      2.445      5.662
REMARK  Name = 
REMARK  23 active torsions:
REMARK  status: ('A' for Active; 'I' for Inactive)
REMARK    1  A    between atoms: C_1  and  C_2
REMARK    2  A    between atoms: C_2  and  C_3
REMARK    3  A    between atoms: C_2  and  C_4
REMARK    4  A    between atoms: C_2  and  C_5
REMARK    5  A    between atoms: C_5  and  C_7
REMARK    6  A    between atoms: C_5  and  N_49
REMARK    7  A    between atoms: C_11  and  O_34
REMARK    8  A    between atoms: C_14  and  C_16
REMARK    9  A    between atoms: C_16  and  C_18
REMARK   10  A    between atoms: C_18  and  C_19
REMARK   11  A    between atoms: C_19  and  C_25
REMARK   12  A    between atoms: C_21  and  C_23
REMARK   13  A    between atoms: N_27  and  S_28
REMARK   14  A    between atoms: S_28  and  C_31
REMARK   15  A    between atoms: O_34  and  C_35
REMARK   16  A    between atoms: C_38  and  O_47
REMARK   17  A    between atoms: C_42  and  C_45
REMARK   18  A    between atoms: O_47  and  C_48
REMARK   19  A    between atoms: C_50  and  O_52
REMARK   20  A    between atoms: O_52  and  C_53
REMARK   21  A    between atoms: C_53  and  C_54
REMARK   22  A    between atoms: C_53  and  C_55
REMARK   23  A    between atoms: C_53  and  C_56
REMARK                            x       y       z     vdW  Elec       q    Type
REMARK                         _______ _______ _______ _____ _____    ______ ____
ROOT
ATOM      1  C   UNL     1       8.157   0.344  25.275  0.00  0.00    +0.237 C 
ATOM      2  N   UNL     1       7.055  -0.442  25.594  0.00  0.00    -0.286 N 
ATOM      3  C   UNL     1       7.090  -1.482  26.632  0.00  0.00    +0.146 C 
ATOM      4  C   UNL     1       5.615  -1.821  26.911  0.00  0.00    +0.076 C 
ATOM      5  C   UNL     1       4.843  -0.609  26.392  0.00  0.00    +0.195 C 
ATOM      6  C   UNL     1       5.674  -0.195  25.183  0.00  0.00    +0.153 C 
ATOM      7  O   UNL     1       9.151   0.361  26.009  0.00  0.00    -0.274 OA
ENDROOT
BRANCH   3   8
ATOM      8  C   UNL     1       7.786  -2.742  26.083  0.00  0.00    +0.155 C 
ATOM      9  O   UNL     1       8.419  -3.526  26.797  0.00  0.00    -0.295 OA
BRANCH   8  10
ATOM     10  C   UNL     1       7.613  -3.049  24.618  0.00  0.00    +0.093 C 
BRANCH  10  11
ATOM     11  C   UNL     1       7.203  -4.484  24.360  0.00  0.00    +0.062 C 
ATOM     12  C   UNL     1       7.521  -4.983  22.956  0.00  0.00    +0.028 C 
ATOM     13  C   UNL     1       8.289  -5.532  24.116  0.00  0.00    +0.025 C 
BRANCH  11  14
ATOM     14  C   UNL     1       6.015  -4.973  25.145  0.00  0.00    +0.239 C 
ATOM     15  N   UNL     1       6.332  -5.834  26.197  0.00  0.00    -0.189 N 
ATOM     16  H   UNL     1       7.290  -5.914  26.522  0.00  0.00    +0.176 HD
ATOM     17  O   UNL     1       4.875  -4.678  24.830  0.00  0.00    -0.274 OA
BRANCH  15  18
ATOM     18  S   UNL     1       5.229  -6.438  27.276  0.00  0.00    +0.048 S 
ATOM     19  O   UNL     1       5.961  -7.163  28.291  0.00  0.00    -0.155 OA
ATOM     20  O   UNL     1       4.246  -7.122  26.458  0.00  0.00    -0.155 OA
BRANCH  18  21
ATOM     21  C   UNL     1       4.403  -5.063  28.127  0.00  0.00    +0.151 C 
ATOM     22  C   UNL     1       3.301  -5.471  29.072  0.00  0.00    +0.030 C 
ATOM     23  C   UNL     1       2.964  -4.831  27.754  0.00  0.00    +0.030 C 
ENDBRANCH  18  21
ENDBRANCH  15  18
ENDBRANCH  11  14
BRANCH  12  24
ATOM     24  C   UNL     1       6.587  -5.830  22.216  0.00  0.00    -0.030 C 
ATOM     25  C   UNL     1       6.225  -5.626  20.943  0.00  0.00    +0.004 C 
ENDBRANCH  12  24
ENDBRANCH  10  11
ENDBRANCH   8  10
ENDBRANCH   3   8
BRANCH   5  26
ATOM     26  O   UNL     1       4.881   0.480  27.307  0.00  0.00    -0.471 OA
BRANCH  26  27
ATOM     27  C   UNL     1       3.857   1.390  27.148  0.00  0.00    +0.223 A 
ATOM     28  C   UNL     1       4.105   2.694  27.586  0.00  0.00    +0.047 A 
ATOM     29  C   UNL     1       5.350   3.088  28.124  0.00  0.00    +0.018 A 
ATOM     30  C   UNL     1       5.575   4.395  28.568  0.00  0.00    -0.037 A 
ATOM     31  C   UNL     1       4.526   5.312  28.485  0.00  0.00    +0.005 A 
ATOM     32  C   UNL     1       3.288   4.933  27.946  0.00  0.00    +0.012 A 
ATOM     33  C   UNL     1       3.050   3.622  27.483  0.00  0.00    +0.030 A 
ATOM     34  C   UNL     1       1.814   3.194  26.937  0.00  0.00    +0.146 A 
ATOM     35  C   UNL     1       1.699   1.866  26.539  0.00  0.00    +0.160 A 
ATOM     36  N   UNL     1       2.691   0.958  26.626  0.00  0.00    -0.217 NA
BRANCH  34  37
ATOM     37  O   UNL     1       0.812   4.125  26.840  0.00  0.00    -0.493 OA
ATOM     38  C   UNL     1       0.443   4.540  25.528  0.00  0.00    +0.277 C 
ENDBRANCH  34  37
BRANCH  30  39
ATOM     39  C   UNL     1       6.922   4.780  29.127  0.00  0.00    +0.109 C 
ATOM     40  I   UNL     1       7.181   6.889  29.075  0.00  0.00    -0.080 I 
ENDBRANCH  30  39
ENDBRANCH  26  27
ENDBRANCH   5  26
BRANCH   1  41
ATOM     41  C   UNL     1       8.196   1.009  23.847  0.00  0.00    +0.168 C 
BRANCH  41  43
ATOM     42  C   UNL     1      10.687   1.729  23.630  0.00  0.00    +0.013 C 
ATOM     43  C   UNL     1       9.608   0.721  23.189  0.00  0.00    -0.011 C 
ATOM     44  C   UNL     1      10.166  -0.646  23.621  0.00  0.00    +0.013 C 
ATOM     45  C   UNL     1       9.517   0.772  21.649  0.00  0.00    +0.013 C 
ENDBRANCH  41  43
BRANCH  41  46
ATOM     46  N   UNL     1       7.910   2.471  23.916  0.00  0.00    -0.269 N 
ATOM     47  H   UNL     1       8.417   3.035  24.587  0.00  0.00    +0.153 HD
ATOM     48  C   UNL     1       7.090   3.132  23.028  0.00  0.00    +0.401 C 
ATOM     49  O   UNL     1       6.414   2.558  22.187  0.00  0.00    -0.226 OA
BRANCH  48  50
ATOM     50  O   UNL     1       7.155   4.489  23.186  0.00  0.00    -0.445 OA
BRANCH  50  51
ATOM     51  C   UNL     1       6.129   5.210  23.956  0.00  0.00    +0.107 C 
ATOM     52  C   UNL     1       5.623   6.467  23.230  0.00  0.00    +0.055 C 
ATOM     53  C   UNL     1       6.801   5.682  25.262  0.00  0.00    +0.055 C 
ATOM     54  C   UNL     1       4.960   4.294  24.346  0.00  0.00    +0.055 C 
ENDBRANCH  50  51
ENDBRANCH  48  50
ENDBRANCH  41  46
ENDBRANCH   1  41
TORSDOF 16
ENDMDL
MODEL 9
REMARK VINA RESULT:      -5.3      1.870      2.448
REMARK  Name = 
REMARK  23 active torsions:
REMARK  status: ('A' for Active; 'I' for Inactive)
REMARK    1  A    between atoms: C_1  and  C_2
REMARK    2  A    between atoms: C_2  and  C_3
REMARK    3  A    between atoms: C_2  and  C_4
REMARK    4  A    between atoms: C_2  and  C_5
REMARK    5  A    between atoms: C_5  and  C_7
REMARK    6  A    between atoms: C_5  and  N_49
REMARK    7  A    between atoms: C_11  and  O_34
REMARK    8  A    between atoms: C_14  and  C_16
REMARK    9  A    between atoms: C_16  and  C_18
REMARK   10  A    between atoms: C_18  and  C_19
REMARK   11  A    between atoms: C_19  and  C_25
REMARK   12  A    between atoms: C_21  and  C_23
REMARK   13  A    between atoms: N_27  and  S_28
REMARK   14  A    between atoms: S_28  and  C_31
REMARK   15  A    between atoms: O_34  and  C_35
REMARK   16  A    between atoms: C_38  and  O_47
REMARK   17  A    between atoms: C_42  and  C_45
REMARK   18  A    between atoms: O_47  and  C_48
REMARK   19  A    between atoms: C_50  and  O_52
REMARK   20  A    between atoms: O_52  and  C_53
REMARK   21  A    between atoms: C_53  and  C_54
REMARK   22  A    between atoms: C_53  and  C_55
REMARK   23  A    between atoms: C_53  and  C_56
REMARK                            x       y       z     vdW  Elec       q    Type
REMARK                         _______ _______ _______ _____ _____    ______ ____
ROOT
ATOM      1  C   UNL     1       7.101   1.102  25.033  0.00  0.00    +0.237 C 
ATOM      2  N   UNL     1       8.233   0.603  24.398  0.00  0.00    -0.286 N 
ATOM      3  C   UNL     1       8.168  -0.349  23.280  0.00  0.00    +0.146 C 
ATOM      4  C   UNL     1       9.573  -0.333  22.653  0.00  0.00    +0.076 C 
ATOM      5  C   UNL     1      10.184   0.984  23.128  0.00  0.00    +0.195 C 
ATOM      6  C   UNL     1       9.593   1.125  24.527  0.00  0.00    +0.153 C 
ATOM      7  O   UNL     1       5.981   0.944  24.537  0.00  0.00    -0.274 OA
ENDROOT
BRANCH   3   8
ATOM      8  C   UNL     1       7.889  -1.765  23.820  0.00  0.00    +0.155 C 
ATOM      9  O   UNL     1       7.442  -1.977  24.951  0.00  0.00    -0.295 OA
BRANCH   8  10
ATOM     10  C   UNL     1       8.114  -2.924  22.884  0.00  0.00    +0.093 C 
BRANCH  10  11
ATOM     11  C   UNL     1       7.196  -4.096  23.164  0.00  0.00    +0.062 C 
ATOM     12  C   UNL     1       7.628  -5.400  22.505  0.00  0.00    +0.028 C 
ATOM     13  C   UNL     1       7.725  -5.268  23.991  0.00  0.00    +0.025 C 
BRANCH  11  14
ATOM     14  C   UNL     1       5.752  -3.749  23.406  0.00  0.00    +0.239 C 
ATOM     15  N   UNL     1       5.244  -4.202  24.625  0.00  0.00    -0.189 N 
ATOM     16  H   UNL     1       5.874  -4.523  25.354  0.00  0.00    +0.176 HD
ATOM     17  O   UNL     1       5.083  -3.173  22.565  0.00  0.00    -0.274 OA
BRANCH  15  18
ATOM     18  S   UNL     1       3.719  -3.875  25.182  0.00  0.00    +0.048 S 
ATOM     19  O   UNL     1       2.783  -4.593  24.345  0.00  0.00    -0.155 OA
ATOM     20  O   UNL     1       3.658  -2.430  25.271  0.00  0.00    -0.155 OA
BRANCH  18  21
ATOM     21  C   UNL     1       3.531  -4.556  26.855  0.00  0.00    +0.151 C 
ATOM     22  C   UNL     1       4.005  -5.978  27.020  0.00  0.00    +0.030 C 
ATOM     23  C   UNL     1       2.533  -5.673  27.000  0.00  0.00    +0.030 C 
ENDBRANCH  18  21
ENDBRANCH  15  18
ENDBRANCH  11  14
BRANCH  12  24
ATOM     24  C   UNL     1       6.656  -6.310  21.902  0.00  0.00    -0.030 C 
ATOM     25  C   UNL     1       6.046  -6.097  20.728  0.00  0.00    +0.004 C 
ENDBRANCH  12  24
ENDBRANCH  10  11
ENDBRANCH   8  10
ENDBRANCH   3   8
BRANCH   5  26
ATOM     26  O   UNL     1       9.713   2.095  22.373  0.00  0.00    -0.471 OA
BRANCH  26  27
ATOM     27  C   UNL     1       9.930   3.319  22.968  0.00  0.00    +0.223 A 
ATOM     28  C   UNL     1       8.809   4.132  23.156  0.00  0.00    +0.047 A 
ATOM     29  C   UNL     1       7.506   3.716  22.801  0.00  0.00    +0.018 A 
ATOM     30  C   UNL     1       6.397   4.548  22.987  0.00  0.00    -0.037 A 
ATOM     31  C   UNL     1       6.607   5.822  23.518  0.00  0.00    +0.005 A 
ATOM     32  C   UNL     1       7.895   6.241  23.881  0.00  0.00    +0.012 A 
ATOM     33  C   UNL     1       9.022   5.408  23.711  0.00  0.00    +0.030 A 
ATOM     34  C   UNL     1      10.341   5.793  24.057  0.00  0.00    +0.146 A 
ATOM     35  C   UNL     1      11.370   4.888  23.817  0.00  0.00    +0.160 A 
ATOM     36  N   UNL     1      11.195   3.661  23.288  0.00  0.00    -0.217 NA
BRANCH  34  37
ATOM     37  O   UNL     1      10.512   7.038  24.606  0.00  0.00    -0.493 OA
ATOM     38  C   UNL     1      11.182   7.102  25.861  0.00  0.00    +0.277 C 
ENDBRANCH  34  37
BRANCH  30  39
ATOM     39  C   UNL     1       5.020   4.066  22.605  0.00  0.00    +0.109 C 
ATOM     40  I   UNL     1       3.702   4.164  24.269  0.00  0.00    -0.080 I 
ENDBRANCH  30  39
ENDBRANCH  26  27
ENDBRANCH   5  26
BRANCH   1  41
ATOM     41  C   UNL     1       7.265   1.649  26.502  0.00  0.00    +0.168 C 
BRANCH  41  43
ATOM     42  C   UNL     1       5.725  -0.323  27.217  0.00  0.00    +0.013 C 
ATOM     43  C   UNL     1       7.018   0.459  27.518  0.00  0.00    -0.011 C 
ATOM     44  C   UNL     1       8.131  -0.599  27.433  0.00  0.00    +0.013 C 
ATOM     45  C   UNL     1       6.923   0.985  28.967  0.00  0.00    +0.013 C 
ENDBRANCH  41  43
BRANCH  41  46
ATOM     46  N   UNL     1       6.349   2.795  26.765  0.00  0.00    -0.269 N 
ATOM     47  H   UNL     1       5.366   2.606  26.924  0.00  0.00    +0.153 HD
ATOM     48  C   UNL     1       6.777   4.093  26.937  0.00  0.00    +0.401 C 
ATOM     49  O   UNL     1       7.933   4.446  26.753  0.00  0.00    -0.226 OA
BRANCH  48  50
ATOM     50  O   UNL     1       5.768   4.912  27.362  0.00  0.00    -0.445 OA
BRANCH  50  51
ATOM     51  C   UNL     1       5.404   4.986  28.785  0.00  0.00    +0.107 C 
ATOM     52  C   UNL     1       4.270   4.016  29.154  0.00  0.00    +0.055 C 
ATOM     53  C   UNL     1       4.876   6.414  29.037  0.00  0.00    +0.055 C 
ATOM     54  C   UNL     1       6.622   4.779  29.697  0.00  0.00    +0.055 C 
ENDBRANCH  50  51
ENDBRANCH  48  50
ENDBRANCH  41  46
ENDBRANCH   1  41
TORSDOF 16
ENDMDL
