MODEL 1
REMARK VINA RESULT:      -6.5      0.000      0.000
REMARK  Name = 
REMARK  11 active torsions:
REMARK  status: ('A' for Active; 'I' for Inactive)
REMARK    1  A    between atoms: C_1  and  C_2
REMARK    2  A    between atoms: N_4  and  C_5
REMARK    3  A    between atoms: C_6  and  C_20
REMARK    4  A    between atoms: C_8  and  C_17
REMARK    5  A    between atoms: N_11  and  C_12
REMARK    6  A    between atoms: C_17  and  O_19
REMARK    7  A    between atoms: C_20  and  C_22
REMARK    8  A    between atoms: C_20  and  O_27
REMARK    9  A    between atoms: C_22  and  C_24
REMARK   10  A    between atoms: C_22  and  O_26
REMARK   11  A    between atoms: C_24  and  O_25
REMARK                            x       y       z     vdW  Elec       q    Type
REMARK                         _______ _______ _______ _____ _____    ______ ____
ROOT
ATOM      1  C   UNL     1       8.084  -2.013  23.991  0.00  0.00    +0.117 A 
ATOM      2  C   UNL     1       8.525  -1.640  25.398  0.00  0.00    +0.170 A 
ATOM      3  N   UNL     1       9.206  -0.622  25.822  0.00  0.00    -0.071 NA
ATOM      4  C   UNL     1       8.156  -2.628  26.445  0.00  0.00    +0.101 A 
ATOM      5  C   UNL     1       7.762  -3.855  26.076  0.00  0.00    +0.215 A 
ATOM      6  O   UNL     1       7.655  -4.250  24.765  0.00  0.00    -0.448 OA
ATOM      7  C   UNL     1       7.717  -3.293  23.762  0.00  0.00    +0.161 A 
ENDROOT
BRANCH   3   8
ATOM      8  C   UNL     1       9.763   0.401  25.169  0.00  0.00    +0.382 C 
ATOM      9  N   UNL     1      10.987   0.259  24.735  0.00  0.00    -0.289 N 
ATOM     10  H   UNL     1      11.519   0.988  24.285  0.00  0.00    +0.255 HD
ATOM     11  H   UNL     1      11.445  -0.618  24.952  0.00  0.00    +0.255 HD
ATOM     12  N   UNL     1       9.190   1.555  24.994  0.00  0.00    -0.289 N 
ATOM     13  H   UNL     1       8.271   1.664  25.394  0.00  0.00    +0.255 HD
ATOM     14  H   UNL     1       9.620   2.319  24.501  0.00  0.00    +0.255 HD
ENDBRANCH   3   8
BRANCH   1  17
ATOM     15  C   UNL     1       9.271   0.169  21.217  0.00  0.00    +0.109 C 
ATOM     16  C   UNL     1       9.334  -0.954  22.217  0.00  0.00    +0.214 C 
ATOM     17  N   UNL     1       8.170  -1.058  22.992  0.00  0.00    -0.280 N 
ATOM     18  H   UNL     1       7.875  -0.125  23.308  0.00  0.00    +0.155 HD
ATOM     19  O   UNL     1      10.253  -1.758  22.257  0.00  0.00    -0.276 OA
ENDBRANCH   1  17
BRANCH   5  20
ATOM     20  C   UNL     1       7.459  -4.867  27.117  0.00  0.00    +0.373 C 
ATOM     21  O   UNL     1       6.612  -4.719  27.981  0.00  0.00    -0.242 OA
BRANCH  20  22
ATOM     22  O   UNL     1       8.246  -5.956  27.012  0.00  0.00    -0.475 OA
ATOM     23  H   UNL     1       8.038  -6.658  27.662  0.00  0.00    +0.296 HD
ENDBRANCH  20  22
ENDBRANCH   5  20
BRANCH   7  24
ATOM     24  C   UNL     1       7.407  -3.874  22.395  0.00  0.00    +0.213 C 
BRANCH  24  25
ATOM     25  O   UNL     1       6.300  -3.175  21.829  0.00  0.00    -0.381 OA
ATOM     26  H   UNL     1       6.650  -2.355  21.431  0.00  0.00    +0.210 HD
ENDBRANCH  24  25
BRANCH  24  27
ATOM     27  C   UNL     1       7.080  -5.376  22.538  0.00  0.00    +0.176 C 
BRANCH  27  28
ATOM     28  O   UNL     1       8.318  -6.128  22.636  0.00  0.00    -0.387 OA
ATOM     29  H   UNL     1       8.998  -5.462  22.857  0.00  0.00    +0.210 HD
ENDBRANCH  27  28
BRANCH  27  30
ATOM     30  C   UNL     1       6.280  -5.886  21.337  0.00  0.00    +0.190 C 
BRANCH  30  31
ATOM     31  O   UNL     1       4.915  -6.048  21.704  0.00  0.00    -0.392 OA
ATOM     32  H   UNL     1       4.408  -6.109  20.876  0.00  0.00    +0.210 HD
ENDBRANCH  30  31
ENDBRANCH  27  30
ENDBRANCH  24  27
ENDBRANCH   7  24
TORSDOF 10
ENDMDL
MODEL 2
REMARK VINA RESULT:      -6.4      5.210      8.189
REMARK  Name = 
REMARK  11 active torsions:
REMARK  status: ('A' for Active; 'I' for Inactive)
REMARK    1  A    between atoms: C_1  and  C_2
REMARK    2  A    between atoms: N_4  and  C_5
REMARK    3  A    between atoms: C_6  and  C_20
REMARK    4  A    between atoms: C_8  and  C_17
REMARK    5  A    between atoms: N_11  and  C_12
REMARK    6  A    between atoms: C_17  and  O_19
REMARK    7  A    between atoms: C_20  and  C_22
REMARK    8  A    between atoms: C_20  and  O_27
REMARK    9  A    between atoms: C_22  and  C_24
REMARK   10  A    between atoms: C_22  and  O_26
REMARK   11  A    between atoms: C_24  and  O_25
REMARK                            x       y       z     vdW  Elec       q    Type
REMARK                         _______ _______ _______ _____ _____    ______ ____
ROOT
ATOM      1  C   UNL     1       8.631   4.181  23.714  0.00  0.00    +0.117 A 
ATOM      2  C   UNL     1       8.916   5.652  23.456  0.00  0.00    +0.170 A 
ATOM      3  N   UNL     1       8.117   6.614  23.111  0.00  0.00    -0.071 NA
ATOM      4  C   UNL     1      10.346   6.036  23.572  0.00  0.00    +0.101 A 
ATOM      5  C   UNL     1      11.281   5.076  23.585  0.00  0.00    +0.215 A 
ATOM      6  O   UNL     1      10.987   3.736  23.520  0.00  0.00    -0.448 OA
ATOM      7  C   UNL     1       9.674   3.323  23.692  0.00  0.00    +0.161 A 
ENDROOT
BRANCH   3   8
ATOM      8  C   UNL     1       6.809   6.622  22.841  0.00  0.00    +0.382 C 
ATOM      9  N   UNL     1       6.437   6.439  21.602  0.00  0.00    -0.289 N 
ATOM     10  H   UNL     1       5.481   6.487  21.283  0.00  0.00    +0.255 HD
ATOM     11  H   UNL     1       7.177   6.332  20.918  0.00  0.00    +0.255 HD
ATOM     12  N   UNL     1       5.884   6.864  23.721  0.00  0.00    -0.289 N 
ATOM     13  H   UNL     1       6.197   7.067  24.658  0.00  0.00    +0.255 HD
ATOM     14  H   UNL     1       4.901   6.869  23.505  0.00  0.00    +0.255 HD
ENDBRANCH   3   8
BRANCH   1  17
ATOM     15  C   UNL     1       5.161   2.986  23.085  0.00  0.00    +0.109 C 
ATOM     16  C   UNL     1       6.585   3.339  22.747  0.00  0.00    +0.214 C 
ATOM     17  N   UNL     1       7.316   3.774  23.862  0.00  0.00    -0.280 N 
ATOM     18  H   UNL     1       6.754   4.437  24.412  0.00  0.00    +0.155 HD
ATOM     19  O   UNL     1       7.074   3.148  21.644  0.00  0.00    -0.276 OA
ENDBRANCH   1  17
BRANCH   5  20
ATOM     20  C   UNL     1      12.715   5.455  23.631  0.00  0.00    +0.373 C 
ATOM     21  O   UNL     1      13.562   4.997  22.885  0.00  0.00    -0.242 OA
BRANCH  20  22
ATOM     22  O   UNL     1      12.974   6.345  24.610  0.00  0.00    -0.475 OA
ATOM     23  H   UNL     1      13.780   6.879  24.456  0.00  0.00    +0.296 HD
ENDBRANCH  20  22
ENDBRANCH   5  20
BRANCH   7  24
ATOM     24  C   UNL     1       9.553   1.811  23.767  0.00  0.00    +0.213 C 
BRANCH  24  25
ATOM     25  O   UNL     1      10.358   1.331  24.842  0.00  0.00    -0.381 OA
ATOM     26  H   UNL     1      10.327   0.355  24.812  0.00  0.00    +0.210 HD
ENDBRANCH  24  25
BRANCH  24  27
ATOM     27  C   UNL     1      10.014   1.193  22.430  0.00  0.00    +0.176 C 
BRANCH  27  28
ATOM     28  O   UNL     1       9.924   2.195  21.383  0.00  0.00    -0.387 OA
ATOM     29  H   UNL     1       9.009   2.531  21.438  0.00  0.00    +0.210 HD
ENDBRANCH  27  28
BRANCH  27  30
ATOM     30  C   UNL     1       9.147  -0.009  22.047  0.00  0.00    +0.190 C 
BRANCH  30  31
ATOM     31  O   UNL     1       9.918  -0.936  21.293  0.00  0.00    -0.392 OA
ATOM     32  H   UNL     1       9.412  -1.129  20.485  0.00  0.00    +0.210 HD
ENDBRANCH  30  31
ENDBRANCH  27  30
ENDBRANCH  24  27
ENDBRANCH   7  24
TORSDOF 10
ENDMDL
MODEL 3
REMARK VINA RESULT:      -6.4      1.671      4.239
REMARK  Name = 
REMARK  11 active torsions:
REMARK  status: ('A' for Active; 'I' for Inactive)
REMARK    1  A    between atoms: C_1  and  C_2
REMARK    2  A    between atoms: N_4  and  C_5
REMARK    3  A    between atoms: C_6  and  C_20
REMARK    4  A    between atoms: C_8  and  C_17
REMARK    5  A    between atoms: N_11  and  C_12
REMARK    6  A    between atoms: C_17  and  O_19
REMARK    7  A    between atoms: C_20  and  C_22
REMARK    8  A    between atoms: C_20  and  O_27
REMARK    9  A    between atoms: C_22  and  C_24
REMARK   10  A    between atoms: C_22  and  O_26
REMARK   11  A    between atoms: C_24  and  O_25
REMARK                            x       y       z     vdW  Elec       q    Type
REMARK                         _______ _______ _______ _____ _____    ______ ____
ROOT
ATOM      1  C   UNL     1       8.180  -2.558  23.718  0.00  0.00    +0.117 A 
ATOM      2  C   UNL     1       7.005  -2.175  22.832  0.00  0.00    +0.170 A 
ATOM      3  N   UNL     1       6.364  -1.052  22.725  0.00  0.00    -0.071 NA
ATOM      4  C   UNL     1       6.477  -3.279  21.989  0.00  0.00    +0.101 A 
ATOM      5  C   UNL     1       6.835  -4.541  22.268  0.00  0.00    +0.215 A 
ATOM      6  O   UNL     1       7.691  -4.875  23.287  0.00  0.00    -0.448 OA
ATOM      7  C   UNL     1       8.419  -3.873  23.914  0.00  0.00    +0.161 A 
ENDROOT
BRANCH   3   8
ATOM      8  C   UNL     1       6.503   0.108  23.372  0.00  0.00    +0.382 C 
ATOM      9  N   UNL     1       5.796   0.295  24.454  0.00  0.00    -0.289 N 
ATOM     10  H   UNL     1       5.781   1.155  24.982  0.00  0.00    +0.255 HD
ATOM     11  H   UNL     1       5.161  -0.449  24.716  0.00  0.00    +0.255 HD
ATOM     12  N   UNL     1       7.248   1.090  22.959  0.00  0.00    -0.289 N 
ATOM     13  H   UNL     1       7.735   0.947  22.087  0.00  0.00    +0.255 HD
ATOM     14  H   UNL     1       7.345   1.960  23.455  0.00  0.00    +0.255 HD
ENDBRANCH   3   8
BRANCH   1  17
ATOM     15  C   UNL     1      10.686   0.049  24.604  0.00  0.00    +0.109 C 
ATOM     16  C   UNL     1      10.014  -0.989  23.745  0.00  0.00    +0.214 C 
ATOM     17  N   UNL     1       8.886  -1.554  24.357  0.00  0.00    -0.280 N 
ATOM     18  H   UNL     1       9.097  -1.780  25.338  0.00  0.00    +0.155 HD
ATOM     19  O   UNL     1      10.349  -1.217  22.592  0.00  0.00    -0.276 OA
ENDBRANCH   1  17
BRANCH   5  20
ATOM     20  C   UNL     1       6.257  -5.654  21.474  0.00  0.00    +0.373 C 
ATOM     21  O   UNL     1       5.989  -5.573  20.288  0.00  0.00    -0.242 OA
BRANCH  20  22
ATOM     22  O   UNL     1       6.041  -6.754  22.223  0.00  0.00    -0.475 OA
ATOM     23  H   UNL     1       5.405  -6.616  22.953  0.00  0.00    +0.296 HD
ENDBRANCH  20  22
ENDBRANCH   5  20
BRANCH   7  24
ATOM     24  C   UNL     1       9.440  -4.431  24.890  0.00  0.00    +0.213 C 
BRANCH  24  25
ATOM     25  O   UNL     1       9.722  -5.786  24.547  0.00  0.00    -0.381 OA
ATOM     26  H   UNL     1      10.514  -5.781  23.975  0.00  0.00    +0.210 HD
ENDBRANCH  24  25
BRANCH  24  27
ATOM     27  C   UNL     1       8.880  -4.343  26.325  0.00  0.00    +0.176 C 
BRANCH  27  28
ATOM     28  O   UNL     1       9.879  -4.826  27.260  0.00  0.00    -0.387 OA
ATOM     29  H   UNL     1       9.660  -4.390  28.107  0.00  0.00    +0.210 HD
ENDBRANCH  27  28
BRANCH  27  30
ATOM     30  C   UNL     1       7.607  -5.181  26.476  0.00  0.00    +0.190 C 
BRANCH  30  31
ATOM     31  O   UNL     1       7.697  -5.983  27.647  0.00  0.00    -0.392 OA
ATOM     32  H   UNL     1       8.495  -5.694  28.123  0.00  0.00    +0.210 HD
ENDBRANCH  30  31
ENDBRANCH  27  30
ENDBRANCH  24  27
ENDBRANCH   7  24
TORSDOF 10
ENDMDL
MODEL 4
REMARK VINA RESULT:      -5.8      4.063      5.833
REMARK  Name = 
REMARK  11 active torsions:
REMARK  status: ('A' for Active; 'I' for Inactive)
REMARK    1  A    between atoms: C_1  and  C_2
REMARK    2  A    between atoms: N_4  and  C_5
REMARK    3  A    between atoms: C_6  and  C_20
REMARK    4  A    between atoms: C_8  and  C_17
REMARK    5  A    between atoms: N_11  and  C_12
REMARK    6  A    between atoms: C_17  and  O_19
REMARK    7  A    between atoms: C_20  and  C_22
REMARK    8  A    between atoms: C_20  and  O_27
REMARK    9  A    between atoms: C_22  and  C_24
REMARK   10  A    between atoms: C_22  and  O_26
REMARK   11  A    between atoms: C_24  and  O_25
REMARK                            x       y       z     vdW  Elec       q    Type
REMARK                         _______ _______ _______ _____ _____    ______ ____
ROOT
ATOM      1  C   UNL     1       5.641  -4.976  25.848  0.00  0.00    +0.117 A 
ATOM      2  C   UNL     1       6.730  -5.532  26.753  0.00  0.00    +0.170 A 
ATOM      3  N   UNL     1       6.647  -6.099  27.916  0.00  0.00    -0.071 NA
ATOM      4  C   UNL     1       8.113  -5.352  26.241  0.00  0.00    +0.101 A 
ATOM      5  C   UNL     1       8.331  -4.492  25.236  0.00  0.00    +0.215 A 
ATOM      6  O   UNL     1       7.331  -3.775  24.627  0.00  0.00    -0.448 OA
ATOM      7  C   UNL     1       6.008  -4.112  24.877  0.00  0.00    +0.161 A 
ENDROOT
BRANCH   3   8
ATOM      8  C   UNL     1       5.598  -6.348  28.704  0.00  0.00    +0.382 C 
ATOM      9  N   UNL     1       5.214  -5.411  29.529  0.00  0.00    -0.289 N 
ATOM     10  H   UNL     1       4.474  -5.517  30.207  0.00  0.00    +0.255 HD
ATOM     11  H   UNL     1       5.764  -4.560  29.536  0.00  0.00    +0.255 HD
ATOM     12  N   UNL     1       4.972  -7.486  28.750  0.00  0.00    -0.289 N 
ATOM     13  H   UNL     1       5.326  -8.217  28.151  0.00  0.00    +0.255 HD
ATOM     14  H   UNL     1       4.183  -7.663  29.348  0.00  0.00    +0.255 HD
ENDBRANCH   3   8
BRANCH   1  17
ATOM     15  C   UNL     1       2.304  -6.627  25.926  0.00  0.00    +0.109 C 
ATOM     16  C   UNL     1       3.758  -6.461  25.571  0.00  0.00    +0.214 C 
ATOM     17  N   UNL     1       4.323  -5.300  26.118  0.00  0.00    -0.280 N 
ATOM     18  H   UNL     1       3.684  -4.505  25.987  0.00  0.00    +0.155 HD
ATOM     19  O   UNL     1       4.398  -7.314  24.974  0.00  0.00    -0.276 OA
ENDBRANCH   1  17
BRANCH   5  20
ATOM     20  C   UNL     1       9.718  -4.256  24.767  0.00  0.00    +0.373 C 
ATOM     21  O   UNL     1      10.060  -3.282  24.119  0.00  0.00    -0.242 OA
BRANCH  20  22
ATOM     22  O   UNL     1      10.551  -5.257  25.118  0.00  0.00    -0.475 OA
ATOM     23  H   UNL     1      11.355  -5.315  24.563  0.00  0.00    +0.296 HD
ENDBRANCH  20  22
ENDBRANCH   5  20
BRANCH   7  24
ATOM     24  C   UNL     1       5.043  -3.341  23.994  0.00  0.00    +0.213 C 
BRANCH  24  25
ATOM     25  O   UNL     1       3.868  -3.036  24.740  0.00  0.00    -0.381 OA
ATOM     26  H   UNL     1       3.379  -2.352  24.243  0.00  0.00    +0.210 HD
ENDBRANCH  24  25
BRANCH  24  27
ATOM     27  C   UNL     1       4.690  -4.191  22.755  0.00  0.00    +0.176 C 
BRANCH  27  28
ATOM     28  O   UNL     1       3.461  -4.921  23.009  0.00  0.00    -0.387 OA
ATOM     29  H   UNL     1       3.744  -5.846  23.145  0.00  0.00    +0.210 HD
ENDBRANCH  27  28
BRANCH  27  30
ATOM     30  C   UNL     1       5.806  -5.189  22.432  0.00  0.00    +0.190 C 
BRANCH  30  31
ATOM     31  O   UNL     1       5.259  -6.496  22.309  0.00  0.00    -0.392 OA
ATOM     32  H   UNL     1       4.470  -6.525  22.878  0.00  0.00    +0.210 HD
ENDBRANCH  30  31
ENDBRANCH  27  30
ENDBRANCH  24  27
ENDBRANCH   7  24
TORSDOF 10
ENDMDL
MODEL 5
REMARK VINA RESULT:      -5.8      2.445      2.914
REMARK  Name = 
REMARK  11 active torsions:
REMARK  status: ('A' for Active; 'I' for Inactive)
REMARK    1  A    between atoms: C_1  and  C_2
REMARK    2  A    between atoms: N_4  and  C_5
REMARK    3  A    between atoms: C_6  and  C_20
REMARK    4  A    between atoms: C_8  and  C_17
REMARK    5  A    between atoms: N_11  and  C_12
REMARK    6  A    between atoms: C_17  and  O_19
REMARK    7  A    between atoms: C_20  and  C_22
REMARK    8  A    between atoms: C_20  and  O_27
REMARK    9  A    between atoms: C_22  and  C_24
REMARK   10  A    between atoms: C_22  and  O_26
REMARK   11  A    between atoms: C_24  and  O_25
REMARK                            x       y       z     vdW  Elec       q    Type
REMARK                         _______ _______ _______ _____ _____    ______ ____
ROOT
ATOM      1  C   UNL     1       7.460  -1.851  23.571  0.00  0.00    +0.117 A 
ATOM      2  C   UNL     1       8.963  -2.078  23.629  0.00  0.00    +0.170 A 
ATOM      3  N   UNL     1       9.930  -1.446  23.042  0.00  0.00    -0.071 NA
ATOM      4  C   UNL     1       9.383  -3.241  24.452  0.00  0.00    +0.101 A 
ATOM      5  C   UNL     1       8.466  -4.150  24.816  0.00  0.00    +0.215 A 
ATOM      6  O   UNL     1       7.137  -4.053  24.486  0.00  0.00    -0.448 OA
ATOM      7  C   UNL     1       6.654  -2.861  23.966  0.00  0.00    +0.161 A 
ENDROOT
BRANCH   3   8
ATOM      8  C   UNL     1       9.923  -0.424  22.181  0.00  0.00    +0.382 C 
ATOM      9  N   UNL     1      10.224   0.763  22.635  0.00  0.00    -0.289 N 
ATOM     10  H   UNL     1      10.189   1.608  22.085  0.00  0.00    +0.255 HD
ATOM     11  H   UNL     1      10.414   0.833  23.628  0.00  0.00    +0.255 HD
ATOM     12  N   UNL     1       9.574  -0.524  20.933  0.00  0.00    -0.289 N 
ATOM     13  H   UNL     1       9.284  -1.437  20.620  0.00  0.00    +0.255 HD
ATOM     14  H   UNL     1       9.572   0.253  20.294  0.00  0.00    +0.255 HD
ENDBRANCH   3   8
BRANCH   1  17
ATOM     15  C   UNL     1       6.248   1.638  23.104  0.00  0.00    +0.109 C 
ATOM     16  C   UNL     1       6.821   0.460  23.847  0.00  0.00    +0.214 C 
ATOM     17  N   UNL     1       6.986  -0.669  23.031  0.00  0.00    -0.280 N 
ATOM     18  H   UNL     1       6.149  -0.805  22.449  0.00  0.00    +0.155 HD
ATOM     19  O   UNL     1       7.211   0.529  25.002  0.00  0.00    -0.276 OA
ENDBRANCH   1  17
BRANCH   5  20
ATOM     20  C   UNL     1       8.892  -5.348  25.579  0.00  0.00    +0.373 C 
ATOM     21  O   UNL     1       8.182  -5.928  26.383  0.00  0.00    -0.242 OA
BRANCH  20  22
ATOM     22  O   UNL     1      10.161  -5.705  25.299  0.00  0.00    -0.475 OA
ATOM     23  H   UNL     1      10.796  -5.504  26.017  0.00  0.00    +0.296 HD
ENDBRANCH  20  22
ENDBRANCH   5  20
BRANCH   7  24
ATOM     24  C   UNL     1       5.142  -2.869  23.824  0.00  0.00    +0.213 C 
BRANCH  24  25
ATOM     25  O   UNL     1       4.559  -2.290  24.989  0.00  0.00    -0.381 OA
ATOM     26  H   UNL     1       3.841  -1.700  24.690  0.00  0.00    +0.210 HD
ENDBRANCH  24  25
BRANCH  24  27
ATOM     27  C   UNL     1       4.652  -4.320  23.639  0.00  0.00    +0.176 C 
BRANCH  27  28
ATOM     28  O   UNL     1       4.948  -4.758  22.287  0.00  0.00    -0.387 OA
ATOM     29  H   UNL     1       4.265  -4.335  21.732  0.00  0.00    +0.210 HD
ENDBRANCH  27  28
BRANCH  27  30
ATOM     30  C   UNL     1       3.144  -4.431  23.881  0.00  0.00    +0.190 C 
BRANCH  30  31
ATOM     31  O   UNL     1       2.570  -5.321  22.931  0.00  0.00    -0.392 OA
ATOM     32  H   UNL     1       3.269  -5.532  22.287  0.00  0.00    +0.210 HD
ENDBRANCH  30  31
ENDBRANCH  27  30
ENDBRANCH  24  27
ENDBRANCH   7  24
TORSDOF 10
ENDMDL
MODEL 6
REMARK VINA RESULT:      -5.7      3.909      5.989
REMARK  Name = 
REMARK  11 active torsions:
REMARK  status: ('A' for Active; 'I' for Inactive)
REMARK    1  A    between atoms: C_1  and  C_2
REMARK    2  A    between atoms: N_4  and  C_5
REMARK    3  A    between atoms: C_6  and  C_20
REMARK    4  A    between atoms: C_8  and  C_17
REMARK    5  A    between atoms: N_11  and  C_12
REMARK    6  A    between atoms: C_17  and  O_19
REMARK    7  A    between atoms: C_20  and  C_22
REMARK    8  A    between atoms: C_20  and  O_27
REMARK    9  A    between atoms: C_22  and  C_24
REMARK   10  A    between atoms: C_22  and  O_26
REMARK   11  A    between atoms: C_24  and  O_25
REMARK                            x       y       z     vdW  Elec       q    Type
REMARK                         _______ _______ _______ _____ _____    ______ ____
ROOT
ATOM      1  C   UNL     1       5.331  -4.568  24.830  0.00  0.00    +0.117 A 
ATOM      2  C   UNL     1       6.029  -5.634  25.661  0.00  0.00    +0.170 A 
ATOM      3  N   UNL     1       5.540  -6.520  26.472  0.00  0.00    -0.071 NA
ATOM      4  C   UNL     1       7.511  -5.624  25.563  0.00  0.00    +0.101 A 
ATOM      5  C   UNL     1       8.124  -4.555  25.035  0.00  0.00    +0.215 A 
ATOM      6  O   UNL     1       7.449  -3.461  24.551  0.00  0.00    -0.448 OA
ATOM      7  C   UNL     1       6.076  -3.541  24.366  0.00  0.00    +0.161 A 
ENDROOT
BRANCH   3   8
ATOM      8  C   UNL     1       4.287  -6.763  26.862  0.00  0.00    +0.382 C 
ATOM      9  N   UNL     1       3.853  -6.167  27.941  0.00  0.00    -0.289 N 
ATOM     10  H   UNL     1       2.947  -6.327  28.354  0.00  0.00    +0.255 HD
ATOM     11  H   UNL     1       4.516  -5.577  28.430  0.00  0.00    +0.255 HD
ATOM     12  N   UNL     1       3.489  -7.605  26.275  0.00  0.00    -0.289 N 
ATOM     13  H   UNL     1       3.866  -8.102  25.483  0.00  0.00    +0.255 HD
ATOM     14  H   UNL     1       2.546  -7.781  26.579  0.00  0.00    +0.255 HD
ENDBRANCH   3   8
BRANCH   1  17
ATOM     15  C   UNL     1       1.912  -5.145  23.472  0.00  0.00    +0.109 C 
ATOM     16  C   UNL     1       3.417  -5.192  23.498  0.00  0.00    +0.214 C 
ATOM     17  N   UNL     1       3.958  -4.643  24.669  0.00  0.00    -0.280 N 
ATOM     18  H   UNL     1       3.483  -3.759  24.893  0.00  0.00    +0.155 HD
ATOM     19  O   UNL     1       4.080  -5.760  22.643  0.00  0.00    -0.276 OA
ENDBRANCH   1  17
BRANCH   5  20
ATOM     20  C   UNL     1       9.607  -4.509  24.998  0.00  0.00    +0.373 C 
ATOM     21  O   UNL     1      10.245  -3.700  24.348  0.00  0.00    -0.242 OA
BRANCH  20  22
ATOM     22  O   UNL     1      10.164  -5.483  25.746  0.00  0.00    -0.475 OA
ATOM     23  H   UNL     1      10.468  -6.255  25.227  0.00  0.00    +0.296 HD
ENDBRANCH  20  22
ENDBRANCH   5  20
BRANCH   7  24
ATOM     24  C   UNL     1       5.520  -2.315  23.664  0.00  0.00    +0.213 C 
BRANCH  24  25
ATOM     25  O   UNL     1       5.627  -2.495  22.254  0.00  0.00    -0.381 OA
ATOM     26  H   UNL     1       4.798  -2.913  21.952  0.00  0.00    +0.210 HD
ENDBRANCH  24  25
BRANCH  24  27
ATOM     27  C   UNL     1       6.310  -1.067  24.110  0.00  0.00    +0.176 C 
BRANCH  27  28
ATOM     28  O   UNL     1       5.384  -0.071  24.619  0.00  0.00    -0.387 OA
ATOM     29  H   UNL     1       5.789   0.244  25.451  0.00  0.00    +0.210 HD
ENDBRANCH  27  28
BRANCH  27  30
ATOM     30  C   UNL     1       7.100  -0.465  22.946  0.00  0.00    +0.190 C 
BRANCH  30  31
ATOM     31  O   UNL     1       8.238  -1.273  22.670  0.00  0.00    -0.392 OA
ATOM     32  H   UNL     1       8.223  -2.005  23.311  0.00  0.00    +0.210 HD
ENDBRANCH  30  31
ENDBRANCH  27  30
ENDBRANCH  24  27
ENDBRANCH   7  24
TORSDOF 10
ENDMDL
MODEL 7
REMARK VINA RESULT:      -5.6      3.470      4.589
REMARK  Name = 
REMARK  11 active torsions:
REMARK  status: ('A' for Active; 'I' for Inactive)
REMARK    1  A    between atoms: C_1  and  C_2
REMARK    2  A    between atoms: N_4  and  C_5
REMARK    3  A    between atoms: C_6  and  C_20
REMARK    4  A    between atoms: C_8  and  C_17
REMARK    5  A    between atoms: N_11  and  C_12
REMARK    6  A    between atoms: C_17  and  O_19
REMARK    7  A    between atoms: C_20  and  C_22
REMARK    8  A    between atoms: C_20  and  O_27
REMARK    9  A    between atoms: C_22  and  C_24
REMARK   10  A    between atoms: C_22  and  O_26
REMARK   11  A    between atoms: C_24  and  O_25
REMARK                            x       y       z     vdW  Elec       q    Type
REMARK                         _______ _______ _______ _____ _____    ______ ____
ROOT
ATOM      1  C   UNL     1       5.976  -5.356  24.836  0.00  0.00    +0.117 A 
ATOM      2  C   UNL     1       6.689  -5.394  26.180  0.00  0.00    +0.170 A 
ATOM      3  N   UNL     1       7.940  -5.222  26.471  0.00  0.00    -0.071 NA
ATOM      4  C   UNL     1       5.817  -5.730  27.335  0.00  0.00    +0.101 A 
ATOM      5  C   UNL     1       4.603  -6.254  27.107  0.00  0.00    +0.215 A 
ATOM      6  O   UNL     1       4.104  -6.478  25.848  0.00  0.00    -0.448 OA
ATOM      7  C   UNL     1       4.756  -5.929  24.753  0.00  0.00    +0.161 A 
ENDROOT
BRANCH   3   8
ATOM      8  C   UNL     1       9.004  -4.991  25.697  0.00  0.00    +0.382 C 
ATOM      9  N   UNL     1       9.769  -6.003  25.387  0.00  0.00    -0.289 N 
ATOM     10  H   UNL     1      10.626  -5.928  24.860  0.00  0.00    +0.255 HD
ATOM     11  H   UNL     1       9.517  -6.900  25.785  0.00  0.00    +0.255 HD
ATOM     12  N   UNL     1       9.364  -3.812  25.284  0.00  0.00    -0.289 N 
ATOM     13  H   UNL     1       8.795  -3.037  25.589  0.00  0.00    +0.255 HD
ATOM     14  H   UNL     1      10.168  -3.650  24.701  0.00  0.00    +0.255 HD
ENDBRANCH   3   8
BRANCH   1  17
ATOM     15  C   UNL     1       7.204  -3.100  22.140  0.00  0.00    +0.109 C 
ATOM     16  C   UNL     1       6.440  -3.488  23.379  0.00  0.00    +0.214 C 
ATOM     17  N   UNL     1       6.643  -4.827  23.745  0.00  0.00    -0.280 N 
ATOM     18  H   UNL     1       6.585  -5.430  22.914  0.00  0.00    +0.155 HD
ATOM     19  O   UNL     1       5.814  -2.685  24.054  0.00  0.00    -0.276 OA
ENDBRANCH   1  17
BRANCH   5  20
ATOM     20  C   UNL     1       3.756  -6.655  28.256  0.00  0.00    +0.373 C 
ATOM     21  O   UNL     1       2.651  -6.193  28.479  0.00  0.00    -0.242 OA
BRANCH  20  22
ATOM     22  O   UNL     1       4.361  -7.572  29.038  0.00  0.00    -0.475 OA
ATOM     23  H   UNL     1       3.823  -8.374  29.195  0.00  0.00    +0.296 HD
ENDBRANCH  20  22
ENDBRANCH   5  20
BRANCH   7  24
ATOM     24  C   UNL     1       3.978  -6.125  23.464  0.00  0.00    +0.213 C 
BRANCH  24  25
ATOM     25  O   UNL     1       3.700  -4.852  22.887  0.00  0.00    -0.381 OA
ATOM     26  H   UNL     1       4.552  -4.477  22.590  0.00  0.00    +0.210 HD
ENDBRANCH  24  25
BRANCH  24  27
ATOM     27  C   UNL     1       2.665  -6.877  23.767  0.00  0.00    +0.176 C 
BRANCH  27  28
ATOM     28  O   UNL     1       2.956  -8.284  23.975  0.00  0.00    -0.387 OA
ATOM     29  H   UNL     1       2.823  -8.429  24.932  0.00  0.00    +0.210 HD
ENDBRANCH  27  28
BRANCH  27  30
ATOM     30  C   UNL     1       1.667  -6.738  22.615  0.00  0.00    +0.190 C 
BRANCH  30  31
ATOM     31  O   UNL     1       0.960  -5.510  22.738  0.00  0.00    -0.392 OA
ATOM     32  H   UNL     1       1.107  -5.192  23.646  0.00  0.00    +0.210 HD
ENDBRANCH  30  31
ENDBRANCH  27  30
ENDBRANCH  24  27
ENDBRANCH   7  24
TORSDOF 10
ENDMDL
MODEL 8
REMARK VINA RESULT:      -5.6      3.400      5.609
REMARK  Name = 
REMARK  11 active torsions:
REMARK  status: ('A' for Active; 'I' for Inactive)
REMARK    1  A    between atoms: C_1  and  C_2
REMARK    2  A    between atoms: N_4  and  C_5
REMARK    3  A    between atoms: C_6  and  C_20
REMARK    4  A    between atoms: C_8  and  C_17
REMARK    5  A    between atoms: N_11  and  C_12
REMARK    6  A    between atoms: C_17  and  O_19
REMARK    7  A    between atoms: C_20  and  C_22
REMARK    8  A    between atoms: C_20  and  O_27
REMARK    9  A    between atoms: C_22  and  C_24
REMARK   10  A    between atoms: C_22  and  O_26
REMARK   11  A    between atoms: C_24  and  O_25
REMARK                            x       y       z     vdW  Elec       q    Type
REMARK                         _______ _______ _______ _____ _____    ______ ____
ROOT
ATOM      1  C   UNL     1       6.352  -5.619  25.019  0.00  0.00    +0.117 A 
ATOM      2  C   UNL     1       5.039  -6.074  25.639  0.00  0.00    +0.170 A 
ATOM      3  N   UNL     1       3.856  -6.173  25.119  0.00  0.00    -0.071 NA
ATOM      4  C   UNL     1       5.120  -6.412  27.083  0.00  0.00    +0.101 A 
ATOM      5  C   UNL     1       6.194  -6.023  27.786  0.00  0.00    +0.215 A 
ATOM      6  O   UNL     1       7.250  -5.342  27.234  0.00  0.00    -0.448 OA
ATOM      7  C   UNL     1       7.349  -5.251  25.852  0.00  0.00    +0.161 A 
ENDROOT
BRANCH   3   8
ATOM      8  C   UNL     1       3.400  -5.883  23.898  0.00  0.00    +0.382 C 
ATOM      9  N   UNL     1       2.925  -4.684  23.690  0.00  0.00    -0.289 N 
ATOM     10  H   UNL     1       2.502  -4.382  22.824  0.00  0.00    +0.255 HD
ATOM     11  H   UNL     1       2.906  -4.059  24.487  0.00  0.00    +0.255 HD
ATOM     12  N   UNL     1       3.339  -6.736  22.919  0.00  0.00    -0.289 N 
ATOM     13  H   UNL     1       3.651  -7.673  23.121  0.00  0.00    +0.255 HD
ATOM     14  H   UNL     1       2.993  -6.505  22.003  0.00  0.00    +0.255 HD
ENDBRANCH   3   8
BRANCH   1  17
ATOM     15  C   UNL     1       6.192  -4.383  21.510  0.00  0.00    +0.109 C 
ATOM     16  C   UNL     1       6.093  -4.304  23.011  0.00  0.00    +0.214 C 
ATOM     17  N   UNL     1       6.434  -5.509  23.642  0.00  0.00    -0.280 N 
ATOM     18  H   UNL     1       5.990  -6.298  23.153  0.00  0.00    +0.155 HD
ATOM     19  O   UNL     1       5.861  -3.264  23.608  0.00  0.00    -0.276 OA
ENDBRANCH   1  17
BRANCH   5  20
ATOM     20  C   UNL     1       6.249  -6.297  29.243  0.00  0.00    +0.373 C 
ATOM     21  O   UNL     1       5.953  -5.482  30.099  0.00  0.00    -0.242 OA
BRANCH  20  22
ATOM     22  O   UNL     1       6.689  -7.544  29.509  0.00  0.00    -0.475 OA
ATOM     23  H   UNL     1       6.860  -8.082  28.710  0.00  0.00    +0.296 HD
ENDBRANCH  20  22
ENDBRANCH   5  20
BRANCH   7  24
ATOM     24  C   UNL     1       8.659  -4.622  25.411  0.00  0.00    +0.213 C 
BRANCH  24  25
ATOM     25  O   UNL     1       9.739  -5.279  26.069  0.00  0.00    -0.381 OA
ATOM     26  H   UNL     1      10.417  -5.469  25.392  0.00  0.00    +0.210 HD
ENDBRANCH  24  25
BRANCH  24  27
ATOM     27  C   UNL     1       8.649  -3.119  25.761  0.00  0.00    +0.176 C 
BRANCH  27  28
ATOM     28  O   UNL     1       7.294  -2.711  26.088  0.00  0.00    -0.387 OA
ATOM     29  H   UNL     1       6.887  -2.487  25.229  0.00  0.00    +0.210 HD
ENDBRANCH  27  28
BRANCH  27  30
ATOM     30  C   UNL     1       9.155  -2.273  24.590  0.00  0.00    +0.190 C 
BRANCH  30  31
ATOM     31  O   UNL     1      10.158  -2.991  23.879  0.00  0.00    -0.392 OA
ATOM     32  H   UNL     1      11.004  -2.797  24.317  0.00  0.00    +0.210 HD
ENDBRANCH  30  31
ENDBRANCH  27  30
ENDBRANCH  24  27
ENDBRANCH   7  24
TORSDOF 10
ENDMDL
MODEL 9
REMARK VINA RESULT:      -5.6      3.263      5.424
REMARK  Name = 
REMARK  11 active torsions:
REMARK  status: ('A' for Active; 'I' for Inactive)
REMARK    1  A    between atoms: C_1  and  C_2
REMARK    2  A    between atoms: N_4  and  C_5
REMARK    3  A    between atoms: C_6  and  C_20
REMARK    4  A    between atoms: C_8  and  C_17
REMARK    5  A    between atoms: N_11  and  C_12
REMARK    6  A    between atoms: C_17  and  O_19
REMARK    7  A    between atoms: C_20  and  C_22
REMARK    8  A    between atoms: C_20  and  O_27
REMARK    9  A    between atoms: C_22  and  C_24
REMARK   10  A    between atoms: C_22  and  O_26
REMARK   11  A    between atoms: C_24  and  O_25
REMARK                            x       y       z     vdW  Elec       q    Type
REMARK                         _______ _______ _______ _____ _____    ______ ____
ROOT
ATOM      1  C   UNL     1       6.908  -3.002  24.136  0.00  0.00    +0.117 A 
ATOM      2  C   UNL     1       6.356  -3.259  25.530  0.00  0.00    +0.170 A 
ATOM      3  N   UNL     1       5.477  -4.120  25.939  0.00  0.00    -0.071 NA
ATOM      4  C   UNL     1       6.873  -2.345  26.580  0.00  0.00    +0.101 A 
ATOM      5  C   UNL     1       7.509  -1.222  26.214  0.00  0.00    +0.215 A 
ATOM      6  O   UNL     1       7.734  -0.877  24.904  0.00  0.00    -0.448 OA
ATOM      7  C   UNL     1       7.523  -1.821  23.909  0.00  0.00    +0.161 A 
ENDROOT
BRANCH   3   8
ATOM      8  C   UNL     1       4.755  -5.028  25.276  0.00  0.00    +0.382 C 
ATOM      9  N   UNL     1       3.652  -4.632  24.700  0.00  0.00    -0.289 N 
ATOM     10  H   UNL     1       3.005  -5.246  24.227  0.00  0.00    +0.255 HD
ATOM     11  H   UNL     1       3.401  -3.658  24.821  0.00  0.00    +0.255 HD
ATOM     12  N   UNL     1       5.045  -6.294  25.222  0.00  0.00    -0.289 N 
ATOM     13  H   UNL     1       5.866  -6.588  25.729  0.00  0.00    +0.255 HD
ATOM     14  H   UNL     1       4.492  -6.969  24.720  0.00  0.00    +0.255 HD
ENDBRANCH   3   8
BRANCH   1  17
ATOM     15  C   UNL     1       7.165  -5.911  21.826  0.00  0.00    +0.109 C 
ATOM     16  C   UNL     1       7.544  -5.025  22.984  0.00  0.00    +0.214 C 
ATOM     17  N   UNL     1       6.673  -3.938  23.144  0.00  0.00    -0.280 N 
ATOM     18  H   UNL     1       6.477  -3.508  22.230  0.00  0.00    +0.155 HD
ATOM     19  O   UNL     1       8.441  -5.301  23.766  0.00  0.00    -0.276 OA
ENDBRANCH   1  17
BRANCH   5  20
ATOM     20  C   UNL     1       7.967  -0.271  27.256  0.00  0.00    +0.373 C 
ATOM     21  O   UNL     1       7.262   0.599  27.737  0.00  0.00    -0.242 OA
BRANCH  20  22
ATOM     22  O   UNL     1       9.259  -0.465  27.589  0.00  0.00    -0.475 OA
ATOM     23  H   UNL     1       9.836  -0.678  26.828  0.00  0.00    +0.296 HD
ENDBRANCH  20  22
ENDBRANCH   5  20
BRANCH   7  24
ATOM     24  C   UNL     1       7.985  -1.333  22.548  0.00  0.00    +0.213 C 
BRANCH  24  25
ATOM     25  O   UNL     1       9.102  -2.111  22.126  0.00  0.00    -0.381 OA
ATOM     26  H   UNL     1       8.845  -2.561  21.299  0.00  0.00    +0.210 HD
ENDBRANCH  24  25
BRANCH  24  27
ATOM     27  C   UNL     1       8.371   0.159  22.642  0.00  0.00    +0.176 C 
BRANCH  27  28
ATOM     28  O   UNL     1       7.173   0.971  22.539  0.00  0.00    -0.387 OA
ATOM     29  H   UNL     1       7.464   1.789  22.089  0.00  0.00    +0.210 HD
ENDBRANCH  27  28
BRANCH  27  30
ATOM     30  C   UNL     1       9.340   0.552  21.524  0.00  0.00    +0.190 C 
BRANCH  30  31
ATOM     31  O   UNL     1       9.354   1.967  21.377  0.00  0.00    -0.392 OA
ATOM     32  H   UNL     1       9.805   2.157  20.536  0.00  0.00    +0.210 HD
ENDBRANCH  30  31
ENDBRANCH  27  30
ENDBRANCH  24  27
ENDBRANCH   7  24
TORSDOF 10
ENDMDL
