MODEL 1
REMARK VINA RESULT:      -6.7      0.000      0.000
REMARK  Name = 
REMARK  11 active torsions:
REMARK  status: ('A' for Active; 'I' for Inactive)
REMARK    1  A    between atoms: C_1  and  C_2
REMARK    2  A    between atoms: C_2  and  O_3
REMARK    3  A    between atoms: O_3  and  C_4
REMARK    4  A    between atoms: C_4  and  C_6
REMARK    5  A    between atoms: C_6  and  C_7
REMARK    6  A    between atoms: C_6  and  N_10
REMARK    7  A    between atoms: C_6  and  O_11
REMARK    8  A    between atoms: C_7  and  C_8
REMARK    9  A    between atoms: C_7  and  C_9
REMARK   10  A    between atoms: O_11  and  C_12
REMARK   11  A    between atoms: C_12  and  N_13
REMARK                            x       y       z     vdW  Elec       q    Type
REMARK                         _______ _______ _______ _____ _____    ______ ____
ROOT
ATOM      1  C   UNL     1       7.902  -2.675  22.181  0.00  0.00    +0.290 C 
ENDROOT
BRANCH   1   2
ATOM      2  N   UNL     1       7.143  -3.477  23.127  0.00  0.00    -0.291 N 
ATOM      3  C   UNL     1       7.696  -4.253  24.107  0.00  0.00    +0.171 A 
ATOM      4  N   UNL     1       9.017  -4.457  24.330  0.00  0.00    -0.196 NA
ATOM      5  C   UNL     1       9.252  -5.212  25.371  0.00  0.00    +0.195 A 
ATOM      6  N   UNL     1      10.529  -5.498  25.729  0.00  0.00    -0.329 N 
ATOM      7  H   UNL     1      10.700  -6.390  26.176  0.00  0.00    +0.145 HD
ATOM      8  H   UNL     1      11.197  -5.284  24.995  0.00  0.00    +0.145 HD
ATOM      9  N   UNL     1       8.262  -5.760  26.162  0.00  0.00    -0.293 N 
ATOM     10  H   UNL     1       8.504  -6.292  26.980  0.00  0.00    +0.172 HD
ATOM     11  C   UNL     1       6.902  -5.570  25.969  0.00  0.00    +0.280 A 
ATOM     12  O   UNL     1       6.069  -6.066  26.726  0.00  0.00    -0.265 OA
ATOM     13  C   UNL     1       6.622  -4.735  24.822  0.00  0.00    +0.172 A 
ATOM     14  N   UNL     1       5.432  -4.288  24.307  0.00  0.00    -0.229 NA
ATOM     15  C   UNL     1       5.784  -3.528  23.286  0.00  0.00    +0.203 A 
ENDBRANCH   1   2
BRANCH   1  16
ATOM     16  O   UNL     1       7.806  -1.292  22.527  0.00  0.00    -0.328 OA
BRANCH  16  17
ATOM     17  C   UNL     1       9.042  -0.583  22.495  0.00  0.00    +0.220 C 
BRANCH  17  18
ATOM     18  N   UNL     1       9.995  -1.456  21.784  0.00  0.00    -0.294 NA
ATOM     19  H   UNL     1      10.485  -2.041  22.453  0.00  0.00    +0.121 HD
ATOM     20  H   UNL     1       9.501  -2.062  21.134  0.00  0.00    +0.121 HD
ENDBRANCH  17  18
BRANCH  17  21
ATOM     21  C   UNL     1       8.890   0.777  21.724  0.00  0.00    +0.041 C 
ATOM     22  C   UNL     1      10.055   1.745  21.982  0.00  0.00    +0.012 C 
ATOM     23  C   UNL     1       7.564   1.511  21.977  0.00  0.00    +0.012 C 
ENDBRANCH  17  21
BRANCH  17  24
ATOM     24  C   UNL     1       9.615  -0.293  23.944  0.00  0.00    +0.355 C 
ATOM     25  O   UNL     1      10.812  -0.193  24.197  0.00  0.00    -0.246 OA
BRANCH  24  26
ATOM     26  O   UNL     1       8.621  -0.218  24.874  0.00  0.00    -0.462 OA
BRANCH  26  28
ATOM     27  C   UNL     1       7.282  -1.427  26.424  0.00  0.00    +0.048 C 
ATOM     28  C   UNL     1       8.699  -1.170  25.939  0.00  0.00    +0.229 C 
ENDBRANCH  26  28
ENDBRANCH  24  26
ENDBRANCH  17  24
ENDBRANCH  16  17
ENDBRANCH   1  16
TORSDOF 8
ENDMDL
MODEL 2
REMARK VINA RESULT:      -6.7      2.293      5.533
REMARK  Name = 
REMARK  11 active torsions:
REMARK  status: ('A' for Active; 'I' for Inactive)
REMARK    1  A    between atoms: C_1  and  C_2
REMARK    2  A    between atoms: C_2  and  O_3
REMARK    3  A    between atoms: O_3  and  C_4
REMARK    4  A    between atoms: C_4  and  C_6
REMARK    5  A    between atoms: C_6  and  C_7
REMARK    6  A    between atoms: C_6  and  N_10
REMARK    7  A    between atoms: C_6  and  O_11
REMARK    8  A    between atoms: C_7  and  C_8
REMARK    9  A    between atoms: C_7  and  C_9
REMARK   10  A    between atoms: O_11  and  C_12
REMARK   11  A    between atoms: C_12  and  N_13
REMARK                            x       y       z     vdW  Elec       q    Type
REMARK                         _______ _______ _______ _____ _____    ______ ____
ROOT
ATOM      1  C   UNL     1       7.286  -2.142  22.373  0.00  0.00    +0.290 C 
ENDROOT
BRANCH   1   2
ATOM      2  N   UNL     1       8.339  -1.145  22.472  0.00  0.00    -0.291 N 
ATOM      3  C   UNL     1       8.840  -0.657  23.648  0.00  0.00    +0.171 A 
ATOM      4  N   UNL     1       8.415  -0.963  24.897  0.00  0.00    -0.196 NA
ATOM      5  C   UNL     1       9.114  -0.380  25.835  0.00  0.00    +0.195 A 
ATOM      6  N   UNL     1       8.816  -0.596  27.140  0.00  0.00    -0.329 N 
ATOM      7  H   UNL     1       8.999   0.156  27.792  0.00  0.00    +0.145 HD
ATOM      8  H   UNL     1       7.901  -1.020  27.266  0.00  0.00    +0.145 HD
ATOM      9  N   UNL     1      10.172   0.472  25.587  0.00  0.00    -0.293 N 
ATOM     10  H   UNL     1      10.706   0.851  26.350  0.00  0.00    +0.172 HD
ATOM     11  C   UNL     1      10.639   0.803  24.324  0.00  0.00    +0.280 A 
ATOM     12  O   UNL     1      11.605   1.549  24.171  0.00  0.00    -0.265 OA
ATOM     13  C   UNL     1       9.878   0.165  23.273  0.00  0.00    +0.172 A 
ATOM     14  N   UNL     1      10.024   0.206  21.910  0.00  0.00    -0.229 NA
ATOM     15  C   UNL     1       9.080  -0.600  21.458  0.00  0.00    +0.203 A 
ENDBRANCH   1   2
BRANCH   1  16
ATOM     16  O   UNL     1       7.851  -3.454  22.409  0.00  0.00    -0.328 OA
BRANCH  16  17
ATOM     17  C   UNL     1       7.459  -4.240  23.531  0.00  0.00    +0.220 C 
BRANCH  17  18
ATOM     18  N   UNL     1       6.460  -3.437  24.263  0.00  0.00    -0.294 NA
ATOM     19  H   UNL     1       6.121  -3.963  25.062  0.00  0.00    +0.121 HD
ATOM     20  H   UNL     1       6.881  -2.577  24.604  0.00  0.00    +0.121 HD
ENDBRANCH  17  18
BRANCH  17  21
ATOM     21  C   UNL     1       6.814  -5.596  23.069  0.00  0.00    +0.041 C 
ATOM     22  C   UNL     1       6.956  -5.843  21.559  0.00  0.00    +0.012 C 
ATOM     23  C   UNL     1       5.341  -5.773  23.469  0.00  0.00    +0.012 C 
ENDBRANCH  17  21
BRANCH  17  24
ATOM     24  C   UNL     1       8.666  -4.551  24.510  0.00  0.00    +0.355 C 
ATOM     25  O   UNL     1       9.776  -4.037  24.408  0.00  0.00    -0.246 OA
BRANCH  24  26
ATOM     26  O   UNL     1       8.333  -5.489  25.440  0.00  0.00    -0.462 OA
BRANCH  26  28
ATOM     27  C   UNL     1       6.878  -5.373  27.319  0.00  0.00    +0.048 C 
ATOM     28  C   UNL     1       8.259  -5.022  26.791  0.00  0.00    +0.229 C 
ENDBRANCH  26  28
ENDBRANCH  24  26
ENDBRANCH  17  24
ENDBRANCH  16  17
ENDBRANCH   1  16
TORSDOF 8
ENDMDL
MODEL 3
REMARK VINA RESULT:      -6.3      2.564      6.448
REMARK  Name = 
REMARK  11 active torsions:
REMARK  status: ('A' for Active; 'I' for Inactive)
REMARK    1  A    between atoms: C_1  and  C_2
REMARK    2  A    between atoms: C_2  and  O_3
REMARK    3  A    between atoms: O_3  and  C_4
REMARK    4  A    between atoms: C_4  and  C_6
REMARK    5  A    between atoms: C_6  and  C_7
REMARK    6  A    between atoms: C_6  and  N_10
REMARK    7  A    between atoms: C_6  and  O_11
REMARK    8  A    between atoms: C_7  and  C_8
REMARK    9  A    between atoms: C_7  and  C_9
REMARK   10  A    between atoms: O_11  and  C_12
REMARK   11  A    between atoms: C_12  and  N_13
REMARK                            x       y       z     vdW  Elec       q    Type
REMARK                         _______ _______ _______ _____ _____    ______ ____
ROOT
ATOM      1  C   UNL     1       7.542  -1.718  22.674  0.00  0.00    +0.290 C 
ENDROOT
BRANCH   1   2
ATOM      2  N   UNL     1       8.639  -0.776  22.826  0.00  0.00    -0.291 N 
ATOM      3  C   UNL     1       8.537   0.575  22.636  0.00  0.00    +0.171 A 
ATOM      4  N   UNL     1       7.439   1.253  22.225  0.00  0.00    -0.196 NA
ATOM      5  C   UNL     1       7.621   2.546  22.178  0.00  0.00    +0.195 A 
ATOM      6  N   UNL     1       6.608   3.363  21.794  0.00  0.00    -0.329 N 
ATOM      7  H   UNL     1       6.855   4.222  21.318  0.00  0.00    +0.145 HD
ATOM      8  H   UNL     1       5.852   2.859  21.340  0.00  0.00    +0.145 HD
ATOM      9  N   UNL     1       8.811   3.166  22.501  0.00  0.00    -0.293 N 
ATOM     10  H   UNL     1       8.878   4.170  22.496  0.00  0.00    +0.172 HD
ATOM     11  C   UNL     1       9.953   2.507  22.931  0.00  0.00    +0.280 A 
ATOM     12  O   UNL     1      10.976   3.121  23.230  0.00  0.00    -0.265 OA
ATOM     13  C   UNL     1       9.769   1.074  22.991  0.00  0.00    +0.172 A 
ATOM     14  N   UNL     1      10.625   0.076  23.383  0.00  0.00    -0.229 NA
ATOM     15  C   UNL     1       9.908  -1.028  23.274  0.00  0.00    +0.203 A 
ENDBRANCH   1   2
BRANCH   1  16
ATOM     16  O   UNL     1       8.042  -3.055  22.680  0.00  0.00    -0.328 OA
BRANCH  16  17
ATOM     17  C   UNL     1       7.610  -3.848  23.782  0.00  0.00    +0.220 C 
BRANCH  17  18
ATOM     18  N   UNL     1       6.511  -3.097  24.419  0.00  0.00    -0.294 NA
ATOM     19  H   UNL     1       6.230  -2.331  23.816  0.00  0.00    +0.121 HD
ATOM     20  H   UNL     1       5.706  -3.702  24.561  0.00  0.00    +0.121 HD
ENDBRANCH  17  18
BRANCH  17  21
ATOM     21  C   UNL     1       7.084  -5.247  23.296  0.00  0.00    +0.041 C 
ATOM     22  C   UNL     1       7.193  -5.431  21.774  0.00  0.00    +0.012 C 
ATOM     23  C   UNL     1       5.652  -5.581  23.739  0.00  0.00    +0.012 C 
ENDBRANCH  17  21
BRANCH  17  24
ATOM     24  C   UNL     1       8.751  -4.073  24.858  0.00  0.00    +0.355 C 
ATOM     25  O   UNL     1       9.918  -4.323  24.572  0.00  0.00    -0.246 OA
BRANCH  24  26
ATOM     26  O   UNL     1       8.267  -4.003  26.130  0.00  0.00    -0.462 OA
BRANCH  26  28
ATOM     27  C   UNL     1       6.731  -5.339  27.360  0.00  0.00    +0.048 C 
ATOM     28  C   UNL     1       8.146  -5.254  26.815  0.00  0.00    +0.229 C 
ENDBRANCH  26  28
ENDBRANCH  24  26
ENDBRANCH  17  24
ENDBRANCH  16  17
ENDBRANCH   1  16
TORSDOF 8
ENDMDL
MODEL 4
REMARK VINA RESULT:      -6.3      1.823      3.454
REMARK  Name = 
REMARK  11 active torsions:
REMARK  status: ('A' for Active; 'I' for Inactive)
REMARK    1  A    between atoms: C_1  and  C_2
REMARK    2  A    between atoms: C_2  and  O_3
REMARK    3  A    between atoms: O_3  and  C_4
REMARK    4  A    between atoms: C_4  and  C_6
REMARK    5  A    between atoms: C_6  and  C_7
REMARK    6  A    between atoms: C_6  and  N_10
REMARK    7  A    between atoms: C_6  and  O_11
REMARK    8  A    between atoms: C_7  and  C_8
REMARK    9  A    between atoms: C_7  and  C_9
REMARK   10  A    between atoms: O_11  and  C_12
REMARK   11  A    between atoms: C_12  and  N_13
REMARK                            x       y       z     vdW  Elec       q    Type
REMARK                         _______ _______ _______ _____ _____    ______ ____
ROOT
ATOM      1  C   UNL     1       9.218  -3.863  24.578  0.00  0.00    +0.290 C 
ENDROOT
BRANCH   1   2
ATOM      2  N   UNL     1       7.968  -4.513  24.936  0.00  0.00    -0.291 N 
ATOM      3  C   UNL     1       7.086  -5.051  24.039  0.00  0.00    +0.171 A 
ATOM      4  N   UNL     1       7.188  -5.023  22.689  0.00  0.00    -0.196 NA
ATOM      5  C   UNL     1       6.218  -5.662  22.088  0.00  0.00    +0.195 A 
ATOM      6  N   UNL     1       6.187  -5.732  20.733  0.00  0.00    -0.329 N 
ATOM      7  H   UNL     1       5.279  -5.780  20.288  0.00  0.00    +0.145 HD
ATOM      8  H   UNL     1       6.811  -5.062  20.294  0.00  0.00    +0.145 HD
ATOM      9  N   UNL     1       5.186  -6.293  22.752  0.00  0.00    -0.293 N 
ATOM     10  H   UNL     1       4.496  -6.813  22.237  0.00  0.00    +0.172 HD
ATOM     11  C   UNL     1       5.052  -6.348  24.131  0.00  0.00    +0.280 A 
ATOM     12  O   UNL     1       4.121  -6.950  24.663  0.00  0.00    -0.265 OA
ATOM     13  C   UNL     1       6.117  -5.648  24.814  0.00  0.00    +0.172 A 
ATOM     14  N   UNL     1       6.370  -5.485  26.152  0.00  0.00    -0.229 NA
ATOM     15  C   UNL     1       7.497  -4.798  26.190  0.00  0.00    +0.203 A 
ENDBRANCH   1   2
BRANCH   1  16
ATOM     16  O   UNL     1       9.208  -2.506  25.023  0.00  0.00    -0.328 OA
BRANCH  16  17
ATOM     17  C   UNL     1       8.939  -1.547  24.004  0.00  0.00    +0.220 C 
BRANCH  17  18
ATOM     18  N   UNL     1       9.009  -2.280  22.725  0.00  0.00    -0.294 NA
ATOM     19  H   UNL     1       9.899  -2.094  22.275  0.00  0.00    +0.121 HD
ATOM     20  H   UNL     1       8.938  -3.281  22.888  0.00  0.00    +0.121 HD
ENDBRANCH  17  18
BRANCH  17  21
ATOM     21  C   UNL     1       7.508  -0.925  24.181  0.00  0.00    +0.041 C 
ATOM     22  C   UNL     1       6.987  -1.023  25.623  0.00  0.00    +0.012 C 
ATOM     23  C   UNL     1       6.443  -1.486  23.225  0.00  0.00    +0.012 C 
ENDBRANCH  17  21
BRANCH  17  24
ATOM     24  C   UNL     1      10.008  -0.378  23.969  0.00  0.00    +0.355 C 
ATOM     25  O   UNL     1      10.463   0.160  24.974  0.00  0.00    -0.246 OA
BRANCH  24  26
ATOM     26  O   UNL     1      10.319  -0.015  22.693  0.00  0.00    -0.462 OA
BRANCH  26  28
ATOM     27  C   UNL     1       8.727   1.300  21.511  0.00  0.00    +0.048 C 
ATOM     28  C   UNL     1      10.000   1.334  22.339  0.00  0.00    +0.229 C 
ENDBRANCH  26  28
ENDBRANCH  24  26
ENDBRANCH  17  24
ENDBRANCH  16  17
ENDBRANCH   1  16
TORSDOF 8
ENDMDL
MODEL 5
REMARK VINA RESULT:      -6.1      1.822      2.829
REMARK  Name = 
REMARK  11 active torsions:
REMARK  status: ('A' for Active; 'I' for Inactive)
REMARK    1  A    between atoms: C_1  and  C_2
REMARK    2  A    between atoms: C_2  and  O_3
REMARK    3  A    between atoms: O_3  and  C_4
REMARK    4  A    between atoms: C_4  and  C_6
REMARK    5  A    between atoms: C_6  and  C_7
REMARK    6  A    between atoms: C_6  and  N_10
REMARK    7  A    between atoms: C_6  and  O_11
REMARK    8  A    between atoms: C_7  and  C_8
REMARK    9  A    between atoms: C_7  and  C_9
REMARK   10  A    between atoms: O_11  and  C_12
REMARK   11  A    between atoms: C_12  and  N_13
REMARK                            x       y       z     vdW  Elec       q    Type
REMARK                         _______ _______ _______ _____ _____    ______ ____
ROOT
ATOM      1  C   UNL     1       9.733  -1.750  24.099  0.00  0.00    +0.290 C 
ENDROOT
BRANCH   1   2
ATOM      2  N   UNL     1       8.702  -2.622  23.560  0.00  0.00    -0.291 N 
ATOM      3  C   UNL     1       8.146  -3.676  24.230  0.00  0.00    +0.171 A 
ATOM      4  N   UNL     1       8.489  -4.123  25.462  0.00  0.00    -0.196 NA
ATOM      5  C   UNL     1       7.751  -5.122  25.869  0.00  0.00    +0.195 A 
ATOM      6  N   UNL     1       7.967  -5.673  27.090  0.00  0.00    -0.329 N 
ATOM      7  H   UNL     1       7.765  -6.659  27.200  0.00  0.00    +0.145 HD
ATOM      8  H   UNL     1       8.860  -5.402  27.488  0.00  0.00    +0.145 HD
ATOM      9  N   UNL     1       6.732  -5.680  25.123  0.00  0.00    -0.293 N 
ATOM     10  H   UNL     1       6.165  -6.414  25.510  0.00  0.00    +0.172 HD
ATOM     11  C   UNL     1       6.349  -5.246  23.863  0.00  0.00    +0.280 A 
ATOM     12  O   UNL     1       5.414  -5.770  23.259  0.00  0.00    -0.265 OA
ATOM     13  C   UNL     1       7.154  -4.139  23.395  0.00  0.00    +0.172 A 
ATOM     14  N   UNL     1       7.090  -3.411  22.235  0.00  0.00    -0.229 NA
ATOM     15  C   UNL     1       8.037  -2.501  22.369  0.00  0.00    +0.203 A 
ENDBRANCH   1   2
BRANCH   1  16
ATOM     16  O   UNL     1       9.750  -0.514  23.383  0.00  0.00    -0.328 OA
BRANCH  16  17
ATOM     17  C   UNL     1       9.646   0.649  24.200  0.00  0.00    +0.220 C 
BRANCH  17  18
ATOM     18  N   UNL     1      10.446   0.371  25.409  0.00  0.00    -0.294 NA
ATOM     19  H   UNL     1      11.043  -0.432  25.243  0.00  0.00    +0.121 HD
ATOM     20  H   UNL     1      11.037   1.167  25.631  0.00  0.00    +0.121 HD
ENDBRANCH  17  18
BRANCH  17  21
ATOM     21  C   UNL     1      10.224   1.909  23.460  0.00  0.00    +0.041 C 
ATOM     22  C   UNL     1       9.678   3.233  24.016  0.00  0.00    +0.012 C 
ATOM     23  C   UNL     1      10.041   1.894  21.934  0.00  0.00    +0.012 C 
ENDBRANCH  17  21
BRANCH  17  24
ATOM     24  C   UNL     1       8.156   0.951  24.644  0.00  0.00    +0.355 C 
ATOM     25  O   UNL     1       7.831   1.238  25.792  0.00  0.00    -0.246 OA
BRANCH  24  26
ATOM     26  O   UNL     1       7.281   0.803  23.609  0.00  0.00    -0.462 OA
BRANCH  26  28
ATOM     27  C   UNL     1       6.390   2.645  22.395  0.00  0.00    +0.048 C 
ATOM     28  C   UNL     1       6.187   1.726  23.587  0.00  0.00    +0.229 C 
ENDBRANCH  26  28
ENDBRANCH  24  26
ENDBRANCH  17  24
ENDBRANCH  16  17
ENDBRANCH   1  16
TORSDOF 8
ENDMDL
MODEL 6
REMARK VINA RESULT:      -6.1      1.634      2.108
REMARK  Name = 
REMARK  11 active torsions:
REMARK  status: ('A' for Active; 'I' for Inactive)
REMARK    1  A    between atoms: C_1  and  C_2
REMARK    2  A    between atoms: C_2  and  O_3
REMARK    3  A    between atoms: O_3  and  C_4
REMARK    4  A    between atoms: C_4  and  C_6
REMARK    5  A    between atoms: C_6  and  C_7
REMARK    6  A    between atoms: C_6  and  N_10
REMARK    7  A    between atoms: C_6  and  O_11
REMARK    8  A    between atoms: C_7  and  C_8
REMARK    9  A    between atoms: C_7  and  C_9
REMARK   10  A    between atoms: O_11  and  C_12
REMARK   11  A    between atoms: C_12  and  N_13
REMARK                            x       y       z     vdW  Elec       q    Type
REMARK                         _______ _______ _______ _____ _____    ______ ____
ROOT
ATOM      1  C   UNL     1       8.026  -2.579  22.422  0.00  0.00    +0.290 C 
ENDROOT
BRANCH   1   2
ATOM      2  N   UNL     1       6.847  -3.372  22.730  0.00  0.00    -0.291 N 
ATOM      3  C   UNL     1       6.735  -4.215  23.801  0.00  0.00    +0.171 A 
ATOM      4  N   UNL     1       7.698  -4.501  24.709  0.00  0.00    -0.196 NA
ATOM      5  C   UNL     1       7.290  -5.307  25.654  0.00  0.00    +0.195 A 
ATOM      6  N   UNL     1       8.140  -5.679  26.645  0.00  0.00    -0.329 N 
ATOM      7  H   UNL     1       8.008  -6.596  27.053  0.00  0.00    +0.145 HD
ATOM      8  H   UNL     1       9.109  -5.476  26.423  0.00  0.00    +0.145 HD
ATOM      9  N   UNL     1       6.014  -5.828  25.722  0.00  0.00    -0.293 N 
ATOM     10  H   UNL     1       5.742  -6.403  26.500  0.00  0.00    +0.172 HD
ATOM     11  C   UNL     1       5.001  -5.554  24.815  0.00  0.00    +0.280 A 
ATOM     12  O   UNL     1       3.874  -6.030  24.946  0.00  0.00    -0.265 OA
ATOM     13  C   UNL     1       5.433  -4.661  23.763  0.00  0.00    +0.172 A 
ATOM     14  N   UNL     1       4.748  -4.128  22.701  0.00  0.00    -0.229 NA
ATOM     15  C   UNL     1       5.631  -3.351  22.100  0.00  0.00    +0.203 A 
ENDBRANCH   1   2
BRANCH   1  16
ATOM     16  O   UNL     1       7.929  -1.297  23.045  0.00  0.00    -0.328 OA
BRANCH  16  17
ATOM     17  C   UNL     1       8.927  -1.037  24.029  0.00  0.00    +0.220 C 
BRANCH  17  18
ATOM     18  N   UNL     1       9.913  -2.127  23.908  0.00  0.00    -0.294 NA
ATOM     19  H   UNL     1       9.516  -2.885  23.363  0.00  0.00    +0.121 HD
ATOM     20  H   UNL     1      10.748  -1.796  23.432  0.00  0.00    +0.121 HD
ENDBRANCH  17  18
BRANCH  17  21
ATOM     21  C   UNL     1       9.627   0.344  23.766  0.00  0.00    +0.041 C 
ATOM     22  C   UNL     1       9.994   0.558  22.289  0.00  0.00    +0.012 C 
ATOM     23  C   UNL     1      10.869   0.607  24.633  0.00  0.00    +0.012 C 
ENDBRANCH  17  21
BRANCH  17  24
ATOM     24  C   UNL     1       8.347  -1.048  25.503  0.00  0.00    +0.355 C 
ATOM     25  O   UNL     1       8.787  -1.755  26.404  0.00  0.00    -0.246 OA
BRANCH  24  26
ATOM     26  O   UNL     1       7.275  -0.215  25.631  0.00  0.00    -0.462 OA
BRANCH  26  28
ATOM     27  C   UNL     1       5.205  -1.385  25.541  0.00  0.00    +0.048 C 
ATOM     28  C   UNL     1       6.209  -0.701  26.453  0.00  0.00    +0.229 C 
ENDBRANCH  26  28
ENDBRANCH  24  26
ENDBRANCH  17  24
ENDBRANCH  16  17
ENDBRANCH   1  16
TORSDOF 8
ENDMDL
MODEL 7
REMARK VINA RESULT:      -6.1      2.669      6.348
REMARK  Name = 
REMARK  11 active torsions:
REMARK  status: ('A' for Active; 'I' for Inactive)
REMARK    1  A    between atoms: C_1  and  C_2
REMARK    2  A    between atoms: C_2  and  O_3
REMARK    3  A    between atoms: O_3  and  C_4
REMARK    4  A    between atoms: C_4  and  C_6
REMARK    5  A    between atoms: C_6  and  C_7
REMARK    6  A    between atoms: C_6  and  N_10
REMARK    7  A    between atoms: C_6  and  O_11
REMARK    8  A    between atoms: C_7  and  C_8
REMARK    9  A    between atoms: C_7  and  C_9
REMARK   10  A    between atoms: O_11  and  C_12
REMARK   11  A    between atoms: C_12  and  N_13
REMARK                            x       y       z     vdW  Elec       q    Type
REMARK                         _______ _______ _______ _____ _____    ______ ____
ROOT
ATOM      1  C   UNL     1       8.338  -1.293  25.004  0.00  0.00    +0.290 C 
ENDROOT
BRANCH   1   2
ATOM      2  N   UNL     1       7.463  -0.222  24.554  0.00  0.00    -0.291 N 
ATOM      3  C   UNL     1       7.829   0.765  23.681  0.00  0.00    +0.171 A 
ATOM      4  N   UNL     1       9.056   0.953  23.140  0.00  0.00    -0.196 NA
ATOM      5  C   UNL     1       9.099   1.953  22.299  0.00  0.00    +0.195 A 
ATOM      6  N   UNL     1      10.260   2.260  21.666  0.00  0.00    -0.329 N 
ATOM      7  H   UNL     1      10.419   3.231  21.427  0.00  0.00    +0.145 HD
ATOM      8  H   UNL     1      11.066   1.817  22.095  0.00  0.00    +0.145 HD
ATOM      9  N   UNL     1       8.014   2.750  21.996  0.00  0.00    -0.293 N 
ATOM     10  H   UNL     1       8.094   3.473  21.302  0.00  0.00    +0.172 HD
ATOM     11  C   UNL     1       6.742   2.584  22.524  0.00  0.00    +0.280 A 
ATOM     12  O   UNL     1       5.808   3.313  22.193  0.00  0.00    -0.265 OA
ATOM     13  C   UNL     1       6.674   1.481  23.456  0.00  0.00    +0.172 A 
ATOM     14  N   UNL     1       5.618   0.972  24.168  0.00  0.00    -0.229 NA
ATOM     15  C   UNL     1       6.130  -0.058  24.818  0.00  0.00    +0.203 A 
ENDBRANCH   1   2
BRANCH   1  16
ATOM     16  O   UNL     1       7.664  -2.548  24.901  0.00  0.00    -0.328 OA
BRANCH  16  17
ATOM     17  C   UNL     1       8.296  -3.495  24.044  0.00  0.00    +0.220 C 
BRANCH  17  18
ATOM     18  N   UNL     1       9.654  -2.974  23.792  0.00  0.00    -0.294 NA
ATOM     19  H   UNL     1      10.270  -3.253  24.549  0.00  0.00    +0.121 HD
ATOM     20  H   UNL     1      10.023  -3.355  22.925  0.00  0.00    +0.121 HD
ENDBRANCH  17  18
BRANCH  17  21
ATOM     21  C   UNL     1       8.388  -4.904  24.733  0.00  0.00    +0.041 C 
ATOM     22  C   UNL     1       7.227  -5.172  25.704  0.00  0.00    +0.012 C 
ATOM     23  C   UNL     1       9.717  -5.178  25.453  0.00  0.00    +0.012 C 
ENDBRANCH  17  21
BRANCH  17  24
ATOM     24  C   UNL     1       7.554  -3.649  22.653  0.00  0.00    +0.355 C 
ATOM     25  O   UNL     1       7.053  -2.711  22.040  0.00  0.00    -0.246 OA
BRANCH  24  26
ATOM     26  O   UNL     1       7.498  -4.950  22.252  0.00  0.00    -0.462 OA
BRANCH  26  28
ATOM     27  C   UNL     1       5.275  -5.751  22.535  0.00  0.00    +0.048 C 
ATOM     28  C   UNL     1       6.324  -5.323  21.523  0.00  0.00    +0.229 C 
ENDBRANCH  26  28
ENDBRANCH  24  26
ENDBRANCH  17  24
ENDBRANCH  16  17
ENDBRANCH   1  16
TORSDOF 8
ENDMDL
MODEL 8
REMARK VINA RESULT:      -6.0      2.893      6.251
REMARK  Name = 
REMARK  11 active torsions:
REMARK  status: ('A' for Active; 'I' for Inactive)
REMARK    1  A    between atoms: C_1  and  C_2
REMARK    2  A    between atoms: C_2  and  O_3
REMARK    3  A    between atoms: O_3  and  C_4
REMARK    4  A    between atoms: C_4  and  C_6
REMARK    5  A    between atoms: C_6  and  C_7
REMARK    6  A    between atoms: C_6  and  N_10
REMARK    7  A    between atoms: C_6  and  O_11
REMARK    8  A    between atoms: C_7  and  C_8
REMARK    9  A    between atoms: C_7  and  C_9
REMARK   10  A    between atoms: O_11  and  C_12
REMARK   11  A    between atoms: C_12  and  N_13
REMARK                            x       y       z     vdW  Elec       q    Type
REMARK                         _______ _______ _______ _____ _____    ______ ____
ROOT
ATOM      1  C   UNL     1       7.349  -1.424  22.781  0.00  0.00    +0.290 C 
ENDROOT
BRANCH   1   2
ATOM      2  N   UNL     1       8.283  -0.326  22.590  0.00  0.00    -0.291 N 
ATOM      3  C   UNL     1       8.448   0.715  23.461  0.00  0.00    +0.171 A 
ATOM      4  N   UNL     1       7.747   0.936  24.599  0.00  0.00    -0.196 NA
ATOM      5  C   UNL     1       8.157   1.988  25.258  0.00  0.00    +0.195 A 
ATOM      6  N   UNL     1       7.559   2.334  26.427  0.00  0.00    -0.329 N 
ATOM      7  H   UNL     1       7.529   3.318  26.662  0.00  0.00    +0.145 HD
ATOM      8  H   UNL     1       6.669   1.864  26.563  0.00  0.00    +0.145 HD
ATOM      9  N   UNL     1       9.189   2.803  24.840  0.00  0.00    -0.293 N 
ATOM     10  H   UNL     1       9.494   3.570  25.415  0.00  0.00    +0.172 HD
ATOM     11  C   UNL     1       9.932   2.606  23.686  0.00  0.00    +0.280 A 
ATOM     12  O   UNL     1      10.858   3.355  23.381  0.00  0.00    -0.265 OA
ATOM     13  C   UNL     1       9.494   1.444  22.943  0.00  0.00    +0.172 A 
ATOM     14  N   UNL     1       9.969   0.892  21.781  0.00  0.00    -0.229 NA
ATOM     15  C   UNL     1       9.216  -0.178  21.599  0.00  0.00    +0.203 A 
ENDBRANCH   1   2
BRANCH   1  16
ATOM     16  O   UNL     1       8.027  -2.673  22.628  0.00  0.00    -0.328 OA
BRANCH  16  17
ATOM     17  C   UNL     1       8.428  -3.287  23.850  0.00  0.00    +0.220 C 
BRANCH  17  18
ATOM     18  N   UNL     1       9.872  -3.016  23.987  0.00  0.00    -0.294 NA
ATOM     19  H   UNL     1      10.154  -2.325  23.299  0.00  0.00    +0.121 HD
ATOM     20  H   UNL     1      10.075  -2.646  24.911  0.00  0.00    +0.121 HD
ENDBRANCH  17  18
BRANCH  17  21
ATOM     21  C   UNL     1       7.654  -2.669  25.070  0.00  0.00    +0.041 C 
ATOM     22  C   UNL     1       8.589  -2.187  26.190  0.00  0.00    +0.012 C 
ATOM     23  C   UNL     1       6.579  -3.585  25.675  0.00  0.00    +0.012 C 
ENDBRANCH  17  21
BRANCH  17  24
ATOM     24  C   UNL     1       8.211  -4.856  23.843  0.00  0.00    +0.355 C 
ATOM     25  O   UNL     1       8.992  -5.654  24.352  0.00  0.00    -0.246 OA
BRANCH  24  26
ATOM     26  O   UNL     1       7.083  -5.207  23.163  0.00  0.00    -0.462 OA
BRANCH  26  28
ATOM     27  C   UNL     1       6.214  -5.678  20.999  0.00  0.00    +0.048 C 
ATOM     28  C   UNL     1       7.287  -6.035  22.013  0.00  0.00    +0.229 C 
ENDBRANCH  26  28
ENDBRANCH  24  26
ENDBRANCH  17  24
ENDBRANCH  16  17
ENDBRANCH   1  16
TORSDOF 8
ENDMDL
MODEL 9
REMARK VINA RESULT:      -5.9      2.836      6.844
REMARK  Name = 
REMARK  11 active torsions:
REMARK  status: ('A' for Active; 'I' for Inactive)
REMARK    1  A    between atoms: C_1  and  C_2
REMARK    2  A    between atoms: C_2  and  O_3
REMARK    3  A    between atoms: O_3  and  C_4
REMARK    4  A    between atoms: C_4  and  C_6
REMARK    5  A    between atoms: C_6  and  C_7
REMARK    6  A    between atoms: C_6  and  N_10
REMARK    7  A    between atoms: C_6  and  O_11
REMARK    8  A    between atoms: C_7  and  C_8
REMARK    9  A    between atoms: C_7  and  C_9
REMARK   10  A    between atoms: O_11  and  C_12
REMARK   11  A    between atoms: C_12  and  N_13
REMARK                            x       y       z     vdW  Elec       q    Type
REMARK                         _______ _______ _______ _____ _____    ______ ____
ROOT
ATOM      1  C   UNL     1       7.521  -0.937  24.879  0.00  0.00    +0.290 C 
ENDROOT
BRANCH   1   2
ATOM      2  N   UNL     1       8.659  -0.076  24.602  0.00  0.00    -0.291 N 
ATOM      3  C   UNL     1       8.610   1.055  23.834  0.00  0.00    +0.171 A 
ATOM      4  N   UNL     1       7.534   1.531  23.163  0.00  0.00    -0.196 NA
ATOM      5  C   UNL     1       7.769   2.662  22.550  0.00  0.00    +0.195 A 
ATOM      6  N   UNL     1       6.784   3.270  21.843  0.00  0.00    -0.329 N 
ATOM      7  H   UNL     1       7.058   3.819  21.037  0.00  0.00    +0.145 HD
ATOM      8  H   UNL     1       6.000   2.653  21.657  0.00  0.00    +0.145 HD
ATOM      9  N   UNL     1       8.990   3.306  22.569  0.00  0.00    -0.293 N 
ATOM     10  H   UNL     1       9.098   4.200  22.121  0.00  0.00    +0.172 HD
ATOM     11  C   UNL     1      10.111   2.853  23.249  0.00  0.00    +0.280 A 
ATOM     12  O   UNL     1      11.164   3.488  23.248  0.00  0.00    -0.265 OA
ATOM     13  C   UNL     1       9.869   1.603  23.935  0.00  0.00    +0.172 A 
ATOM     14  N   UNL     1      10.689   0.843  24.729  0.00  0.00    -0.229 NA
ATOM     15  C   UNL     1       9.925  -0.162  25.117  0.00  0.00    +0.203 A 
ENDBRANCH   1   2
BRANCH   1  16
ATOM     16  O   UNL     1       7.537  -2.064  24.002  0.00  0.00    -0.328 OA
BRANCH  16  17
ATOM     17  C   UNL     1       7.425  -3.327  24.653  0.00  0.00    +0.220 C 
BRANCH  17  18
ATOM     18  N   UNL     1       8.151  -3.193  25.931  0.00  0.00    -0.294 NA
ATOM     19  H   UNL     1       7.866  -3.934  26.562  0.00  0.00    +0.121 HD
ATOM     20  H   UNL     1       9.152  -3.272  25.777  0.00  0.00    +0.121 HD
ENDBRANCH  17  18
BRANCH  17  21
ATOM     21  C   UNL     1       5.921  -3.684  24.932  0.00  0.00    +0.041 C 
ATOM     22  C   UNL     1       5.718  -5.154  25.329  0.00  0.00    +0.012 C 
ATOM     23  C   UNL     1       4.958  -3.337  23.787  0.00  0.00    +0.012 C 
ENDBRANCH  17  21
BRANCH  17  24
ATOM     24  C   UNL     1       8.087  -4.502  23.822  0.00  0.00    +0.355 C 
ATOM     25  O   UNL     1       8.942  -5.259  24.273  0.00  0.00    -0.246 OA
BRANCH  24  26
ATOM     26  O   UNL     1       7.629  -4.534  22.539  0.00  0.00    -0.462 OA
BRANCH  26  28
ATOM     27  C   UNL     1       6.182  -5.660  21.022  0.00  0.00    +0.048 C 
ATOM     28  C   UNL     1       7.307  -5.832  22.029  0.00  0.00    +0.229 C 
ENDBRANCH  26  28
ENDBRANCH  24  26
ENDBRANCH  17  24
ENDBRANCH  16  17
ENDBRANCH   1  16
TORSDOF 8
ENDMDL
