MODEL 1
REMARK VINA RESULT:      -6.0      0.000      0.000
REMARK  Name = 
REMARK  4 active torsions:
REMARK  status: ('A' for Active; 'I' for Inactive)
REMARK    1  A    between atoms: C3*_2  and  O3*_20
REMARK    2  A    between atoms: C4*_4  and  C5*_18
REMARK    3  A    between atoms: C1*_7  and  N_9
REMARK    4  A    between atoms: C5*_18  and  O5*_19
REMARK                            x       y       z     vdW  Elec       q    Type
REMARK                         _______ _______ _______ _____ _____    ______ ____
ROOT
ATOM      1  C2* UNL     1       7.730  -2.095  23.256  0.00  0.00    +0.088 C 
ATOM      2  C1* UNL     1       8.770  -3.064  23.817  0.00  0.00    +0.226 C 
ATOM      3  O4* UNL     1       9.924  -2.288  24.203  0.00  0.00    -0.348 OA
ATOM      4  C4* UNL     1       9.672  -0.919  23.853  0.00  0.00    +0.175 C 
ATOM      5  C3* UNL     1       8.155  -0.778  23.862  0.00  0.00    +0.150 C 
ENDROOT
BRANCH   2   6
ATOM      6  N   UNL     1       8.282  -3.842  24.955  0.00  0.00    -0.273 N 
ATOM      7  C   UNL     1       9.068  -4.910  25.369  0.00  0.00    +0.331 A 
ATOM      8  O   UNL     1      10.116  -5.243  24.823  0.00  0.00    -0.246 OA
ATOM      9  N   UNL     1       8.603  -5.603  26.453  0.00  0.00    -0.274 N 
ATOM     10  H   UNL     1       9.180  -6.356  26.794  0.00  0.00    +0.173 HD
ATOM     11  C   UNL     1       7.455  -5.345  27.155  0.00  0.00    +0.267 A 
ATOM     12  O   UNL     1       7.164  -6.000  28.150  0.00  0.00    -0.267 OA
ATOM     13  C   UNL     1       6.611  -4.240  26.624  0.00  0.00    +0.094 A 
ATOM     14  I   UNL     1       4.823  -3.802  27.507  0.00  0.00    -0.037 I 
ATOM     15  C   UNL     1       7.073  -3.557  25.568  0.00  0.00    +0.113 A 
ENDBRANCH   2   6
BRANCH   5  16
ATOM     16  O3* UNL     1       7.688   0.352  23.146  0.00  0.00    -0.389 OA
ATOM     17  H3* UNL     1       8.180   1.140  23.442  0.00  0.00    +0.210 HD
ENDBRANCH   5  16
BRANCH   4  18
ATOM     18  C5* UNL     1      10.370   0.037  24.818  0.00  0.00    +0.190 C 
BRANCH  18  19
ATOM     19  O5* UNL     1       9.499   1.069  25.263  0.00  0.00    -0.392 OA
ATOM     20  H5* UNL     1       8.755   1.133  24.632  0.00  0.00    +0.210 HD
ENDBRANCH  18  19
ENDBRANCH   4  18
TORSDOF 4
ENDMDL
MODEL 2
REMARK VINA RESULT:      -5.7      1.881      2.368
REMARK  Name = 
REMARK  4 active torsions:
REMARK  status: ('A' for Active; 'I' for Inactive)
REMARK    1  A    between atoms: C3*_2  and  O3*_20
REMARK    2  A    between atoms: C4*_4  and  C5*_18
REMARK    3  A    between atoms: C1*_7  and  N_9
REMARK    4  A    between atoms: C5*_18  and  O5*_19
REMARK                            x       y       z     vdW  Elec       q    Type
REMARK                         _______ _______ _______ _____ _____    ______ ____
ROOT
ATOM      1  C2* UNL     1       9.850  -2.764  23.795  0.00  0.00    +0.088 C 
ATOM      2  C1* UNL     1       8.933  -2.515  24.993  0.00  0.00    +0.226 C 
ATOM      3  O4* UNL     1       8.207  -1.295  24.739  0.00  0.00    -0.348 OA
ATOM      4  C4* UNL     1       8.672  -0.756  23.492  0.00  0.00    +0.175 C 
ATOM      5  C3* UNL     1       9.184  -1.957  22.706  0.00  0.00    +0.150 C 
ENDROOT
BRANCH   2   6
ATOM      6  N   UNL     1       8.000  -3.613  25.247  0.00  0.00    -0.273 N 
ATOM      7  C   UNL     1       8.418  -4.601  26.129  0.00  0.00    +0.331 A 
ATOM      8  O   UNL     1       9.519  -4.614  26.674  0.00  0.00    -0.246 OA
ATOM      9  N   UNL     1       7.516  -5.600  26.370  0.00  0.00    -0.274 N 
ATOM     10  H   UNL     1       7.786  -6.305  27.038  0.00  0.00    +0.173 HD
ATOM     11  C   UNL     1       6.261  -5.714  25.831  0.00  0.00    +0.267 A 
ATOM     12  O   UNL     1       5.513  -6.626  26.165  0.00  0.00    -0.267 OA
ATOM     13  C   UNL     1       5.892  -4.671  24.836  0.00  0.00    +0.094 A 
ATOM     14  I   UNL     1       4.091  -4.763  23.877  0.00  0.00    -0.037 I 
ATOM     15  C   UNL     1       6.774  -3.689  24.608  0.00  0.00    +0.113 A 
ENDBRANCH   2   6
BRANCH   5  16
ATOM     16  O3* UNL     1      10.056  -1.607  21.646  0.00  0.00    -0.389 OA
ATOM     17  H3* UNL     1      10.441  -2.421  21.269  0.00  0.00    +0.210 HD
ENDBRANCH   5  16
BRANCH   4  18
ATOM     18  C5* UNL     1       7.563   0.006  22.769  0.00  0.00    +0.190 C 
BRANCH  18  19
ATOM     19  O5* UNL     1       6.310  -0.657  22.875  0.00  0.00    -0.392 OA
ATOM     20  H5* UNL     1       6.480  -1.614  22.981  0.00  0.00    +0.210 HD
ENDBRANCH  18  19
ENDBRANCH   4  18
TORSDOF 4
ENDMDL
MODEL 3
REMARK VINA RESULT:      -5.5      2.978      5.736
REMARK  Name = 
REMARK  4 active torsions:
REMARK  status: ('A' for Active; 'I' for Inactive)
REMARK    1  A    between atoms: C3*_2  and  O3*_20
REMARK    2  A    between atoms: C4*_4  and  C5*_18
REMARK    3  A    between atoms: C1*_7  and  N_9
REMARK    4  A    between atoms: C5*_18  and  O5*_19
REMARK                            x       y       z     vdW  Elec       q    Type
REMARK                         _______ _______ _______ _____ _____    ______ ____
ROOT
ATOM      1  C2* UNL     1       7.834  -4.512  23.316  0.00  0.00    +0.088 C 
ATOM      2  C1* UNL     1       6.633  -3.761  23.892  0.00  0.00    +0.226 C 
ATOM      3  O4* UNL     1       6.517  -4.127  25.283  0.00  0.00    -0.348 OA
ATOM      4  C4* UNL     1       7.534  -5.100  25.569  0.00  0.00    +0.175 C 
ATOM      5  C3* UNL     1       8.638  -4.832  24.554  0.00  0.00    +0.150 C 
ENDROOT
BRANCH   2   6
ATOM      6  N   UNL     1       6.741  -2.309  23.760  0.00  0.00    -0.273 N 
ATOM      7  C   UNL     1       5.731  -1.549  24.336  0.00  0.00    +0.331 A 
ATOM      8  O   UNL     1       4.758  -2.026  24.916  0.00  0.00    -0.246 OA
ATOM      9  N   UNL     1       5.870  -0.193  24.223  0.00  0.00    -0.274 N 
ATOM     10  H   UNL     1       5.168   0.376  24.670  0.00  0.00    +0.173 HD
ATOM     11  C   UNL     1       6.896   0.472  23.605  0.00  0.00    +0.267 A 
ATOM     12  O   UNL     1       6.948   1.698  23.613  0.00  0.00    -0.267 OA
ATOM     13  C   UNL     1       7.911  -0.388  22.938  0.00  0.00    +0.094 A 
ATOM     14  I   UNL     1       9.447   0.462  21.894  0.00  0.00    -0.037 I 
ATOM     15  C   UNL     1       7.777  -1.715  23.058  0.00  0.00    +0.113 A 
ENDBRANCH   2   6
BRANCH   5  16
ATOM     16  O3* UNL     1       9.526  -5.922  24.385  0.00  0.00    -0.389 OA
ATOM     17  H3* UNL     1       9.024  -6.755  24.455  0.00  0.00    +0.210 HD
ENDBRANCH   5  16
BRANCH   4  18
ATOM     18  C5* UNL     1       8.010  -4.994  27.016  0.00  0.00    +0.190 C 
BRANCH  18  19
ATOM     19  O5* UNL     1       7.616  -6.122  27.787  0.00  0.00    -0.392 OA
ATOM     20  H5* UNL     1       7.372  -5.810  28.681  0.00  0.00    +0.210 HD
ENDBRANCH  18  19
ENDBRANCH   4  18
TORSDOF 4
ENDMDL
MODEL 4
REMARK VINA RESULT:      -5.5      2.123      5.349
REMARK  Name = 
REMARK  4 active torsions:
REMARK  status: ('A' for Active; 'I' for Inactive)
REMARK    1  A    between atoms: C3*_2  and  O3*_20
REMARK    2  A    between atoms: C4*_4  and  C5*_18
REMARK    3  A    between atoms: C1*_7  and  N_9
REMARK    4  A    between atoms: C5*_18  and  O5*_19
REMARK                            x       y       z     vdW  Elec       q    Type
REMARK                         _______ _______ _______ _____ _____    ______ ____
ROOT
ATOM      1  C2* UNL     1       9.161  -4.730  26.179  0.00  0.00    +0.088 C 
ATOM      2  C1* UNL     1       8.848  -4.077  24.833  0.00  0.00    +0.226 C 
ATOM      3  O4* UNL     1       7.531  -4.511  24.435  0.00  0.00    -0.348 OA
ATOM      4  C4* UNL     1       7.053  -5.435  25.424  0.00  0.00    +0.175 C 
ATOM      5  C3* UNL     1       7.784  -5.058  26.707  0.00  0.00    +0.150 C 
ENDROOT
BRANCH   2   6
ATOM      6  N   UNL     1       8.908  -2.616  24.870  0.00  0.00    -0.273 N 
ATOM      7  C   UNL     1       9.788  -2.001  23.990  0.00  0.00    +0.331 A 
ATOM      8  O   UNL     1      10.523  -2.610  23.216  0.00  0.00    -0.246 OA
ATOM      9  N   UNL     1       9.804  -0.634  24.025  0.00  0.00    -0.274 N 
ATOM     10  H   UNL     1      10.407  -0.168  23.365  0.00  0.00    +0.173 HD
ATOM     11  C   UNL     1       9.045   0.170  24.835  0.00  0.00    +0.267 A 
ATOM     12  O   UNL     1       9.100   1.391  24.740  0.00  0.00    -0.267 OA
ATOM     13  C   UNL     1       8.175  -0.540  25.811  0.00  0.00    +0.094 A 
ATOM     14  I   UNL     1       7.057   0.524  27.149  0.00  0.00    -0.037 I 
ATOM     15  C   UNL     1       8.155  -1.879  25.769  0.00  0.00    +0.113 A 
ENDBRANCH   2   6
BRANCH   5  16
ATOM     16  O3* UNL     1       7.781  -6.086  27.681  0.00  0.00    -0.389 OA
ATOM     17  H3* UNL     1       7.607  -5.694  28.557  0.00  0.00    +0.210 HD
ENDBRANCH   5  16
BRANCH   4  18
ATOM     18  C5* UNL     1       5.533  -5.366  25.557  0.00  0.00    +0.190 C 
BRANCH  18  19
ATOM     19  O5* UNL     1       5.026  -6.408  26.381  0.00  0.00    -0.392 OA
ATOM     20  H5* UNL     1       5.742  -6.699  26.979  0.00  0.00    +0.210 HD
ENDBRANCH  18  19
ENDBRANCH   4  18
TORSDOF 4
ENDMDL
MODEL 5
REMARK VINA RESULT:      -5.5      2.296      3.114
REMARK  Name = 
REMARK  4 active torsions:
REMARK  status: ('A' for Active; 'I' for Inactive)
REMARK    1  A    between atoms: C3*_2  and  O3*_20
REMARK    2  A    between atoms: C4*_4  and  C5*_18
REMARK    3  A    between atoms: C1*_7  and  N_9
REMARK    4  A    between atoms: C5*_18  and  O5*_19
REMARK                            x       y       z     vdW  Elec       q    Type
REMARK                         _______ _______ _______ _____ _____    ______ ____
ROOT
ATOM      1  C2* UNL     1      10.204   0.164  22.523  0.00  0.00    +0.088 C 
ATOM      2  C1* UNL     1      10.236  -0.241  23.996  0.00  0.00    +0.226 C 
ATOM      3  O4* UNL     1      10.059   0.957  24.781  0.00  0.00    -0.348 OA
ATOM      4  C4* UNL     1       9.985   2.069  23.876  0.00  0.00    +0.175 C 
ATOM      5  C3* UNL     1       9.471   1.483  22.566  0.00  0.00    +0.150 C 
ENDROOT
BRANCH   2   6
ATOM      6  N   UNL     1       9.217  -1.229  24.349  0.00  0.00    -0.273 N 
ATOM      7  C   UNL     1       9.485  -2.552  24.022  0.00  0.00    +0.331 A 
ATOM      8  O   UNL     1      10.501  -2.923  23.440  0.00  0.00    -0.246 OA
ATOM      9  N   UNL     1       8.528  -3.459  24.387  0.00  0.00    -0.274 N 
ATOM     10  H   UNL     1       8.723  -4.429  24.195  0.00  0.00    +0.173 HD
ATOM     11  C   UNL     1       7.351  -3.187  25.035  0.00  0.00    +0.267 A 
ATOM     12  O   UNL     1       6.591  -4.090  25.366  0.00  0.00    -0.267 OA
ATOM     13  C   UNL     1       7.078  -1.747  25.293  0.00  0.00    +0.094 A 
ATOM     14  I   UNL     1       5.321  -1.179  26.165  0.00  0.00    -0.037 I 
ATOM     15  C   UNL     1       8.021  -0.862  24.942  0.00  0.00    +0.113 A 
ENDBRANCH   2   6
BRANCH   5  16
ATOM     16  O3* UNL     1       9.722   2.308  21.443  0.00  0.00    -0.389 OA
ATOM     17  H3* UNL     1       8.956   2.894  21.300  0.00  0.00    +0.210 HD
ENDBRANCH   5  16
BRANCH   4  18
ATOM     18  C5* UNL     1       9.090   3.176  24.431  0.00  0.00    +0.190 C 
BRANCH  18  19
ATOM     19  O5* UNL     1       8.926   4.240  23.502  0.00  0.00    -0.392 OA
ATOM     20  H5* UNL     1       8.857   5.075  24.005  0.00  0.00    +0.210 HD
ENDBRANCH  18  19
ENDBRANCH   4  18
TORSDOF 4
ENDMDL
MODEL 6
REMARK VINA RESULT:      -5.4      3.075      3.248
REMARK  Name = 
REMARK  4 active torsions:
REMARK  status: ('A' for Active; 'I' for Inactive)
REMARK    1  A    between atoms: C3*_2  and  O3*_20
REMARK    2  A    between atoms: C4*_4  and  C5*_18
REMARK    3  A    between atoms: C1*_7  and  N_9
REMARK    4  A    between atoms: C5*_18  and  O5*_19
REMARK                            x       y       z     vdW  Elec       q    Type
REMARK                         _______ _______ _______ _____ _____    ______ ____
ROOT
ATOM      1  C2* UNL     1       6.831  -2.930  22.235  0.00  0.00    +0.088 C 
ATOM      2  C1* UNL     1       7.423  -4.234  22.768  0.00  0.00    +0.226 C 
ATOM      3  O4* UNL     1       8.418  -3.889  23.754  0.00  0.00    -0.348 OA
ATOM      4  C4* UNL     1       8.509  -2.457  23.806  0.00  0.00    +0.175 C 
ATOM      5  C3* UNL     1       7.147  -1.954  23.344  0.00  0.00    +0.150 C 
ENDROOT
BRANCH   2   6
ATOM      6  N   UNL     1       6.425  -5.129  23.351  0.00  0.00    -0.273 N 
ATOM      7  C   UNL     1       5.633  -5.849  22.466  0.00  0.00    +0.331 A 
ATOM      8  O   UNL     1       5.709  -5.754  21.244  0.00  0.00    -0.246 OA
ATOM      9  N   UNL     1       4.727  -6.699  23.038  0.00  0.00    -0.274 N 
ATOM     10  H   UNL     1       4.171  -7.260  22.412  0.00  0.00    +0.173 HD
ATOM     11  C   UNL     1       4.532  -6.902  24.379  0.00  0.00    +0.267 A 
ATOM     12  O   UNL     1       3.727  -7.736  24.780  0.00  0.00    -0.267 OA
ATOM     13  C   UNL     1       5.353  -6.051  25.284  0.00  0.00    +0.094 A 
ATOM     14  I   UNL     1       5.105  -6.173  27.307  0.00  0.00    -0.037 I 
ATOM     15  C   UNL     1       6.245  -5.226  24.721  0.00  0.00    +0.113 A 
ENDBRANCH   2   6
BRANCH   5  16
ATOM     16  O3* UNL     1       7.157  -0.602  22.923  0.00  0.00    -0.389 OA
ATOM     17  H3* UNL     1       6.316  -0.182  23.182  0.00  0.00    +0.210 HD
ENDBRANCH   5  16
BRANCH   4  18
ATOM     18  C5* UNL     1       8.883  -1.976  25.207  0.00  0.00    +0.190 C 
BRANCH  18  19
ATOM     19  O5* UNL     1       9.154  -0.581  25.233  0.00  0.00    -0.392 OA
ATOM     20  H5* UNL     1       9.754  -0.401  25.983  0.00  0.00    +0.210 HD
ENDBRANCH  18  19
ENDBRANCH   4  18
TORSDOF 4
ENDMDL
MODEL 7
REMARK VINA RESULT:      -5.4      3.532      5.670
REMARK  Name = 
REMARK  4 active torsions:
REMARK  status: ('A' for Active; 'I' for Inactive)
REMARK    1  A    between atoms: C3*_2  and  O3*_20
REMARK    2  A    between atoms: C4*_4  and  C5*_18
REMARK    3  A    between atoms: C1*_7  and  N_9
REMARK    4  A    between atoms: C5*_18  and  O5*_19
REMARK                            x       y       z     vdW  Elec       q    Type
REMARK                         _______ _______ _______ _____ _____    ______ ____
ROOT
ATOM      1  C2* UNL     1       6.212  -2.915  24.395  0.00  0.00    +0.088 C 
ATOM      2  C1* UNL     1       7.699  -3.095  24.092  0.00  0.00    +0.226 C 
ATOM      3  O4* UNL     1       7.823  -4.177  23.146  0.00  0.00    -0.348 OA
ATOM      4  C4* UNL     1       6.509  -4.705  22.906  0.00  0.00    +0.175 C 
ATOM      5  C3* UNL     1       5.558  -3.549  23.191  0.00  0.00    +0.150 C 
ENDROOT
BRANCH   2   6
ATOM      6  N   UNL     1       8.333  -1.888  23.562  0.00  0.00    -0.273 N 
ATOM      7  C   UNL     1       9.711  -1.923  23.395  0.00  0.00    +0.331 A 
ATOM      8  O   UNL     1      10.414  -2.887  23.688  0.00  0.00    -0.246 OA
ATOM      9  N   UNL     1      10.275  -0.792  22.871  0.00  0.00    -0.274 N 
ATOM     10  H   UNL     1      11.269  -0.814  22.705  0.00  0.00    +0.173 HD
ATOM     11  C   UNL     1       9.616   0.352  22.503  0.00  0.00    +0.267 A 
ATOM     12  O   UNL     1      10.218   1.288  21.989  0.00  0.00    -0.267 OA
ATOM     13  C   UNL     1       8.152   0.366  22.774  0.00  0.00    +0.094 A 
ATOM     14  I   UNL     1       7.053   2.038  22.367  0.00  0.00    -0.037 I 
ATOM     15  C   UNL     1       7.602  -0.746  23.278  0.00  0.00    +0.113 A 
ENDBRANCH   2   6
BRANCH   5  16
ATOM     16  O3* UNL     1       4.223  -3.962  23.422  0.00  0.00    -0.389 OA
ATOM     17  H3* UNL     1       3.628  -3.201  23.288  0.00  0.00    +0.210 HD
ENDBRANCH   5  16
BRANCH   4  18
ATOM     18  C5* UNL     1       6.383  -5.251  21.485  0.00  0.00    +0.190 C 
BRANCH  18  19
ATOM     19  O5* UNL     1       5.725  -4.333  20.622  0.00  0.00    -0.392 OA
ATOM     20  H5* UNL     1       5.981  -3.428  20.888  0.00  0.00    +0.210 HD
ENDBRANCH  18  19
ENDBRANCH   4  18
TORSDOF 4
ENDMDL
MODEL 8
REMARK VINA RESULT:      -5.4      3.475      5.276
REMARK  Name = 
REMARK  4 active torsions:
REMARK  status: ('A' for Active; 'I' for Inactive)
REMARK    1  A    between atoms: C3*_2  and  O3*_20
REMARK    2  A    between atoms: C4*_4  and  C5*_18
REMARK    3  A    between atoms: C1*_7  and  N_9
REMARK    4  A    between atoms: C5*_18  and  O5*_19
REMARK                            x       y       z     vdW  Elec       q    Type
REMARK                         _______ _______ _______ _____ _____    ______ ____
ROOT
ATOM      1  C2* UNL     1       6.346  -5.284  24.665  0.00  0.00    +0.088 C 
ATOM      2  C1* UNL     1       7.813  -5.080  24.291  0.00  0.00    +0.226 C 
ATOM      3  O4* UNL     1       7.969  -5.471  22.911  0.00  0.00    -0.348 OA
ATOM      4  C4* UNL     1       6.701  -5.959  22.445  0.00  0.00    +0.175 C 
ATOM      5  C3* UNL     1       5.663  -5.265  23.318  0.00  0.00    +0.150 C 
ENDROOT
BRANCH   2   6
ATOM      6  N   UNL     1       8.273  -3.704  24.479  0.00  0.00    -0.273 N 
ATOM      7  C   UNL     1       8.349  -3.241  25.786  0.00  0.00    +0.331 A 
ATOM      8  O   UNL     1       8.029  -3.904  26.769  0.00  0.00    -0.246 OA
ATOM      9  N   UNL     1       8.809  -1.961  25.936  0.00  0.00    -0.274 N 
ATOM     10  H   UNL     1       8.909  -1.621  26.879  0.00  0.00    +0.173 HD
ATOM     11  C   UNL     1       9.195  -1.111  24.933  0.00  0.00    +0.267 A 
ATOM     12  O   UNL     1       9.648   0.000  25.189  0.00  0.00    -0.267 OA
ATOM     13  C   UNL     1       9.023  -1.630  23.549  0.00  0.00    +0.094 A 
ATOM     14  I   UNL     1       9.467  -0.441  21.948  0.00  0.00    -0.037 I 
ATOM     15  C   UNL     1       8.581  -2.885  23.405  0.00  0.00    +0.113 A 
ENDBRANCH   2   6
BRANCH   5  16
ATOM     16  O3* UNL     1       4.401  -5.908  23.313  0.00  0.00    -0.389 OA
ATOM     17  H3* UNL     1       4.500  -6.800  22.930  0.00  0.00    +0.210 HD
ENDBRANCH   5  16
BRANCH   4  18
ATOM     18  C5* UNL     1       6.516  -5.682  20.955  0.00  0.00    +0.190 C 
BRANCH  18  19
ATOM     19  O5* UNL     1       5.750  -4.506  20.726  0.00  0.00    -0.392 OA
ATOM     20  H5* UNL     1       5.755  -4.321  19.767  0.00  0.00    +0.210 HD
ENDBRANCH  18  19
ENDBRANCH   4  18
TORSDOF 4
ENDMDL
MODEL 9
REMARK VINA RESULT:      -5.3      2.879      3.637
REMARK  Name = 
REMARK  4 active torsions:
REMARK  status: ('A' for Active; 'I' for Inactive)
REMARK    1  A    between atoms: C3*_2  and  O3*_20
REMARK    2  A    between atoms: C4*_4  and  C5*_18
REMARK    3  A    between atoms: C1*_7  and  N_9
REMARK    4  A    between atoms: C5*_18  and  O5*_19
REMARK                            x       y       z     vdW  Elec       q    Type
REMARK                         _______ _______ _______ _____ _____    ______ ____
ROOT
ATOM      1  C2* UNL     1      10.234  -0.006  22.876  0.00  0.00    +0.088 C 
ATOM      2  C1* UNL     1       9.986  -0.221  24.369  0.00  0.00    +0.226 C 
ATOM      3  O4* UNL     1       9.805   1.077  24.972  0.00  0.00    -0.348 OA
ATOM      4  C4* UNL     1       9.990   2.068  23.949  0.00  0.00    +0.175 C 
ATOM      5  C3* UNL     1       9.640   1.363  22.644  0.00  0.00    +0.150 C 
ENDROOT
BRANCH   2   6
ATOM      6  N   UNL     1       8.829  -1.072  24.648  0.00  0.00    -0.273 N 
ATOM      7  C   UNL     1       8.518  -1.291  25.983  0.00  0.00    +0.331 A 
ATOM      8  O   UNL     1       9.167  -0.838  26.923  0.00  0.00    -0.246 OA
ATOM      9  N   UNL     1       7.416  -2.066  26.216  0.00  0.00    -0.274 N 
ATOM     10  H   UNL     1       7.150  -2.203  27.178  0.00  0.00    +0.173 HD
ATOM     11  C   UNL     1       6.605  -2.637  25.269  0.00  0.00    +0.267 A 
ATOM     12  O   UNL     1       5.605  -3.268  25.593  0.00  0.00    -0.267 OA
ATOM     13  C   UNL     1       7.027  -2.434  23.856  0.00  0.00    +0.094 A 
ATOM     14  I   UNL     1       5.971  -3.304  22.339  0.00  0.00    -0.037 I 
ATOM     15  C   UNL     1       8.101  -1.667  23.631  0.00  0.00    +0.113 A 
ENDBRANCH   2   6
BRANCH   5  16
ATOM     16  O3* UNL     1      10.150   2.016  21.496  0.00  0.00    -0.389 OA
ATOM     17  H3* UNL     1      10.736   1.401  21.015  0.00  0.00    +0.210 HD
ENDBRANCH   5  16
BRANCH   4  18
ATOM     18  C5* UNL     1       9.132   3.304  24.214  0.00  0.00    +0.190 C 
BRANCH  18  19
ATOM     19  O5* UNL     1       9.109   4.181  23.096  0.00  0.00    -0.392 OA
ATOM     20  H5* UNL     1       8.329   4.764  23.182  0.00  0.00    +0.210 HD
ENDBRANCH  18  19
ENDBRANCH   4  18
TORSDOF 4
ENDMDL
