MODEL 1
REMARK VINA RESULT:      -5.8      0.000      0.000
REMARK  Name = 
REMARK  18 active torsions:
REMARK  status: ('A' for Active; 'I' for Inactive)
REMARK    1  A    between atoms: C_1  and  C_2
REMARK    2  A    between atoms: C_2  and  C_3
REMARK    3  A    between atoms: C_3  and  C_4
REMARK    4  A    between atoms: C_4  and  C_5
REMARK    5  A    between atoms: C_5  and  C_6
REMARK    6  A    between atoms: C_6  and  C_7
REMARK    7  A    between atoms: C_7  and  C_8
REMARK    8  A    between atoms: C_8  and  C_9
REMARK    9  A    between atoms: C_9  and  C_10
REMARK   10  A    between atoms: C_10  and  O_12
REMARK   11  A    between atoms: O_12  and  C_13
REMARK   12  A    between atoms: C_13  and  C_14
REMARK   13  A    between atoms: C_14  and  N_15
REMARK   14  A    between atoms: N_18  and  C_21
REMARK   15  A    between atoms: C_21  and  C_22
REMARK   16  A    between atoms: C_22  and  C_23
REMARK   17  A    between atoms: C_23  and  N_24
REMARK   18  A    between atoms: C_35  and  C_38
REMARK                            x       y       z     vdW  Elec       q    Type
REMARK                         _______ _______ _______ _____ _____    ______ ____
ROOT
ATOM      1  C   UNL     1       4.817   0.050  26.326  0.00  0.00    +0.086 C 
ENDROOT
BRANCH   1   5
ATOM      2  N   UNL     1       3.321  -2.711  28.315  0.00  0.00    -0.297 NA
ATOM      3  C   UNL     1       4.168  -2.904  27.109  0.00  0.00    +0.100 C 
ATOM      4  C   UNL     1       5.516  -2.130  27.113  0.00  0.00    +0.100 C 
ATOM      5  N   UNL     1       5.398  -0.694  27.454  0.00  0.00    -0.300 NA
ATOM      6  C   UNL     1       4.604  -0.563  28.691  0.00  0.00    +0.100 C 
ATOM      7  C   UNL     1       3.231  -1.261  28.599  0.00  0.00    +0.100 C 
BRANCH   2   8
ATOM      8  C   UNL     1       3.893  -3.459  29.449  0.00  0.00    +0.125 C 
BRANCH   8   9
ATOM      9  C   UNL     1       4.136  -4.952  29.180  0.00  0.00    +0.247 C 
BRANCH   9  10
ATOM     10  O   UNL     1       5.534  -5.251  29.313  0.00  0.00    -0.463 OA
BRANCH  10  11
ATOM     11  C   UNL     1       6.061  -5.919  28.246  0.00  0.00    +0.307 C 
ATOM     12  O   UNL     1       7.259  -6.026  27.999  0.00  0.00    -0.251 OA
BRANCH  11  13
ATOM     13  C   UNL     1       4.971  -6.525  27.418  0.00  0.00    +0.120 C 
BRANCH  13  14
ATOM     14  C   UNL     1       5.285  -6.297  25.949  0.00  0.00    +0.011 C 
BRANCH  14  15
ATOM     15  C   UNL     1       4.195  -6.875  25.058  0.00  0.00    +0.001 C 
BRANCH  15  16
ATOM     16  C   UNL     1       4.149  -6.132  23.727  0.00  0.00    +0.000 C 
BRANCH  16  17
ATOM     17  C   UNL     1       3.831  -4.657  23.941  0.00  0.00    +0.000 C 
BRANCH  17  18
ATOM     18  C   UNL     1       4.902  -3.773  23.312  0.00  0.00    -0.000 C 
BRANCH  18  19
ATOM     19  C   UNL     1       5.501  -4.444  22.078  0.00  0.00    -0.000 C 
BRANCH  19  21
ATOM     20  C   UNL     1       7.527  -5.923  22.184  0.00  0.00    +0.004 C 
ATOM     21  C   UNL     1       7.024  -4.490  22.158  0.00  0.00    -0.003 C 
ENDBRANCH  19  21
ENDBRANCH  18  19
ENDBRANCH  17  18
ENDBRANCH  16  17
ENDBRANCH  15  16
ENDBRANCH  14  15
ENDBRANCH  13  14
ENDBRANCH  11  13
ENDBRANCH  10  11
ENDBRANCH   9  10
ENDBRANCH   8   9
ENDBRANCH   2   8
ENDBRANCH   1   5
BRANCH   1  22
ATOM     22  C   UNL     1       5.830   0.935  25.602  0.00  0.00    +0.035 C 
BRANCH  22  23
ATOM     23  C   UNL     1       7.168   1.075  26.346  0.00  0.00    +0.112 C 
BRANCH  23  24
ATOM     24  N   UNL     1       8.330   1.215  25.426  0.00  0.00    -0.298 N 
ATOM     25  C   UNL     1       8.872   0.023  24.848  0.00  0.00    +0.048 A 
ATOM     26  C   UNL     1       8.632  -1.268  25.379  0.00  0.00    +0.037 A 
ATOM     27  C   UNL     1       9.134  -2.457  24.805  0.00  0.00    +0.057 A 
ATOM     28  C   UNL     1       9.946  -2.367  23.680  0.00  0.00    +0.013 A 
ATOM     29  C   UNL     1      10.229  -1.117  23.143  0.00  0.00    +0.017 A 
ATOM     30  C   UNL     1       9.701   0.064  23.708  0.00  0.00    +0.034 A 
ATOM     31  S   UNL     1      10.139   1.553  22.847  0.00  0.00    -0.086 S 
ATOM     32  C   UNL     1       9.293   2.803  23.775  0.00  0.00    +0.034 A 
ATOM     33  C   UNL     1       9.391   4.110  23.255  0.00  0.00    +0.017 A 
ATOM     34  C   UNL     1       8.769   5.186  23.877  0.00  0.00    +0.001 A 
ATOM     35  C   UNL     1       8.082   4.973  25.057  0.00  0.00    +0.002 A 
ATOM     36  C   UNL     1       8.006   3.682  25.590  0.00  0.00    +0.024 A 
ATOM     37  C   UNL     1       8.551   2.547  24.941  0.00  0.00    +0.048 A 
BRANCH  27  38
ATOM     38  C   UNL     1       8.799  -3.809  25.387  0.00  0.00    +0.417 C 
ATOM     39  F   UNL     1       9.427  -4.826  24.731  0.00  0.00    -0.166 F 
ATOM     40  F   UNL     1       7.467  -4.091  25.311  0.00  0.00    -0.166 F 
ATOM     41  F   UNL     1       9.134  -3.952  26.698  0.00  0.00    -0.166 F 
ENDBRANCH  27  38
ENDBRANCH  23  24
ENDBRANCH  22  23
ENDBRANCH   1  22
TORSDOF 17
ENDMDL
MODEL 2
REMARK VINA RESULT:      -5.6      3.865      9.422
REMARK  Name = 
REMARK  18 active torsions:
REMARK  status: ('A' for Active; 'I' for Inactive)
REMARK    1  A    between atoms: C_1  and  C_2
REMARK    2  A    between atoms: C_2  and  C_3
REMARK    3  A    between atoms: C_3  and  C_4
REMARK    4  A    between atoms: C_4  and  C_5
REMARK    5  A    between atoms: C_5  and  C_6
REMARK    6  A    between atoms: C_6  and  C_7
REMARK    7  A    between atoms: C_7  and  C_8
REMARK    8  A    between atoms: C_8  and  C_9
REMARK    9  A    between atoms: C_9  and  C_10
REMARK   10  A    between atoms: C_10  and  O_12
REMARK   11  A    between atoms: O_12  and  C_13
REMARK   12  A    between atoms: C_13  and  C_14
REMARK   13  A    between atoms: C_14  and  N_15
REMARK   14  A    between atoms: N_18  and  C_21
REMARK   15  A    between atoms: C_21  and  C_22
REMARK   16  A    between atoms: C_22  and  C_23
REMARK   17  A    between atoms: C_23  and  N_24
REMARK   18  A    between atoms: C_35  and  C_38
REMARK                            x       y       z     vdW  Elec       q    Type
REMARK                         _______ _______ _______ _____ _____    ______ ____
ROOT
ATOM      1  C   UNL     1       8.806  -3.414  25.436  0.00  0.00    +0.086 C 
ENDROOT
BRANCH   1   5
ATOM      2  N   UNL     1      10.043  -0.369  23.700  0.00  0.00    -0.297 NA
ATOM      3  C   UNL     1      10.024  -1.730  23.103  0.00  0.00    +0.100 C 
ATOM      4  C   UNL     1       8.667  -2.481  23.207  0.00  0.00    +0.100 C 
ATOM      5  N   UNL     1       8.070  -2.488  24.562  0.00  0.00    -0.300 NA
ATOM      6  C   UNL     1       8.055  -1.106  25.080  0.00  0.00    +0.100 C 
ATOM      7  C   UNL     1       9.447  -0.441  25.053  0.00  0.00    +0.100 C 
BRANCH   2   8
ATOM      8  C   UNL     1       9.314   0.567  22.826  0.00  0.00    +0.125 C 
BRANCH   8   9
ATOM      9  C   UNL     1      10.095   1.832  22.439  0.00  0.00    +0.247 C 
BRANCH   9  10
ATOM     10  O   UNL     1      10.823   2.322  23.576  0.00  0.00    -0.463 OA
BRANCH  10  11
ATOM     11  C   UNL     1      11.100   3.657  23.523  0.00  0.00    +0.307 C 
ATOM     12  O   UNL     1      12.199   4.143  23.275  0.00  0.00    -0.251 OA
BRANCH  11  13
ATOM     13  C   UNL     1       9.864   4.459  23.794  0.00  0.00    +0.120 C 
BRANCH  13  14
ATOM     14  C   UNL     1      10.200   5.935  23.672  0.00  0.00    +0.011 C 
BRANCH  14  15
ATOM     15  C   UNL     1       9.097   6.801  24.263  0.00  0.00    +0.001 C 
BRANCH  15  16
ATOM     16  C   UNL     1       8.929   6.504  25.749  0.00  0.00    +0.000 C 
BRANCH  16  17
ATOM     17  C   UNL     1       7.550   5.922  26.032  0.00  0.00    +0.000 C 
BRANCH  17  18
ATOM     18  C   UNL     1       6.635   6.080  24.822  0.00  0.00    -0.000 C 
BRANCH  18  19
ATOM     19  C   UNL     1       6.096   4.725  24.372  0.00  0.00    -0.000 C 
BRANCH  19  21
ATOM     20  C   UNL     1       6.680   3.584  22.213  0.00  0.00    +0.004 C 
ATOM     21  C   UNL     1       5.871   4.693  22.863  0.00  0.00    -0.003 C 
ENDBRANCH  19  21
ENDBRANCH  18  19
ENDBRANCH  17  18
ENDBRANCH  16  17
ENDBRANCH  15  16
ENDBRANCH  14  15
ENDBRANCH  13  14
ENDBRANCH  11  13
ENDBRANCH  10  11
ENDBRANCH   9  10
ENDBRANCH   8   9
ENDBRANCH   2   8
ENDBRANCH   1   5
BRANCH   1  22
ATOM     22  C   UNL     1       7.989  -3.885  26.638  0.00  0.00    +0.035 C 
BRANCH  22  23
ATOM     23  C   UNL     1       7.546  -5.355  26.543  0.00  0.00    +0.112 C 
BRANCH  23  24
ATOM     24  N   UNL     1       6.066  -5.511  26.500  0.00  0.00    -0.298 N 
ATOM     25  C   UNL     1       5.449  -5.693  25.221  0.00  0.00    +0.048 A 
ATOM     26  C   UNL     1       6.090  -5.355  24.003  0.00  0.00    +0.037 A 
ATOM     27  C   UNL     1       5.509  -5.555  22.731  0.00  0.00    +0.057 A 
ATOM     28  C   UNL     1       4.220  -6.071  22.657  0.00  0.00    +0.013 A 
ATOM     29  C   UNL     1       3.545  -6.390  23.829  0.00  0.00    +0.017 A 
ATOM     30  C   UNL     1       4.144  -6.211  25.095  0.00  0.00    +0.034 A 
ATOM     31  S   UNL     1       3.139  -6.723  26.465  0.00  0.00    -0.086 S 
ATOM     32  C   UNL     1       4.188  -6.409  27.857  0.00  0.00    +0.034 A 
ATOM     33  C   UNL     1       3.671  -6.813  29.105  0.00  0.00    +0.017 A 
ATOM     34  C   UNL     1       4.392  -6.636  30.281  0.00  0.00    +0.001 A 
ATOM     35  C   UNL     1       5.620  -6.006  30.225  0.00  0.00    +0.002 A 
ATOM     36  C   UNL     1       6.124  -5.579  28.992  0.00  0.00    +0.024 A 
ATOM     37  C   UNL     1       5.460  -5.820  27.764  0.00  0.00    +0.048 A 
BRANCH  27  38
ATOM     38  C   UNL     1       6.263  -5.226  21.466  0.00  0.00    +0.417 C 
ATOM     39  F   UNL     1       6.073  -3.935  21.070  0.00  0.00    -0.166 F 
ATOM     40  F   UNL     1       5.869  -5.995  20.411  0.00  0.00    -0.166 F 
ATOM     41  F   UNL     1       7.612  -5.388  21.561  0.00  0.00    -0.166 F 
ENDBRANCH  27  38
ENDBRANCH  23  24
ENDBRANCH  22  23
ENDBRANCH   1  22
TORSDOF 17
ENDMDL
MODEL 3
REMARK VINA RESULT:      -5.6      3.719      5.655
REMARK  Name = 
REMARK  18 active torsions:
REMARK  status: ('A' for Active; 'I' for Inactive)
REMARK    1  A    between atoms: C_1  and  C_2
REMARK    2  A    between atoms: C_2  and  C_3
REMARK    3  A    between atoms: C_3  and  C_4
REMARK    4  A    between atoms: C_4  and  C_5
REMARK    5  A    between atoms: C_5  and  C_6
REMARK    6  A    between atoms: C_6  and  C_7
REMARK    7  A    between atoms: C_7  and  C_8
REMARK    8  A    between atoms: C_8  and  C_9
REMARK    9  A    between atoms: C_9  and  C_10
REMARK   10  A    between atoms: C_10  and  O_12
REMARK   11  A    between atoms: O_12  and  C_13
REMARK   12  A    between atoms: C_13  and  C_14
REMARK   13  A    between atoms: C_14  and  N_15
REMARK   14  A    between atoms: N_18  and  C_21
REMARK   15  A    between atoms: C_21  and  C_22
REMARK   16  A    between atoms: C_22  and  C_23
REMARK   17  A    between atoms: C_23  and  N_24
REMARK   18  A    between atoms: C_35  and  C_38
REMARK                            x       y       z     vdW  Elec       q    Type
REMARK                         _______ _______ _______ _____ _____    ______ ____
ROOT
ATOM      1  C   UNL     1       7.630   0.720  22.492  0.00  0.00    +0.086 C 
ENDROOT
BRANCH   1   5
ATOM      2  N   UNL     1       8.738  -1.786  25.003  0.00  0.00    -0.297 NA
ATOM      3  C   UNL     1       9.358  -0.448  24.817  0.00  0.00    +0.100 C 
ATOM      4  C   UNL     1       8.364   0.747  24.798  0.00  0.00    +0.100 C 
ATOM      5  N   UNL     1       7.206   0.569  23.893  0.00  0.00    -0.300 NA
ATOM      6  C   UNL     1       6.591  -0.745  24.162  0.00  0.00    +0.100 C 
ATOM      7  C   UNL     1       7.598  -1.910  24.067  0.00  0.00    +0.100 C 
BRANCH   2   8
ATOM      8  C   UNL     1       8.318  -1.949  26.406  0.00  0.00    +0.125 C 
BRANCH   8   9
ATOM      9  C   UNL     1       7.338  -3.105  26.658  0.00  0.00    +0.247 C 
BRANCH   9  10
ATOM     10  O   UNL     1       8.064  -4.286  27.032  0.00  0.00    -0.463 OA
BRANCH  10  11
ATOM     11  C   UNL     1       7.280  -5.393  27.181  0.00  0.00    +0.307 C 
ATOM     12  O   UNL     1       7.199  -6.071  28.201  0.00  0.00    -0.251 OA
BRANCH  11  13
ATOM     13  C   UNL     1       6.512  -5.663  25.924  0.00  0.00    +0.120 C 
BRANCH  13  14
ATOM     14  C   UNL     1       5.180  -6.297  26.289  0.00  0.00    +0.011 C 
BRANCH  14  15
ATOM     15  C   UNL     1       4.084  -5.248  26.396  0.00  0.00    +0.001 C 
BRANCH  15  16
ATOM     16  C   UNL     1       4.037  -4.399  25.130  0.00  0.00    +0.000 C 
BRANCH  16  17
ATOM     17  C   UNL     1       3.227  -5.093  24.043  0.00  0.00    +0.000 C 
BRANCH  17  18
ATOM     18  C   UNL     1       4.135  -5.587  22.921  0.00  0.00    -0.000 C 
BRANCH  18  19
ATOM     19  C   UNL     1       5.258  -4.588  22.655  0.00  0.00    -0.000 C 
BRANCH  19  21
ATOM     20  C   UNL     1       7.271  -5.978  22.087  0.00  0.00    +0.004 C 
ATOM     21  C   UNL     1       6.178  -5.076  21.540  0.00  0.00    -0.003 C 
ENDBRANCH  19  21
ENDBRANCH  18  19
ENDBRANCH  17  18
ENDBRANCH  16  17
ENDBRANCH  15  16
ENDBRANCH  14  15
ENDBRANCH  13  14
ENDBRANCH  11  13
ENDBRANCH  10  11
ENDBRANCH   9  10
ENDBRANCH   8   9
ENDBRANCH   2   8
ENDBRANCH   1   5
BRANCH   1  22
ATOM     22  C   UNL     1       8.421   2.002  22.236  0.00  0.00    +0.035 C 
BRANCH  22  23
ATOM     23  C   UNL     1       7.537   3.211  21.887  0.00  0.00    +0.112 C 
BRANCH  23  24
ATOM     24  N   UNL     1       7.156   4.013  23.083  0.00  0.00    -0.298 N 
ATOM     25  C   UNL     1       8.150   4.865  23.661  0.00  0.00    +0.048 A 
ATOM     26  C   UNL     1       9.536   4.708  23.416  0.00  0.00    +0.037 A 
ATOM     27  C   UNL     1      10.528   5.557  23.953  0.00  0.00    +0.057 A 
ATOM     28  C   UNL     1      10.140   6.584  24.808  0.00  0.00    +0.013 A 
ATOM     29  C   UNL     1       8.792   6.756  25.097  0.00  0.00    +0.017 A 
ATOM     30  C   UNL     1       7.805   5.918  24.534  0.00  0.00    +0.034 A 
ATOM     31  S   UNL     1       6.140   6.332  24.987  0.00  0.00    -0.086 S 
ATOM     32  C   UNL     1       5.184   5.139  24.091  0.00  0.00    +0.034 A 
ATOM     33  C   UNL     1       3.785   5.287  24.194  0.00  0.00    +0.017 A 
ATOM     34  C   UNL     1       2.915   4.426  23.535  0.00  0.00    +0.001 A 
ATOM     35  C   UNL     1       3.436   3.376  22.805  0.00  0.00    +0.002 A 
ATOM     36  C   UNL     1       4.822   3.209  22.723  0.00  0.00    +0.024 A 
ATOM     37  C   UNL     1       5.742   4.115  23.307  0.00  0.00    +0.048 A 
BRANCH  27  38
ATOM     38  C   UNL     1      11.986   5.372  23.612  0.00  0.00    +0.417 C 
ATOM     39  F   UNL     1      12.812   5.931  24.542  0.00  0.00    -0.166 F 
ATOM     40  F   UNL     1      12.320   5.956  22.426  0.00  0.00    -0.166 F 
ATOM     41  F   UNL     1      12.375   4.071  23.508  0.00  0.00    -0.166 F 
ENDBRANCH  27  38
ENDBRANCH  23  24
ENDBRANCH  22  23
ENDBRANCH   1  22
TORSDOF 17
ENDMDL
MODEL 4
REMARK VINA RESULT:      -5.5      2.874      4.319
REMARK  Name = 
REMARK  18 active torsions:
REMARK  status: ('A' for Active; 'I' for Inactive)
REMARK    1  A    between atoms: C_1  and  C_2
REMARK    2  A    between atoms: C_2  and  C_3
REMARK    3  A    between atoms: C_3  and  C_4
REMARK    4  A    between atoms: C_4  and  C_5
REMARK    5  A    between atoms: C_5  and  C_6
REMARK    6  A    between atoms: C_6  and  C_7
REMARK    7  A    between atoms: C_7  and  C_8
REMARK    8  A    between atoms: C_8  and  C_9
REMARK    9  A    between atoms: C_9  and  C_10
REMARK   10  A    between atoms: C_10  and  O_12
REMARK   11  A    between atoms: O_12  and  C_13
REMARK   12  A    between atoms: C_13  and  C_14
REMARK   13  A    between atoms: C_14  and  N_15
REMARK   14  A    between atoms: N_18  and  C_21
REMARK   15  A    between atoms: C_21  and  C_22
REMARK   16  A    between atoms: C_22  and  C_23
REMARK   17  A    between atoms: C_23  and  N_24
REMARK   18  A    between atoms: C_35  and  C_38
REMARK                            x       y       z     vdW  Elec       q    Type
REMARK                         _______ _______ _______ _____ _____    ______ ____
ROOT
ATOM      1  C   UNL     1       4.760  -1.078  27.186  0.00  0.00    +0.086 C 
ENDROOT
BRANCH   1   5
ATOM      2  N   UNL     1       5.034  -4.784  27.138  0.00  0.00    -0.297 NA
ATOM      3  C   UNL     1       4.394  -4.000  28.227  0.00  0.00    +0.100 C 
ATOM      4  C   UNL     1       3.343  -2.954  27.762  0.00  0.00    +0.100 C 
ATOM      5  N   UNL     1       3.801  -2.067  26.669  0.00  0.00    -0.300 NA
ATOM      6  C   UNL     1       4.368  -2.898  25.589  0.00  0.00    +0.100 C 
ATOM      7  C   UNL     1       5.480  -3.846  26.084  0.00  0.00    +0.100 C 
BRANCH   2   8
ATOM      8  C   UNL     1       4.082  -5.783  26.619  0.00  0.00    +0.125 C 
BRANCH   8   9
ATOM      9  C   UNL     1       4.674  -6.773  25.605  0.00  0.00    +0.247 C 
BRANCH   9  10
ATOM     10  O   UNL     1       3.804  -6.884  24.467  0.00  0.00    -0.463 OA
BRANCH  10  11
ATOM     11  C   UNL     1       4.089  -6.004  23.464  0.00  0.00    +0.307 C 
ATOM     12  O   UNL     1       3.268  -5.295  22.890  0.00  0.00    -0.251 OA
BRANCH  11  13
ATOM     13  C   UNL     1       5.556  -6.008  23.166  0.00  0.00    +0.120 C 
BRANCH  13  14
ATOM     14  C   UNL     1       5.776  -5.438  21.775  0.00  0.00    +0.011 C 
BRANCH  14  15
ATOM     15  C   UNL     1       6.640  -4.187  21.823  0.00  0.00    +0.001 C 
BRANCH  15  16
ATOM     16  C   UNL     1       5.780  -2.958  22.098  0.00  0.00    +0.000 C 
BRANCH  16  17
ATOM     17  C   UNL     1       6.593  -1.871  22.788  0.00  0.00    +0.000 C 
BRANCH  17  18
ATOM     18  C   UNL     1       8.051  -2.293  22.933  0.00  0.00    -0.000 C 
BRANCH  18  19
ATOM     19  C   UNL     1       8.448  -2.372  24.405  0.00  0.00    -0.000 C 
BRANCH  19  21
ATOM     20  C   UNL     1       8.843  -4.833  24.707  0.00  0.00    +0.004 C 
ATOM     21  C   UNL     1       9.491  -3.461  24.639  0.00  0.00    -0.003 C 
ENDBRANCH  19  21
ENDBRANCH  18  19
ENDBRANCH  17  18
ENDBRANCH  16  17
ENDBRANCH  15  16
ENDBRANCH  14  15
ENDBRANCH  13  14
ENDBRANCH  11  13
ENDBRANCH  10  11
ENDBRANCH   9  10
ENDBRANCH   8   9
ENDBRANCH   2   8
ENDBRANCH   1   5
BRANCH   1  22
ATOM     22  C   UNL     1       5.535  -0.358  26.084  0.00  0.00    +0.035 C 
BRANCH  22  23
ATOM     23  C   UNL     1       5.889   1.098  26.430  0.00  0.00    +0.112 C 
BRANCH  23  24
ATOM     24  N   UNL     1       5.847   2.001  25.247  0.00  0.00    -0.298 N 
ATOM     25  C   UNL     1       6.945   1.950  24.329  0.00  0.00    +0.048 A 
ATOM     26  C   UNL     1       8.206   1.400  24.666  0.00  0.00    +0.037 A 
ATOM     27  C   UNL     1       9.289   1.315  23.765  0.00  0.00    +0.057 A 
ATOM     28  C   UNL     1       9.138   1.837  22.484  0.00  0.00    +0.013 A 
ATOM     29  C   UNL     1       7.926   2.411  22.121  0.00  0.00    +0.017 A 
ATOM     30  C   UNL     1       6.840   2.467  23.021  0.00  0.00    +0.034 A 
ATOM     31  S   UNL     1       5.366   3.194  22.352  0.00  0.00    -0.086 S 
ATOM     32  C   UNL     1       4.222   3.066  23.699  0.00  0.00    +0.034 A 
ATOM     33  C   UNL     1       2.908   3.495  23.418  0.00  0.00    +0.017 A 
ATOM     34  C   UNL     1       1.906   3.441  24.380  0.00  0.00    +0.001 A 
ATOM     35  C   UNL     1       2.221   3.003  25.652  0.00  0.00    +0.002 A 
ATOM     36  C   UNL     1       3.529   2.602  25.942  0.00  0.00    +0.024 A 
ATOM     37  C   UNL     1       4.556   2.559  24.966  0.00  0.00    +0.048 A 
BRANCH  27  38
ATOM     38  C   UNL     1      10.593   0.668  24.166  0.00  0.00    +0.417 C 
ATOM     39  F   UNL     1      10.964  -0.325  23.309  0.00  0.00    -0.166 F 
ATOM     40  F   UNL     1      10.525   0.084  25.396  0.00  0.00    -0.166 F 
ATOM     41  F   UNL     1      11.649   1.525  24.219  0.00  0.00    -0.166 F 
ENDBRANCH  27  38
ENDBRANCH  23  24
ENDBRANCH  22  23
ENDBRANCH   1  22
TORSDOF 17
ENDMDL
MODEL 5
REMARK VINA RESULT:      -5.5      1.860      3.078
REMARK  Name = 
REMARK  18 active torsions:
REMARK  status: ('A' for Active; 'I' for Inactive)
REMARK    1  A    between atoms: C_1  and  C_2
REMARK    2  A    between atoms: C_2  and  C_3
REMARK    3  A    between atoms: C_3  and  C_4
REMARK    4  A    between atoms: C_4  and  C_5
REMARK    5  A    between atoms: C_5  and  C_6
REMARK    6  A    between atoms: C_6  and  C_7
REMARK    7  A    between atoms: C_7  and  C_8
REMARK    8  A    between atoms: C_8  and  C_9
REMARK    9  A    between atoms: C_9  and  C_10
REMARK   10  A    between atoms: C_10  and  O_12
REMARK   11  A    between atoms: O_12  and  C_13
REMARK   12  A    between atoms: C_13  and  C_14
REMARK   13  A    between atoms: C_14  and  N_15
REMARK   14  A    between atoms: N_18  and  C_21
REMARK   15  A    between atoms: C_21  and  C_22
REMARK   16  A    between atoms: C_22  and  C_23
REMARK   17  A    between atoms: C_23  and  N_24
REMARK   18  A    between atoms: C_35  and  C_38
REMARK                            x       y       z     vdW  Elec       q    Type
REMARK                         _______ _______ _______ _____ _____    ______ ____
ROOT
ATOM      1  C   UNL     1       4.271  -0.249  26.917  0.00  0.00    +0.086 C 
ENDROOT
BRANCH   1   5
ATOM      2  N   UNL     1       3.665  -3.594  28.420  0.00  0.00    -0.297 NA
ATOM      3  C   UNL     1       2.781  -2.413  28.606  0.00  0.00    +0.100 C 
ATOM      4  C   UNL     1       2.361  -1.686  27.298  0.00  0.00    +0.100 C 
ATOM      5  N   UNL     1       3.481  -1.370  26.384  0.00  0.00    -0.300 NA
ATOM      6  C   UNL     1       4.288  -2.589  26.183  0.00  0.00    +0.100 C 
ATOM      7  C   UNL     1       4.768  -3.215  27.509  0.00  0.00    +0.100 C 
BRANCH   2   8
ATOM      8  C   UNL     1       2.879  -4.724  27.893  0.00  0.00    +0.125 C 
BRANCH   8   9
ATOM      9  C   UNL     1       3.548  -6.099  28.039  0.00  0.00    +0.247 C 
BRANCH   9  10
ATOM     10  O   UNL     1       3.556  -6.775  26.772  0.00  0.00    -0.463 OA
BRANCH  10  11
ATOM     11  C   UNL     1       4.755  -6.718  26.122  0.00  0.00    +0.307 C 
ATOM     12  O   UNL     1       5.843  -6.538  26.659  0.00  0.00    -0.251 OA
BRANCH  11  13
ATOM     13  C   UNL     1       4.563  -6.924  24.651  0.00  0.00    +0.120 C 
BRANCH  13  14
ATOM     14  C   UNL     1       4.091  -5.620  24.029  0.00  0.00    +0.011 C 
BRANCH  14  15
ATOM     15  C   UNL     1       5.254  -4.847  23.426  0.00  0.00    +0.001 C 
BRANCH  15  16
ATOM     16  C   UNL     1       6.101  -5.762  22.548  0.00  0.00    +0.000 C 
BRANCH  16  17
ATOM     17  C   UNL     1       7.583  -5.579  22.846  0.00  0.00    +0.000 C 
BRANCH  17  18
ATOM     18  C   UNL     1       7.784  -4.770  24.124  0.00  0.00    -0.000 C 
BRANCH  18  19
ATOM     19  C   UNL     1       8.844  -5.416  25.012  0.00  0.00    -0.000 C 
BRANCH  19  21
ATOM     20  C   UNL     1       8.145  -3.407  26.346  0.00  0.00    +0.004 C 
ATOM     21  C   UNL     1       9.121  -4.567  26.248  0.00  0.00    -0.003 C 
ENDBRANCH  19  21
ENDBRANCH  18  19
ENDBRANCH  17  18
ENDBRANCH  16  17
ENDBRANCH  15  16
ENDBRANCH  14  15
ENDBRANCH  13  14
ENDBRANCH  11  13
ENDBRANCH  10  11
ENDBRANCH   9  10
ENDBRANCH   8   9
ENDBRANCH   2   8
ENDBRANCH   1   5
BRANCH   1  22
ATOM     22  C   UNL     1       5.398   0.191  25.983  0.00  0.00    +0.035 C 
BRANCH  22  23
ATOM     23  C   UNL     1       6.778   0.227  26.660  0.00  0.00    +0.112 C 
BRANCH  23  24
ATOM     24  N   UNL     1       7.615   1.372  26.206  0.00  0.00    -0.298 N 
ATOM     25  C   UNL     1       8.449   1.177  25.059  0.00  0.00    +0.048 A 
ATOM     26  C   UNL     1       8.811  -0.106  24.579  0.00  0.00    +0.037 A 
ATOM     27  C   UNL     1       9.608  -0.317  23.433  0.00  0.00    +0.057 A 
ATOM     28  C   UNL     1      10.108   0.787  22.751  0.00  0.00    +0.013 A 
ATOM     29  C   UNL     1       9.799   2.064  23.204  0.00  0.00    +0.017 A 
ATOM     30  C   UNL     1       8.980   2.265  24.336  0.00  0.00    +0.034 A 
ATOM     31  S   UNL     1       8.664   3.968  24.724  0.00  0.00    -0.086 S 
ATOM     32  C   UNL     1       7.596   3.856  26.133  0.00  0.00    +0.034 A 
ATOM     33  C   UNL     1       7.101   5.085  26.614  0.00  0.00    +0.017 A 
ATOM     34  C   UNL     1       6.245   5.144  27.708  0.00  0.00    +0.001 A 
ATOM     35  C   UNL     1       5.915   3.974  28.364  0.00  0.00    +0.002 A 
ATOM     36  C   UNL     1       6.426   2.755  27.907  0.00  0.00    +0.024 A 
ATOM     37  C   UNL     1       7.229   2.645  26.744  0.00  0.00    +0.048 A 
BRANCH  27  38
ATOM     38  C   UNL     1       9.915  -1.710  22.939  0.00  0.00    +0.417 C 
ATOM     39  F   UNL     1      10.290  -2.548  23.949  0.00  0.00    -0.166 F 
ATOM     40  F   UNL     1      10.945  -1.730  22.046  0.00  0.00    -0.166 F 
ATOM     41  F   UNL     1       8.872  -2.325  22.317  0.00  0.00    -0.166 F 
ENDBRANCH  27  38
ENDBRANCH  23  24
ENDBRANCH  22  23
ENDBRANCH   1  22
TORSDOF 17
ENDMDL
MODEL 6
REMARK VINA RESULT:      -5.5      3.487      7.683
REMARK  Name = 
REMARK  18 active torsions:
REMARK  status: ('A' for Active; 'I' for Inactive)
REMARK    1  A    between atoms: C_1  and  C_2
REMARK    2  A    between atoms: C_2  and  C_3
REMARK    3  A    between atoms: C_3  and  C_4
REMARK    4  A    between atoms: C_4  and  C_5
REMARK    5  A    between atoms: C_5  and  C_6
REMARK    6  A    between atoms: C_6  and  C_7
REMARK    7  A    between atoms: C_7  and  C_8
REMARK    8  A    between atoms: C_8  and  C_9
REMARK    9  A    between atoms: C_9  and  C_10
REMARK   10  A    between atoms: C_10  and  O_12
REMARK   11  A    between atoms: O_12  and  C_13
REMARK   12  A    between atoms: C_13  and  C_14
REMARK   13  A    between atoms: C_14  and  N_15
REMARK   14  A    between atoms: N_18  and  C_21
REMARK   15  A    between atoms: C_21  and  C_22
REMARK   16  A    between atoms: C_22  and  C_23
REMARK   17  A    between atoms: C_23  and  N_24
REMARK   18  A    between atoms: C_35  and  C_38
REMARK                            x       y       z     vdW  Elec       q    Type
REMARK                         _______ _______ _______ _____ _____    ______ ____
ROOT
ATOM      1  C   UNL     1       6.202  -0.599  26.830  0.00  0.00    +0.086 C 
ENDROOT
BRANCH   1   5
ATOM      2  N   UNL     1       7.943   2.544  25.879  0.00  0.00    -0.297 NA
ATOM      3  C   UNL     1       8.266   1.201  25.328  0.00  0.00    +0.100 C 
ATOM      4  C   UNL     1       7.052   0.393  24.793  0.00  0.00    +0.100 C 
ATOM      5  N   UNL     1       5.903   0.322  25.723  0.00  0.00    -0.300 NA
ATOM      6  C   UNL     1       5.583   1.685  26.188  0.00  0.00    +0.100 C 
ATOM      7  C   UNL     1       6.798   2.407  26.807  0.00  0.00    +0.100 C 
BRANCH   2   8
ATOM      8  C   UNL     1       7.648   3.475  24.775  0.00  0.00    +0.125 C 
BRANCH   8   9
ATOM      9  C   UNL     1       8.812   3.709  23.800  0.00  0.00    +0.247 C 
BRANCH   9  10
ATOM     10  O   UNL     1       8.332   3.663  22.447  0.00  0.00    -0.463 OA
BRANCH  10  11
ATOM     11  C   UNL     1       8.248   2.402  21.932  0.00  0.00    +0.307 C 
ATOM     12  O   UNL     1       7.212   1.855  21.566  0.00  0.00    -0.251 OA
BRANCH  11  13
ATOM     13  C   UNL     1       9.606   1.775  21.859  0.00  0.00    +0.120 C 
BRANCH  13  14
ATOM     14  C   UNL     1       9.452   0.313  21.476  0.00  0.00    +0.011 C 
BRANCH  14  15
ATOM     15  C   UNL     1      10.155  -0.594  22.476  0.00  0.00    +0.001 C 
BRANCH  15  16
ATOM     16  C   UNL     1       9.295  -1.816  22.778  0.00  0.00    +0.000 C 
BRANCH  16  17
ATOM     17  C   UNL     1       9.834  -2.571  23.987  0.00  0.00    +0.000 C 
BRANCH  17  18
ATOM     18  C   UNL     1       8.700  -3.236  24.761  0.00  0.00    -0.000 C 
BRANCH  18  19
ATOM     19  C   UNL     1       8.796  -4.756  24.662  0.00  0.00    -0.000 C 
BRANCH  19  21
ATOM     20  C   UNL     1       7.370  -5.339  26.645  0.00  0.00    +0.004 C 
ATOM     21  C   UNL     1       8.764  -5.403  26.044  0.00  0.00    -0.003 C 
ENDBRANCH  19  21
ENDBRANCH  18  19
ENDBRANCH  17  18
ENDBRANCH  16  17
ENDBRANCH  15  16
ENDBRANCH  14  15
ENDBRANCH  13  14
ENDBRANCH  11  13
ENDBRANCH  10  11
ENDBRANCH   9  10
ENDBRANCH   8   9
ENDBRANCH   2   8
ENDBRANCH   1   5
BRANCH   1  22
ATOM     22  C   UNL     1       5.738  -2.031  26.565  0.00  0.00    +0.035 C 
BRANCH  22  23
ATOM     23  C   UNL     1       4.538  -2.121  25.607  0.00  0.00    +0.112 C 
BRANCH  23  24
ATOM     24  N   UNL     1       3.814  -3.419  25.708  0.00  0.00    -0.298 N 
ATOM     25  C   UNL     1       4.280  -4.508  24.903  0.00  0.00    +0.048 A 
ATOM     26  C   UNL     1       5.110  -4.327  23.770  0.00  0.00    +0.037 A 
ATOM     27  C   UNL     1       5.603  -5.391  22.983  0.00  0.00    +0.057 A 
ATOM     28  C   UNL     1       5.225  -6.691  23.301  0.00  0.00    +0.013 A 
ATOM     29  C   UNL     1       4.389  -6.910  24.389  0.00  0.00    +0.017 A 
ATOM     30  C   UNL     1       3.923  -5.842  25.185  0.00  0.00    +0.034 A 
ATOM     31  S   UNL     1       2.907  -6.333  26.556  0.00  0.00    -0.086 S 
ATOM     32  C   UNL     1       2.545  -4.789  27.346  0.00  0.00    +0.034 A 
ATOM     33  C   UNL     1       1.809  -4.884  28.545  0.00  0.00    +0.017 A 
ATOM     34  C   UNL     1       1.464  -3.752  29.274  0.00  0.00    +0.001 A 
ATOM     35  C   UNL     1       1.809  -2.507  28.784  0.00  0.00    +0.002 A 
ATOM     36  C   UNL     1       2.515  -2.409  27.581  0.00  0.00    +0.024 A 
ATOM     37  C   UNL     1       2.962  -3.540  26.855  0.00  0.00    +0.048 A 
BRANCH  27  38
ATOM     38  C   UNL     1       6.529  -5.139  21.818  0.00  0.00    +0.417 C 
ATOM     39  F   UNL     1       7.623  -5.954  21.839  0.00  0.00    -0.166 F 
ATOM     40  F   UNL     1       7.020  -3.867  21.809  0.00  0.00    -0.166 F 
ATOM     41  F   UNL     1       5.954  -5.323  20.597  0.00  0.00    -0.166 F 
ENDBRANCH  27  38
ENDBRANCH  23  24
ENDBRANCH  22  23
ENDBRANCH   1  22
TORSDOF 17
ENDMDL
MODEL 7
REMARK VINA RESULT:      -5.5      3.208      7.715
REMARK  Name = 
REMARK  18 active torsions:
REMARK  status: ('A' for Active; 'I' for Inactive)
REMARK    1  A    between atoms: C_1  and  C_2
REMARK    2  A    between atoms: C_2  and  C_3
REMARK    3  A    between atoms: C_3  and  C_4
REMARK    4  A    between atoms: C_4  and  C_5
REMARK    5  A    between atoms: C_5  and  C_6
REMARK    6  A    between atoms: C_6  and  C_7
REMARK    7  A    between atoms: C_7  and  C_8
REMARK    8  A    between atoms: C_8  and  C_9
REMARK    9  A    between atoms: C_9  and  C_10
REMARK   10  A    between atoms: C_10  and  O_12
REMARK   11  A    between atoms: O_12  and  C_13
REMARK   12  A    between atoms: C_13  and  C_14
REMARK   13  A    between atoms: C_14  and  N_15
REMARK   14  A    between atoms: N_18  and  C_21
REMARK   15  A    between atoms: C_21  and  C_22
REMARK   16  A    between atoms: C_22  and  C_23
REMARK   17  A    between atoms: C_23  and  N_24
REMARK   18  A    between atoms: C_35  and  C_38
REMARK                            x       y       z     vdW  Elec       q    Type
REMARK                         _______ _______ _______ _____ _____    ______ ____
ROOT
ATOM      1  C   UNL     1       4.198  -4.161  27.984  0.00  0.00    +0.086 C 
ENDROOT
BRANCH   1   5
ATOM      2  N   UNL     1       3.764  -0.831  26.390  0.00  0.00    -0.297 NA
ATOM      3  C   UNL     1       3.029  -1.289  27.599  0.00  0.00    +0.100 C 
ATOM      4  C   UNL     1       3.916  -1.876  28.732  0.00  0.00    +0.100 C 
ATOM      5  N   UNL     1       4.890  -2.897  28.285  0.00  0.00    -0.300 NA
ATOM      6  C   UNL     1       5.634  -2.368  27.126  0.00  0.00    +0.100 C 
ATOM      7  C   UNL     1       4.710  -1.895  25.985  0.00  0.00    +0.100 C 
BRANCH   2   8
ATOM      8  C   UNL     1       4.454   0.438  26.680  0.00  0.00    +0.125 C 
BRANCH   8   9
ATOM      9  C   UNL     1       5.287   1.001  25.519  0.00  0.00    +0.247 C 
BRANCH   9  10
ATOM     10  O   UNL     1       4.455   1.800  24.664  0.00  0.00    -0.463 OA
BRANCH  10  11
ATOM     11  C   UNL     1       5.148   2.544  23.754  0.00  0.00    +0.307 C 
ATOM     12  O   UNL     1       4.678   3.453  23.076  0.00  0.00    -0.251 OA
BRANCH  11  13
ATOM     13  C   UNL     1       6.580   2.108  23.705  0.00  0.00    +0.120 C 
BRANCH  13  14
ATOM     14  C   UNL     1       6.956   1.817  22.262  0.00  0.00    +0.011 C 
BRANCH  14  15
ATOM     15  C   UNL     1       8.235   2.543  21.870  0.00  0.00    +0.001 C 
BRANCH  15  16
ATOM     16  C   UNL     1       9.451   1.672  22.165  0.00  0.00    +0.000 C 
BRANCH  16  17
ATOM     17  C   UNL     1       9.362   0.347  21.417  0.00  0.00    +0.000 C 
BRANCH  17  18
ATOM     18  C   UNL     1       9.701  -0.820  22.338  0.00  0.00    -0.000 C 
BRANCH  18  19
ATOM     19  C   UNL     1       8.464  -1.671  22.612  0.00  0.00    -0.000 C 
BRANCH  19  21
ATOM     20  C   UNL     1       8.882  -0.843  24.945  0.00  0.00    +0.004 C 
ATOM     21  C   UNL     1       7.831  -1.311  23.953  0.00  0.00    -0.003 C 
ENDBRANCH  19  21
ENDBRANCH  18  19
ENDBRANCH  17  18
ENDBRANCH  16  17
ENDBRANCH  15  16
ENDBRANCH  14  15
ENDBRANCH  13  14
ENDBRANCH  11  13
ENDBRANCH  10  11
ENDBRANCH   9  10
ENDBRANCH   8   9
ENDBRANCH   2   8
ENDBRANCH   1   5
BRANCH   1  22
ATOM     22  C   UNL     1       4.935  -5.391  28.512  0.00  0.00    +0.035 C 
BRANCH  22  23
ATOM     23  C   UNL     1       4.944  -6.572  27.527  0.00  0.00    +0.112 C 
BRANCH  23  24
ATOM     24  N   UNL     1       4.561  -6.175  26.144  0.00  0.00    -0.298 N 
ATOM     25  C   UNL     1       5.605  -5.766  25.253  0.00  0.00    +0.048 A 
ATOM     26  C   UNL     1       6.884  -5.355  25.704  0.00  0.00    +0.037 A 
ATOM     27  C   UNL     1       7.934  -4.977  24.838  0.00  0.00    +0.057 A 
ATOM     28  C   UNL     1       7.700  -4.960  23.468  0.00  0.00    +0.013 A 
ATOM     29  C   UNL     1       6.450  -5.329  22.985  0.00  0.00    +0.017 A 
ATOM     30  C   UNL     1       5.415  -5.731  23.856  0.00  0.00    +0.034 A 
ATOM     31  S   UNL     1       3.912  -6.210  23.043  0.00  0.00    -0.086 S 
ATOM     32  C   UNL     1       2.871  -6.686  24.396  0.00  0.00    +0.034 A 
ATOM     33  C   UNL     1       1.612  -7.209  24.033  0.00  0.00    +0.017 A 
ATOM     34  C   UNL     1       0.699  -7.630  24.993  0.00  0.00    +0.001 A 
ATOM     35  C   UNL     1       1.017  -7.487  26.330  0.00  0.00    +0.002 A 
ATOM     36  C   UNL     1       2.253  -6.944  26.693  0.00  0.00    +0.024 A 
ATOM     37  C   UNL     1       3.245  -6.585  25.747  0.00  0.00    +0.048 A 
BRANCH  27  38
ATOM     38  C   UNL     1       9.293  -4.601  25.376  0.00  0.00    +0.417 C 
ATOM     39  F   UNL     1      10.055  -5.693  25.670  0.00  0.00    -0.166 F 
ATOM     40  F   UNL     1       9.215  -3.886  26.534  0.00  0.00    -0.166 F 
ATOM     41  F   UNL     1      10.041  -3.847  24.525  0.00  0.00    -0.166 F 
ENDBRANCH  27  38
ENDBRANCH  23  24
ENDBRANCH  22  23
ENDBRANCH   1  22
TORSDOF 17
ENDMDL
MODEL 8
REMARK VINA RESULT:      -5.5      2.704      4.452
REMARK  Name = 
REMARK  18 active torsions:
REMARK  status: ('A' for Active; 'I' for Inactive)
REMARK    1  A    between atoms: C_1  and  C_2
REMARK    2  A    between atoms: C_2  and  C_3
REMARK    3  A    between atoms: C_3  and  C_4
REMARK    4  A    between atoms: C_4  and  C_5
REMARK    5  A    between atoms: C_5  and  C_6
REMARK    6  A    between atoms: C_6  and  C_7
REMARK    7  A    between atoms: C_7  and  C_8
REMARK    8  A    between atoms: C_8  and  C_9
REMARK    9  A    between atoms: C_9  and  C_10
REMARK   10  A    between atoms: C_10  and  O_12
REMARK   11  A    between atoms: O_12  and  C_13
REMARK   12  A    between atoms: C_13  and  C_14
REMARK   13  A    between atoms: C_14  and  N_15
REMARK   14  A    between atoms: N_18  and  C_21
REMARK   15  A    between atoms: C_21  and  C_22
REMARK   16  A    between atoms: C_22  and  C_23
REMARK   17  A    between atoms: C_23  and  N_24
REMARK   18  A    between atoms: C_35  and  C_38
REMARK                            x       y       z     vdW  Elec       q    Type
REMARK                         _______ _______ _______ _____ _____    ______ ____
ROOT
ATOM      1  C   UNL     1       5.321   0.150  27.821  0.00  0.00    +0.086 C 
ENDROOT
BRANCH   1   5
ATOM      2  N   UNL     1       4.141  -3.167  29.012  0.00  0.00    -0.297 NA
ATOM      3  C   UNL     1       3.889  -1.881  29.714  0.00  0.00    +0.100 C 
ATOM      4  C   UNL     1       3.310  -0.743  28.828  0.00  0.00    +0.100 C 
ATOM      5  N   UNL     1       4.038  -0.521  27.559  0.00  0.00    -0.300 NA
ATOM      6  C   UNL     1       4.204  -1.818  26.874  0.00  0.00    +0.100 C 
ATOM      7  C   UNL     1       4.880  -2.883  27.762  0.00  0.00    +0.100 C 
BRANCH   2   8
ATOM      8  C   UNL     1       2.860  -3.849  28.753  0.00  0.00    +0.125 C 
BRANCH   8   9
ATOM      9  C   UNL     1       2.924  -5.383  28.804  0.00  0.00    +0.247 C 
BRANCH   9  10
ATOM     10  O   UNL     1       4.251  -5.805  29.155  0.00  0.00    -0.463 OA
BRANCH  10  11
ATOM     11  C   UNL     1       4.762  -6.766  28.333  0.00  0.00    +0.307 C 
ATOM     12  O   UNL     1       5.693  -7.517  28.613  0.00  0.00    -0.251 OA
BRANCH  11  13
ATOM     13  C   UNL     1       4.016  -6.795  27.034  0.00  0.00    +0.120 C 
BRANCH  13  14
ATOM     14  C   UNL     1       4.956  -6.369  25.918  0.00  0.00    +0.011 C 
BRANCH  14  15
ATOM     15  C   UNL     1       4.332  -6.611  24.552  0.00  0.00    +0.001 C 
BRANCH  15  16
ATOM     16  C   UNL     1       4.009  -5.284  23.874  0.00  0.00    +0.000 C 
BRANCH  16  17
ATOM     17  C   UNL     1       5.126  -4.273  24.104  0.00  0.00    +0.000 C 
BRANCH  17  18
ATOM     18  C   UNL     1       5.318  -3.388  22.878  0.00  0.00    -0.000 C 
BRANCH  18  19
ATOM     19  C   UNL     1       6.643  -3.698  22.188  0.00  0.00    -0.000 C 
BRANCH  19  21
ATOM     20  C   UNL     1       7.556  -6.037  22.201  0.00  0.00    +0.004 C 
ATOM     21  C   UNL     1       6.609  -5.067  21.515  0.00  0.00    -0.003 C 
ENDBRANCH  19  21
ENDBRANCH  18  19
ENDBRANCH  17  18
ENDBRANCH  16  17
ENDBRANCH  15  16
ENDBRANCH  14  15
ENDBRANCH  13  14
ENDBRANCH  11  13
ENDBRANCH  10  11
ENDBRANCH   9  10
ENDBRANCH   8   9
ENDBRANCH   2   8
ENDBRANCH   1   5
BRANCH   1  22
ATOM     22  C   UNL     1       6.163   0.353  26.562  0.00  0.00    +0.035 C 
BRANCH  22  23
ATOM     23  C   UNL     1       7.611  -0.144  26.702  0.00  0.00    +0.112 C 
BRANCH  23  24
ATOM     24  N   UNL     1       8.181  -0.635  25.417  0.00  0.00    -0.298 N 
ATOM     25  C   UNL     1       8.753   0.330  24.528  0.00  0.00    +0.048 A 
ATOM     26  C   UNL     1       8.473   1.716  24.612  0.00  0.00    +0.037 A 
ATOM     27  C   UNL     1       9.051   2.685  23.763  0.00  0.00    +0.057 A 
ATOM     28  C   UNL     1       9.913   2.265  22.755  0.00  0.00    +0.013 A 
ATOM     29  C   UNL     1      10.193   0.910  22.620  0.00  0.00    +0.017 A 
ATOM     30  C   UNL     1       9.631  -0.048  23.490  0.00  0.00    +0.034 A 
ATOM     31  S   UNL     1      10.151  -1.717  23.184  0.00  0.00    -0.086 S 
ATOM     32  C   UNL     1       9.312  -2.626  24.453  0.00  0.00    +0.034 A 
ATOM     33  C   UNL     1       9.616  -4.002  24.510  0.00  0.00    +0.017 A 
ATOM     34  C   UNL     1       9.036  -4.833  25.462  0.00  0.00    +0.001 A 
ATOM     35  C   UNL     1       8.108  -4.304  26.338  0.00  0.00    +0.002 A 
ATOM     36  C   UNL     1       7.784  -2.946  26.266  0.00  0.00    +0.024 A 
ATOM     37  C   UNL     1       8.416  -2.049  25.369  0.00  0.00    +0.048 A 
BRANCH  27  38
ATOM     38  C   UNL     1       8.755   4.155  23.936  0.00  0.00    +0.417 C 
ATOM     39  F   UNL     1       8.690   4.520  25.249  0.00  0.00    -0.166 F 
ATOM     40  F   UNL     1       7.554   4.510  23.397  0.00  0.00    -0.166 F 
ATOM     41  F   UNL     1       9.676   4.981  23.368  0.00  0.00    -0.166 F 
ENDBRANCH  27  38
ENDBRANCH  23  24
ENDBRANCH  22  23
ENDBRANCH   1  22
TORSDOF 17
ENDMDL
MODEL 9
REMARK VINA RESULT:      -5.4      3.446      8.054
REMARK  Name = 
REMARK  18 active torsions:
REMARK  status: ('A' for Active; 'I' for Inactive)
REMARK    1  A    between atoms: C_1  and  C_2
REMARK    2  A    between atoms: C_2  and  C_3
REMARK    3  A    between atoms: C_3  and  C_4
REMARK    4  A    between atoms: C_4  and  C_5
REMARK    5  A    between atoms: C_5  and  C_6
REMARK    6  A    between atoms: C_6  and  C_7
REMARK    7  A    between atoms: C_7  and  C_8
REMARK    8  A    between atoms: C_8  and  C_9
REMARK    9  A    between atoms: C_9  and  C_10
REMARK   10  A    between atoms: C_10  and  O_12
REMARK   11  A    between atoms: O_12  and  C_13
REMARK   12  A    between atoms: C_13  and  C_14
REMARK   13  A    between atoms: C_14  and  N_15
REMARK   14  A    between atoms: N_18  and  C_21
REMARK   15  A    between atoms: C_21  and  C_22
REMARK   16  A    between atoms: C_22  and  C_23
REMARK   17  A    between atoms: C_23  and  N_24
REMARK   18  A    between atoms: C_35  and  C_38
REMARK                            x       y       z     vdW  Elec       q    Type
REMARK                         _______ _______ _______ _____ _____    ______ ____
ROOT
ATOM      1  C   UNL     1       7.334  -3.083  25.973  0.00  0.00    +0.086 C 
ENDROOT
BRANCH   1   5
ATOM      2  N   UNL     1       5.264  -0.091  25.217  0.00  0.00    -0.297 NA
ATOM      3  C   UNL     1       4.781  -1.284  25.962  0.00  0.00    +0.100 C 
ATOM      4  C   UNL     1       5.688  -1.744  27.137  0.00  0.00    +0.100 C 
ATOM      5  N   UNL     1       7.121  -1.879  26.791  0.00  0.00    -0.300 NA
ATOM      6  C   UNL     1       7.563  -0.646  26.113  0.00  0.00    +0.100 C 
ATOM      7  C   UNL     1       6.693  -0.288  24.890  0.00  0.00    +0.100 C 
BRANCH   2   8
ATOM      8  C   UNL     1       5.046   1.121  26.027  0.00  0.00    +0.125 C 
BRANCH   8   9
ATOM      9  C   UNL     1       5.645   2.407  25.438  0.00  0.00    +0.247 C 
BRANCH   9  10
ATOM     10  O   UNL     1       6.500   3.035  26.406  0.00  0.00    -0.463 OA
BRANCH  10  11
ATOM     11  C   UNL     1       7.437   3.864  25.861  0.00  0.00    +0.307 C 
ATOM     12  O   UNL     1       7.492   5.079  26.029  0.00  0.00    -0.251 OA
BRANCH  11  13
ATOM     13  C   UNL     1       8.411   3.081  25.035  0.00  0.00    +0.120 C 
BRANCH  13  14
ATOM     14  C   UNL     1       9.241   4.048  24.206  0.00  0.00    +0.011 C 
BRANCH  14  15
ATOM     15  C   UNL     1      10.395   3.333  23.520  0.00  0.00    +0.001 C 
BRANCH  15  16
ATOM     16  C   UNL     1      10.140   1.830  23.481  0.00  0.00    +0.000 C 
BRANCH  16  17
ATOM     17  C   UNL     1      10.077   1.329  22.044  0.00  0.00    +0.000 C 
BRANCH  17  18
ATOM     18  C   UNL     1       8.875   0.412  21.841  0.00  0.00    -0.000 C 
BRANCH  18  19
ATOM     19  C   UNL     1       9.325  -0.985  21.422  0.00  0.00    -0.000 C 
BRANCH  19  21
ATOM     20  C   UNL     1       9.951  -2.201  23.528  0.00  0.00    +0.004 C 
ATOM     21  C   UNL     1       8.898  -2.033  22.446  0.00  0.00    -0.003 C 
ENDBRANCH  19  21
ENDBRANCH  18  19
ENDBRANCH  17  18
ENDBRANCH  16  17
ENDBRANCH  15  16
ENDBRANCH  14  15
ENDBRANCH  13  14
ENDBRANCH  11  13
ENDBRANCH  10  11
ENDBRANCH   9  10
ENDBRANCH   8   9
ENDBRANCH   2   8
ENDBRANCH   1   5
BRANCH   1  22
ATOM     22  C   UNL     1       8.174  -4.148  26.677  0.00  0.00    +0.035 C 
BRANCH  22  23
ATOM     23  C   UNL     1       7.603  -5.570  26.545  0.00  0.00    +0.112 C 
BRANCH  23  24
ATOM     24  N   UNL     1       6.115  -5.594  26.510  0.00  0.00    -0.298 N 
ATOM     25  C   UNL     1       5.479  -5.740  25.235  0.00  0.00    +0.048 A 
ATOM     26  C   UNL     1       6.141  -5.479  24.010  0.00  0.00    +0.037 A 
ATOM     27  C   UNL     1       5.539  -5.646  22.744  0.00  0.00    +0.057 A 
ATOM     28  C   UNL     1       4.209  -6.047  22.682  0.00  0.00    +0.013 A 
ATOM     29  C   UNL     1       3.514  -6.286  23.861  0.00  0.00    +0.017 A 
ATOM     30  C   UNL     1       4.132  -6.142  25.122  0.00  0.00    +0.034 A 
ATOM     31  S   UNL     1       3.092  -6.541  26.503  0.00  0.00    -0.086 S 
ATOM     32  C   UNL     1       4.171  -6.301  27.887  0.00  0.00    +0.034 A 
ATOM     33  C   UNL     1       3.626  -6.638  29.143  0.00  0.00    +0.017 A 
ATOM     34  C   UNL     1       4.366  -6.508  30.313  0.00  0.00    +0.001 A 
ATOM     35  C   UNL     1       5.645  -5.990  30.244  0.00  0.00    +0.002 A 
ATOM     36  C   UNL     1       6.179  -5.629  29.003  0.00  0.00    +0.024 A 
ATOM     37  C   UNL     1       5.491  -5.829  27.780  0.00  0.00    +0.048 A 
BRANCH  27  38
ATOM     38  C   UNL     1       6.314  -5.405  21.471  0.00  0.00    +0.417 C 
ATOM     39  F   UNL     1       6.346  -4.086  21.126  0.00  0.00    -0.166 F 
ATOM     40  F   UNL     1       5.769  -6.051  20.401  0.00  0.00    -0.166 F 
ATOM     41  F   UNL     1       7.614  -5.805  21.524  0.00  0.00    -0.166 F 
ENDBRANCH  27  38
ENDBRANCH  23  24
ENDBRANCH  22  23
ENDBRANCH   1  22
TORSDOF 17
ENDMDL
