MODEL 1
REMARK VINA RESULT:      -6.5      0.000      0.000
REMARK  Name = 
REMARK  4 active torsions:
REMARK  status: ('A' for Active; 'I' for Inactive)
REMARK    1  A    between atoms: N_3  and  C_9
REMARK    2  A    between atoms: C_12  and  N_19
REMARK    3  A    between atoms: C_14  and  C_17
REMARK    4  A    between atoms: C_17  and  O_18
REMARK                            x       y       z     vdW  Elec       q    Type
REMARK                         _______ _______ _______ _____ _____    ______ ____
ROOT
ATOM      1  C   UNL     1       8.744  -3.031  25.228  0.00  0.00    +0.212 C 
ATOM      2  O   UNL     1       9.021  -3.836  24.069  0.00  0.00    -0.351 OA
ATOM      3  C   UNL     1       8.285  -5.075  24.179  0.00  0.00    +0.177 C 
ATOM      4  C   UNL     1       7.420  -4.981  25.438  0.00  0.00    +0.226 C 
ATOM      5  C   UNL     1       7.378  -3.493  25.712  0.00  0.00    +0.088 C 
ENDROOT
BRANCH   1  13
ATOM      6  C   UNL     1      10.337  -0.443  23.307  0.00  0.00    +0.115 C 
ATOM      7  C   UNL     1      10.336   0.702  24.278  0.00  0.00    +0.222 C 
ATOM      8  O   UNL     1      11.025   1.706  24.109  0.00  0.00    -0.275 OA
ATOM      9  N   UNL     1       9.612   0.517  25.424  0.00  0.00    -0.240 N 
ATOM     10  H   UNL     1       9.784   1.197  26.150  0.00  0.00    +0.159 HD
ATOM     11  C   UNL     1       9.126  -0.686  25.862  0.00  0.00    +0.310 C 
ATOM     12  O   UNL     1       8.997  -0.885  27.065  0.00  0.00    -0.252 OA
ATOM     13  N   UNL     1       8.871  -1.622  24.875  0.00  0.00    -0.259 N 
ATOM     14  C   UNL     1       9.058  -1.231  23.482  0.00  0.00    +0.121 C 
ENDBRANCH   1  13
BRANCH   4  15
ATOM     15  N   UNL     1       8.110  -5.637  26.568  0.00  0.00    +0.082 NA
ATOM     16  N   UNL     1       7.414  -5.852  27.578  0.00  0.00    -0.014 NA
ATOM     17  N   UNL     1       6.770  -6.057  28.492  0.00  0.00    -0.328 NA
ENDBRANCH   4  15
BRANCH   3  18
ATOM     18  C   UNL     1       7.468  -5.257  22.896  0.00  0.00    +0.189 C 
BRANCH  18  19
ATOM     19  O   UNL     1       7.304  -4.019  22.211  0.00  0.00    -0.392 OA
ATOM     20  H   UNL     1       7.678  -4.157  21.319  0.00  0.00    +0.210 HD
ENDBRANCH  18  19
ENDBRANCH   3  18
TORSDOF 4
ENDMDL
MODEL 2
REMARK VINA RESULT:      -6.3      2.656      5.963
REMARK  Name = 
REMARK  4 active torsions:
REMARK  status: ('A' for Active; 'I' for Inactive)
REMARK    1  A    between atoms: N_3  and  C_9
REMARK    2  A    between atoms: C_12  and  N_19
REMARK    3  A    between atoms: C_14  and  C_17
REMARK    4  A    between atoms: C_17  and  O_18
REMARK                            x       y       z     vdW  Elec       q    Type
REMARK                         _______ _______ _______ _____ _____    ______ ____
ROOT
ATOM      1  C   UNL     1       8.506  -2.843  24.042  0.00  0.00    +0.212 C 
ATOM      2  O   UNL     1       8.099  -1.669  24.766  0.00  0.00    -0.351 OA
ATOM      3  C   UNL     1       7.913  -0.587  23.826  0.00  0.00    +0.177 C 
ATOM      4  C   UNL     1       8.122  -1.162  22.422  0.00  0.00    +0.226 C 
ATOM      5  C   UNL     1       7.959  -2.650  22.636  0.00  0.00    +0.088 C 
ENDROOT
BRANCH   1  13
ATOM      6  C   UNL     1       6.574  -4.325  26.686  0.00  0.00    +0.115 C 
ATOM      7  C   UNL     1       7.445  -5.479  27.092  0.00  0.00    +0.222 C 
ATOM      8  O   UNL     1       7.274  -6.092  28.143  0.00  0.00    -0.275 OA
ATOM      9  N   UNL     1       8.517  -5.737  26.280  0.00  0.00    -0.240 N 
ATOM     10  H   UNL     1       9.201  -6.369  26.667  0.00  0.00    +0.159 HD
ATOM     11  C   UNL     1       8.992  -4.891  25.313  0.00  0.00    +0.310 C 
ATOM     12  O   UNL     1      10.185  -4.903  25.032  0.00  0.00    -0.252 OA
ATOM     13  N   UNL     1       8.059  -4.030  24.762  0.00  0.00    -0.259 N 
ATOM     14  C   UNL     1       6.669  -4.146  25.187  0.00  0.00    +0.121 C 
ENDBRANCH   1  13
BRANCH   4  15
ATOM     15  N   UNL     1       9.511  -0.910  21.981  0.00  0.00    +0.082 NA
ATOM     16  N   UNL     1       9.849   0.286  21.911  0.00  0.00    -0.014 NA
ATOM     17  N   UNL     1      10.156   1.379  21.860  0.00  0.00    -0.328 NA
ENDBRANCH   4  15
BRANCH   3  18
ATOM     18  C   UNL     1       6.513  -0.007  24.039  0.00  0.00    +0.189 C 
BRANCH  18  19
ATOM     19  O   UNL     1       6.125   0.816  22.942  0.00  0.00    -0.392 OA
ATOM     20  H   UNL     1       6.112   0.232  22.160  0.00  0.00    +0.210 HD
ENDBRANCH  18  19
ENDBRANCH   3  18
TORSDOF 4
ENDMDL
MODEL 3
REMARK VINA RESULT:      -6.3      3.107      3.998
REMARK  Name = 
REMARK  4 active torsions:
REMARK  status: ('A' for Active; 'I' for Inactive)
REMARK    1  A    between atoms: N_3  and  C_9
REMARK    2  A    between atoms: C_12  and  N_19
REMARK    3  A    between atoms: C_14  and  C_17
REMARK    4  A    between atoms: C_17  and  O_18
REMARK                            x       y       z     vdW  Elec       q    Type
REMARK                         _______ _______ _______ _____ _____    ______ ____
ROOT
ATOM      1  C   UNL     1       8.240  -0.810  22.738  0.00  0.00    +0.212 C 
ATOM      2  O   UNL     1       8.176  -1.257  24.104  0.00  0.00    -0.351 OA
ATOM      3  C   UNL     1       7.604  -2.584  24.130  0.00  0.00    +0.177 C 
ATOM      4  C   UNL     1       7.399  -3.021  22.678  0.00  0.00    +0.226 C 
ATOM      5  C   UNL     1       8.304  -2.083  21.909  0.00  0.00    +0.088 C 
ENDROOT
BRANCH   1  13
ATOM      6  C   UNL     1      10.614   1.448  24.217  0.00  0.00    +0.115 C 
ATOM      7  C   UNL     1      10.727   2.509  23.159  0.00  0.00    +0.222 C 
ATOM      8  O   UNL     1      11.242   3.602  23.380  0.00  0.00    -0.275 OA
ATOM      9  N   UNL     1      10.118   2.232  21.965  0.00  0.00    -0.240 N 
ATOM     10  H   UNL     1      10.023   3.023  21.344  0.00  0.00    +0.159 HD
ATOM     11  C   UNL     1       9.220   1.220  21.756  0.00  0.00    +0.310 C 
ATOM     12  O   UNL     1       8.345   1.353  20.907  0.00  0.00    -0.252 OA
ATOM     13  N   UNL     1       9.350   0.124  22.591  0.00  0.00    -0.259 N 
ATOM     14  C   UNL     1      10.454   0.104  23.544  0.00  0.00    +0.121 C 
ENDBRANCH   1  13
BRANCH   4  15
ATOM     15  N   UNL     1       6.004  -2.752  22.268  0.00  0.00    +0.082 NA
ATOM     16  N   UNL     1       5.201  -3.689  22.431  0.00  0.00    -0.014 NA
ATOM     17  N   UNL     1       4.469  -4.544  22.593  0.00  0.00    -0.328 NA
ENDBRANCH   4  15
BRANCH   3  18
ATOM     18  C   UNL     1       8.558  -3.497  24.907  0.00  0.00    +0.189 C 
BRANCH  18  19
ATOM     19  O   UNL     1       9.840  -3.546  24.287  0.00  0.00    -0.392 OA
ATOM     20  H   UNL     1      10.291  -4.325  24.667  0.00  0.00    +0.210 HD
ENDBRANCH  18  19
ENDBRANCH   3  18
TORSDOF 4
ENDMDL
MODEL 4
REMARK VINA RESULT:      -6.2      3.330      6.432
REMARK  Name = 
REMARK  4 active torsions:
REMARK  status: ('A' for Active; 'I' for Inactive)
REMARK    1  A    between atoms: N_3  and  C_9
REMARK    2  A    between atoms: C_12  and  N_19
REMARK    3  A    between atoms: C_14  and  C_17
REMARK    4  A    between atoms: C_17  and  O_18
REMARK                            x       y       z     vdW  Elec       q    Type
REMARK                         _______ _______ _______ _____ _____    ______ ____
ROOT
ATOM      1  C   UNL     1       7.710  -4.401  23.583  0.00  0.00    +0.212 C 
ATOM      2  O   UNL     1       8.587  -5.308  24.274  0.00  0.00    -0.351 OA
ATOM      3  C   UNL     1       9.658  -4.548  24.875  0.00  0.00    +0.177 C 
ATOM      4  C   UNL     1       9.364  -3.067  24.622  0.00  0.00    +0.226 C 
ATOM      5  C   UNL     1       7.889  -3.066  24.287  0.00  0.00    +0.088 C 
ENDROOT
BRANCH   1  13
ATOM      6  C   UNL     1       4.999  -6.026  25.296  0.00  0.00    +0.115 C 
ATOM      7  C   UNL     1       4.428  -6.893  24.211  0.00  0.00    +0.222 C 
ATOM      8  O   UNL     1       3.645  -7.810  24.448  0.00  0.00    -0.275 OA
ATOM      9  N   UNL     1       4.919  -6.680  22.951  0.00  0.00    -0.240 N 
ATOM     10  H   UNL     1       4.686  -7.395  22.278  0.00  0.00    +0.159 HD
ATOM     11  C   UNL     1       6.041  -5.952  22.657  0.00  0.00    +0.310 C 
ATOM     12  O   UNL     1       6.708  -6.241  21.670  0.00  0.00    -0.252 OA
ATOM     13  N   UNL     1       6.362  -4.958  23.565  0.00  0.00    -0.259 N 
ATOM     14  C   UNL     1       5.458  -4.721  24.685  0.00  0.00    +0.121 C 
ENDBRANCH   1  13
BRANCH   4  15
ATOM     15  N   UNL     1      10.107  -2.607  23.430  0.00  0.00    +0.082 NA
ATOM     16  N   UNL     1      10.139  -1.374  23.254  0.00  0.00    -0.014 NA
ATOM     17  N   UNL     1      10.176  -0.248  23.105  0.00  0.00    -0.328 NA
ENDBRANCH   4  15
BRANCH   3  18
ATOM     18  C   UNL     1       9.719  -4.906  26.363  0.00  0.00    +0.189 C 
BRANCH  18  19
ATOM     19  O   UNL     1       8.595  -5.692  26.748  0.00  0.00    -0.392 OA
ATOM     20  H   UNL     1       7.817  -5.108  26.658  0.00  0.00    +0.210 HD
ENDBRANCH  18  19
ENDBRANCH   3  18
TORSDOF 4
ENDMDL
MODEL 5
REMARK VINA RESULT:      -5.9      1.597      2.188
REMARK  Name = 
REMARK  4 active torsions:
REMARK  status: ('A' for Active; 'I' for Inactive)
REMARK    1  A    between atoms: N_3  and  C_9
REMARK    2  A    between atoms: C_12  and  N_19
REMARK    3  A    between atoms: C_14  and  C_17
REMARK    4  A    between atoms: C_17  and  O_18
REMARK                            x       y       z     vdW  Elec       q    Type
REMARK                         _______ _______ _______ _____ _____    ______ ____
ROOT
ATOM      1  C   UNL     1       9.245  -2.376  24.662  0.00  0.00    +0.212 C 
ATOM      2  O   UNL     1       9.480  -3.705  24.164  0.00  0.00    -0.351 OA
ATOM      3  C   UNL     1       8.398  -4.559  24.597  0.00  0.00    +0.177 C 
ATOM      4  C   UNL     1       7.380  -3.674  25.321  0.00  0.00    +0.226 C 
ATOM      5  C   UNL     1       7.739  -2.283  24.844  0.00  0.00    +0.088 C 
ENDROOT
BRANCH   1  13
ATOM      6  C   UNL     1      10.129   1.020  23.880  0.00  0.00    +0.115 C 
ATOM      7  C   UNL     1       9.960   1.044  22.388  0.00  0.00    +0.222 C 
ATOM      8  O   UNL     1       9.911   2.093  21.751  0.00  0.00    -0.275 OA
ATOM      9  N   UNL     1       9.745  -0.167  21.789  0.00  0.00    -0.240 N 
ATOM     10  H   UNL     1       9.431  -0.117  20.831  0.00  0.00    +0.159 HD
ATOM     11  C   UNL     1       9.417  -1.323  22.446  0.00  0.00    +0.310 C 
ATOM     12  O   UNL     1       8.731  -2.167  21.880  0.00  0.00    -0.252 OA
ATOM     13  N   UNL     1       9.856  -1.410  23.756  0.00  0.00    -0.259 N 
ATOM     14  C   UNL     1      10.679  -0.329  24.286  0.00  0.00    +0.121 C 
ENDBRANCH   1  13
BRANCH   4  15
ATOM     15  N   UNL     1       7.615  -3.735  26.780  0.00  0.00    +0.082 NA
ATOM     16  N   UNL     1       7.422  -4.843  27.314  0.00  0.00    -0.014 NA
ATOM     17  N   UNL     1       7.257  -5.860  27.794  0.00  0.00    -0.328 NA
ENDBRANCH   4  15
BRANCH   3  18
ATOM     18  C   UNL     1       7.820  -5.257  23.362  0.00  0.00    +0.189 C 
BRANCH  18  19
ATOM     19  O   UNL     1       7.190  -4.322  22.491  0.00  0.00    -0.392 OA
ATOM     20  H   UNL     1       7.875  -4.051  21.850  0.00  0.00    +0.210 HD
ENDBRANCH  18  19
ENDBRANCH   3  18
TORSDOF 4
ENDMDL
MODEL 6
REMARK VINA RESULT:      -5.9      2.350      2.782
REMARK  Name = 
REMARK  4 active torsions:
REMARK  status: ('A' for Active; 'I' for Inactive)
REMARK    1  A    between atoms: N_3  and  C_9
REMARK    2  A    between atoms: C_12  and  N_19
REMARK    3  A    between atoms: C_14  and  C_17
REMARK    4  A    between atoms: C_17  and  O_18
REMARK                            x       y       z     vdW  Elec       q    Type
REMARK                         _______ _______ _______ _____ _____    ______ ____
ROOT
ATOM      1  C   UNL     1       6.734  -3.381  24.897  0.00  0.00    +0.212 C 
ATOM      2  O   UNL     1       7.900  -3.226  25.725  0.00  0.00    -0.351 OA
ATOM      3  C   UNL     1       8.278  -4.523  26.239  0.00  0.00    +0.177 C 
ATOM      4  C   UNL     1       7.344  -5.555  25.603  0.00  0.00    +0.226 C 
ATOM      5  C   UNL     1       6.788  -4.819  24.404  0.00  0.00    +0.088 C 
ENDROOT
BRANCH   1  13
ATOM      6  C   UNL     1       8.533  -1.152  22.726  0.00  0.00    +0.115 C 
ATOM      7  C   UNL     1       7.639   0.055  22.717  0.00  0.00    +0.222 C 
ATOM      8  O   UNL     1       8.017   1.147  22.301  0.00  0.00    -0.275 OA
ATOM      9  N   UNL     1       6.415  -0.102  23.308  0.00  0.00    -0.240 N 
ATOM     10  H   UNL     1       5.913   0.757  23.479  0.00  0.00    +0.159 HD
ATOM     11  C   UNL     1       6.058  -1.151  24.113  0.00  0.00    +0.310 C 
ATOM     12  O   UNL     1       5.233  -0.977  25.003  0.00  0.00    -0.252 OA
ATOM     13  N   UNL     1       6.728  -2.338  23.877  0.00  0.00    -0.259 N 
ATOM     14  C   UNL     1       7.674  -2.395  22.768  0.00  0.00    +0.121 C 
ENDBRANCH   1  13
BRANCH   4  15
ATOM     15  N   UNL     1       6.224  -5.848  26.523  0.00  0.00    +0.082 NA
ATOM     16  N   UNL     1       6.545  -6.195  27.675  0.00  0.00    -0.014 NA
ATOM     17  N   UNL     1       6.844  -6.500  28.729  0.00  0.00    -0.328 NA
ENDBRANCH   4  15
BRANCH   3  18
ATOM     18  C   UNL     1       9.754  -4.755  25.903  0.00  0.00    +0.189 C 
BRANCH  18  19
ATOM     19  O   UNL     1       9.934  -5.981  25.200  0.00  0.00    -0.392 OA
ATOM     20  H   UNL     1      10.890  -6.177  25.242  0.00  0.00    +0.210 HD
ENDBRANCH  18  19
ENDBRANCH   3  18
TORSDOF 4
ENDMDL
MODEL 7
REMARK VINA RESULT:      -5.7      2.342      3.031
REMARK  Name = 
REMARK  4 active torsions:
REMARK  status: ('A' for Active; 'I' for Inactive)
REMARK    1  A    between atoms: N_3  and  C_9
REMARK    2  A    between atoms: C_12  and  N_19
REMARK    3  A    between atoms: C_14  and  C_17
REMARK    4  A    between atoms: C_17  and  O_18
REMARK                            x       y       z     vdW  Elec       q    Type
REMARK                         _______ _______ _______ _____ _____    ______ ____
ROOT
ATOM      1  C   UNL     1       7.202  -4.247  25.299  0.00  0.00    +0.212 C 
ATOM      2  O   UNL     1       5.993  -4.144  24.527  0.00  0.00    -0.351 OA
ATOM      3  C   UNL     1       4.893  -4.641  25.322  0.00  0.00    +0.177 C 
ATOM      4  C   UNL     1       5.448  -4.976  26.709  0.00  0.00    +0.226 C 
ATOM      5  C   UNL     1       6.749  -4.206  26.750  0.00  0.00    +0.088 C 
ENDROOT
BRANCH   1  13
ATOM      6  C   UNL     1       8.006  -1.501  23.122  0.00  0.00    +0.115 C 
ATOM      7  C   UNL     1       9.486  -1.677  22.942  0.00  0.00    +0.222 C 
ATOM      8  O   UNL     1      10.113  -1.098  22.058  0.00  0.00    -0.275 OA
ATOM      9  N   UNL     1      10.082  -2.610  23.747  0.00  0.00    -0.240 N 
ATOM     10  H   UNL     1      11.021  -2.865  23.478  0.00  0.00    +0.159 HD
ATOM     11  C   UNL     1       9.416  -3.552  24.486  0.00  0.00    +0.310 C 
ATOM     12  O   UNL     1       9.950  -4.631  24.713  0.00  0.00    -0.252 OA
ATOM     13  N   UNL     1       8.132  -3.208  24.873  0.00  0.00    -0.259 N 
ATOM     14  C   UNL     1       7.639  -1.876  24.540  0.00  0.00    +0.121 C 
ENDBRANCH   1  13
BRANCH   4  15
ATOM     15  N   UNL     1       5.764  -6.418  26.785  0.00  0.00    +0.082 NA
ATOM     16  N   UNL     1       5.921  -6.879  27.931  0.00  0.00    -0.014 NA
ATOM     17  N   UNL     1       6.052  -7.297  28.980  0.00  0.00    -0.328 NA
ENDBRANCH   4  15
BRANCH   3  18
ATOM     18  C   UNL     1       3.803  -3.565  25.351  0.00  0.00    +0.189 C 
BRANCH  18  19
ATOM     19  O   UNL     1       4.332  -2.288  25.005  0.00  0.00    -0.392 OA
ATOM     20  H   UNL     1       3.671  -1.635  25.305  0.00  0.00    +0.210 HD
ENDBRANCH  18  19
ENDBRANCH   3  18
TORSDOF 4
ENDMDL
MODEL 8
REMARK VINA RESULT:      -5.6      2.402      3.367
REMARK  Name = 
REMARK  4 active torsions:
REMARK  status: ('A' for Active; 'I' for Inactive)
REMARK    1  A    between atoms: N_3  and  C_9
REMARK    2  A    between atoms: C_12  and  N_19
REMARK    3  A    between atoms: C_14  and  C_17
REMARK    4  A    between atoms: C_17  and  O_18
REMARK                            x       y       z     vdW  Elec       q    Type
REMARK                         _______ _______ _______ _____ _____    ______ ____
ROOT
ATOM      1  C   UNL     1       8.114  -2.709  24.275  0.00  0.00    +0.212 C 
ATOM      2  O   UNL     1       7.370  -2.748  25.505  0.00  0.00    -0.351 OA
ATOM      3  C   UNL     1       6.835  -4.079  25.679  0.00  0.00    +0.177 C 
ATOM      4  C   UNL     1       7.371  -4.940  24.532  0.00  0.00    +0.226 C 
ATOM      5  C   UNL     1       8.557  -4.143  24.035  0.00  0.00    +0.088 C 
ENDROOT
BRANCH   1  13
ATOM      6  C   UNL     1       9.166   0.604  25.191  0.00  0.00    +0.115 C 
ATOM      7  C   UNL     1      10.204   0.896  24.146  0.00  0.00    +0.222 C 
ATOM      8  O   UNL     1      10.628   2.030  23.941  0.00  0.00    -0.275 OA
ATOM      9  N   UNL     1      10.569  -0.158  23.352  0.00  0.00    -0.240 N 
ATOM     10  H   UNL     1      11.103   0.092  22.533  0.00  0.00    +0.159 HD
ATOM     11  C   UNL     1       9.892  -1.346  23.261  0.00  0.00    +0.310 C 
ATOM     12  O   UNL     1       9.917  -1.978  22.211  0.00  0.00    -0.252 OA
ATOM     13  N   UNL     1       9.169  -1.707  24.385  0.00  0.00    -0.259 N 
ATOM     14  C   UNL     1       9.250  -0.858  25.567  0.00  0.00    +0.121 C 
ENDBRANCH   1  13
BRANCH   4  15
ATOM     15  N   UNL     1       6.370  -5.003  23.446  0.00  0.00    +0.082 NA
ATOM     16  N   UNL     1       6.766  -5.494  22.372  0.00  0.00    -0.014 NA
ATOM     17  N   UNL     1       7.130  -5.954  21.398  0.00  0.00    -0.328 NA
ENDBRANCH   4  15
BRANCH   3  18
ATOM     18  C   UNL     1       7.257  -4.584  27.062  0.00  0.00    +0.189 C 
BRANCH  18  19
ATOM     19  O   UNL     1       7.899  -5.853  26.972  0.00  0.00    -0.392 OA
ATOM     20  H   UNL     1       8.428  -5.944  27.787  0.00  0.00    +0.210 HD
ENDBRANCH  18  19
ENDBRANCH   3  18
TORSDOF 4
ENDMDL
MODEL 9
REMARK VINA RESULT:      -5.6      2.747      3.453
REMARK  Name = 
REMARK  4 active torsions:
REMARK  status: ('A' for Active; 'I' for Inactive)
REMARK    1  A    between atoms: N_3  and  C_9
REMARK    2  A    between atoms: C_12  and  N_19
REMARK    3  A    between atoms: C_14  and  C_17
REMARK    4  A    between atoms: C_17  and  O_18
REMARK                            x       y       z     vdW  Elec       q    Type
REMARK                         _______ _______ _______ _____ _____    ______ ____
ROOT
ATOM      1  C   UNL     1       8.431  -3.152  23.462  0.00  0.00    +0.212 C 
ATOM      2  O   UNL     1       7.041  -2.802  23.353  0.00  0.00    -0.351 OA
ATOM      3  C   UNL     1       6.252  -4.011  23.433  0.00  0.00    +0.177 C 
ATOM      4  C   UNL     1       7.216  -5.167  23.711  0.00  0.00    +0.226 C 
ATOM      5  C   UNL     1       8.450  -4.463  24.233  0.00  0.00    +0.088 C 
ENDROOT
BRANCH   1  13
ATOM      6  C   UNL     1       8.418   0.028  25.137  0.00  0.00    +0.115 C 
ATOM      7  C   UNL     1       9.623   0.695  24.538  0.00  0.00    +0.222 C 
ATOM      8  O   UNL     1       9.828   1.901  24.648  0.00  0.00    -0.275 OA
ATOM      9  N   UNL     1      10.424  -0.099  23.762  0.00  0.00    -0.240 N 
ATOM     10  H   UNL     1      11.103   0.399  23.205  0.00  0.00    +0.159 HD
ATOM     11  C   UNL     1      10.081  -1.337  23.287  0.00  0.00    +0.310 C 
ATOM     12  O   UNL     1      10.547  -1.727  22.222  0.00  0.00    -0.252 OA
ATOM     13  N   UNL     1       9.162  -2.035  24.051  0.00  0.00    -0.259 N 
ATOM     14  C   UNL     1       8.710  -1.446  25.306  0.00  0.00    +0.121 C 
ENDBRANCH   1  13
BRANCH   4  15
ATOM     15  N   UNL     1       7.571  -5.837  22.443  0.00  0.00    +0.082 NA
ATOM     16  N   UNL     1       6.726  -5.756  21.532  0.00  0.00    -0.014 NA
ATOM     17  N   UNL     1       5.955  -5.670  20.700  0.00  0.00    -0.328 NA
ENDBRANCH   4  15
BRANCH   3  18
ATOM     18  C   UNL     1       5.203  -3.822  24.532  0.00  0.00    +0.189 C 
BRANCH  18  19
ATOM     19  O   UNL     1       4.621  -2.522  24.469  0.00  0.00    -0.392 OA
ATOM     20  H   UNL     1       3.761  -2.592  24.926  0.00  0.00    +0.210 HD
ENDBRANCH  18  19
ENDBRANCH   3  18
TORSDOF 4
ENDMDL
