MODEL 1
REMARK VINA RESULT:      -6.4      0.000      0.000
REMARK  Name = 
REMARK  8 active torsions:
REMARK  status: ('A' for Active; 'I' for Inactive)
REMARK    1  A    between atoms: C_1  and  C_2
REMARK    2  A    between atoms: C_2  and  C_3
REMARK    3  A    between atoms: C_2  and  N_4
REMARK    4  A    between atoms: N_13  and  C1*_14
REMARK    5  A    between atoms: C2*_16  and  O2*_26
REMARK    6  A    between atoms: C3*_18  and  O3*_25
REMARK    7  A    between atoms: C4*_20  and  C5*_23
REMARK    8  A    between atoms: C5*_23  and  O5*_24
REMARK                            x       y       z     vdW  Elec       q    Type
REMARK                         _______ _______ _______ _____ _____    ______ ____
ROOT
ATOM      1  N   UNL     1       5.490  -3.665  24.204  0.00  0.00    -0.312 N 
ATOM      2  H   UNL     1       4.889  -3.505  25.020  0.00  0.00    +0.149 HD
ATOM      3  C   UNL     1       6.466  -2.757  24.011  0.00  0.00    +0.199 A 
ATOM      4  N   UNL     1       7.461  -2.533  24.938  0.00  0.00    -0.283 N 
ATOM      5  C   UNL     1       8.270  -1.525  24.429  0.00  0.00    +0.074 A 
ATOM      6  C   UNL     1       7.707  -1.228  23.192  0.00  0.00    +0.092 A 
ATOM      7  C   UNL     1       8.263  -0.225  22.387  0.00  0.00    +0.051 A 
ATOM      8  C   UNL     1       9.404   0.444  22.835  0.00  0.00    +0.061 A 
ATOM      9 CL   UNL     1      10.067   1.659  21.798  0.00  0.00    -0.082 Cl
ATOM     10  C   UNL     1       9.974   0.123  24.073  0.00  0.00    +0.061 A 
ATOM     11 CL   UNL     1      11.400   0.915  24.659  0.00  0.00    -0.082 Cl
ATOM     12  C   UNL     1       9.414  -0.865  24.903  0.00  0.00    +0.049 A 
ATOM     13  N   UNL     1       6.629  -2.017  22.943  0.00  0.00    -0.214 NA
ENDROOT
BRANCH   4  14
ATOM     14  C1* UNL     1       7.720  -3.238  26.185  0.00  0.00    +0.254 C 
ATOM     15  O4* UNL     1       6.519  -3.194  26.977  0.00  0.00    -0.346 OA
ATOM     16  C4* UNL     1       6.315  -4.496  27.548  0.00  0.00    +0.177 C 
ATOM     17  C3* UNL     1       7.028  -5.508  26.645  0.00  0.00    +0.178 C 
ATOM     18  C2* UNL     1       8.222  -4.698  26.142  0.00  0.00    +0.195 C 
BRANCH  17  19
ATOM     19  O3* UNL     1       6.186  -5.956  25.581  0.00  0.00    -0.386 OA
ATOM     20  H3* UNL     1       6.751  -6.013  24.786  0.00  0.00    +0.210 HD
ENDBRANCH  17  19
BRANCH  18  21
ATOM     21  O2* UNL     1       9.297  -4.894  27.082  0.00  0.00    -0.385 OA
ATOM     22  H2* UNL     1       9.025  -5.581  27.716  0.00  0.00    +0.210 HD
ENDBRANCH  18  21
BRANCH  16  23
ATOM     23  C5* UNL     1       4.818  -4.731  27.730  0.00  0.00    +0.190 C 
BRANCH  23  24
ATOM     24  O5* UNL     1       4.043  -4.002  26.789  0.00  0.00    -0.392 OA
ATOM     25  H5* UNL     1       3.483  -4.659  26.334  0.00  0.00    +0.210 HD
ENDBRANCH  23  24
ENDBRANCH  16  23
ENDBRANCH   4  14
BRANCH   1  27
ATOM     26  C   UNL     1       5.751  -5.197  22.364  0.00  0.00    +0.027 C 
ATOM     27  C   UNL     1       4.797  -4.204  23.033  0.00  0.00    +0.067 C 
ATOM     28  C   UNL     1       3.494  -4.882  23.448  0.00  0.00    +0.027 C 
ENDBRANCH   1  27
TORSDOF 6
ENDMDL
MODEL 2
REMARK VINA RESULT:      -6.3      4.277      6.582
REMARK  Name = 
REMARK  8 active torsions:
REMARK  status: ('A' for Active; 'I' for Inactive)
REMARK    1  A    between atoms: C_1  and  C_2
REMARK    2  A    between atoms: C_2  and  C_3
REMARK    3  A    between atoms: C_2  and  N_4
REMARK    4  A    between atoms: N_13  and  C1*_14
REMARK    5  A    between atoms: C2*_16  and  O2*_26
REMARK    6  A    between atoms: C3*_18  and  O3*_25
REMARK    7  A    between atoms: C4*_20  and  C5*_23
REMARK    8  A    between atoms: C5*_23  and  O5*_24
REMARK                            x       y       z     vdW  Elec       q    Type
REMARK                         _______ _______ _______ _____ _____    ______ ____
ROOT
ATOM      1  N   UNL     1       7.178   0.493  24.723  0.00  0.00    -0.312 N 
ATOM      2  H   UNL     1       7.154   1.281  24.068  0.00  0.00    +0.149 HD
ATOM      3  C   UNL     1       6.755  -0.688  24.231  0.00  0.00    +0.199 A 
ATOM      4  N   UNL     1       7.371  -1.308  23.165  0.00  0.00    -0.283 N 
ATOM      5  C   UNL     1       6.665  -2.477  22.913  0.00  0.00    +0.074 A 
ATOM      6  C   UNL     1       5.669  -2.491  23.885  0.00  0.00    +0.092 A 
ATOM      7  C   UNL     1       4.738  -3.537  23.927  0.00  0.00    +0.051 A 
ATOM      8  C   UNL     1       4.849  -4.575  22.998  0.00  0.00    +0.061 A 
ATOM      9 CL   UNL     1       3.691  -5.856  23.102  0.00  0.00    -0.082 Cl
ATOM     10  C   UNL     1       5.868  -4.562  22.038  0.00  0.00    +0.061 A 
ATOM     11 CL   UNL     1       6.052  -5.838  20.880  0.00  0.00    -0.082 Cl
ATOM     12  C   UNL     1       6.794  -3.506  21.969  0.00  0.00    +0.049 A 
ATOM     13  N   UNL     1       5.766  -1.407  24.700  0.00  0.00    -0.214 NA
ENDROOT
BRANCH   4  14
ATOM     14  C1* UNL     1       8.578  -0.912  22.455  0.00  0.00    +0.254 C 
ATOM     15  O4* UNL     1       8.518   0.509  22.235  0.00  0.00    -0.346 OA
ATOM     16  C4* UNL     1       9.813   1.058  22.522  0.00  0.00    +0.177 C 
ATOM     17  C3* UNL     1      10.511   0.101  23.495  0.00  0.00    +0.178 C 
ATOM     18  C2* UNL     1       9.960  -1.254  23.055  0.00  0.00    +0.195 C 
BRANCH  17  19
ATOM     19  O3* UNL     1      10.195   0.404  24.855  0.00  0.00    -0.386 OA
ATOM     20  H3* UNL     1      10.742   1.176  25.100  0.00  0.00    +0.210 HD
ENDBRANCH  17  19
BRANCH  18  21
ATOM     21  O2* UNL     1      10.844  -1.765  22.038  0.00  0.00    -0.385 OA
ATOM     22  H2* UNL     1      11.716  -1.349  22.156  0.00  0.00    +0.210 HD
ENDBRANCH  18  21
BRANCH  16  23
ATOM     23  C5* UNL     1       9.646   2.488  23.027  0.00  0.00    +0.190 C 
BRANCH  23  24
ATOM     24  O5* UNL     1      10.865   3.032  23.511  0.00  0.00    -0.392 OA
ATOM     25  H5* UNL     1      11.001   2.644  24.397  0.00  0.00    +0.210 HD
ENDBRANCH  23  24
ENDBRANCH  16  23
ENDBRANCH   4  14
BRANCH   1  27
ATOM     26  C   UNL     1       7.676  -0.061  27.014  0.00  0.00    +0.027 C 
ATOM     27  C   UNL     1       6.835   0.837  26.103  0.00  0.00    +0.067 C 
ATOM     28  C   UNL     1       7.114   2.313  26.371  0.00  0.00    +0.027 C 
ENDBRANCH   1  27
TORSDOF 6
ENDMDL
MODEL 3
REMARK VINA RESULT:      -6.1      3.389      4.682
REMARK  Name = 
REMARK  8 active torsions:
REMARK  status: ('A' for Active; 'I' for Inactive)
REMARK    1  A    between atoms: C_1  and  C_2
REMARK    2  A    between atoms: C_2  and  C_3
REMARK    3  A    between atoms: C_2  and  N_4
REMARK    4  A    between atoms: N_13  and  C1*_14
REMARK    5  A    between atoms: C2*_16  and  O2*_26
REMARK    6  A    between atoms: C3*_18  and  O3*_25
REMARK    7  A    between atoms: C4*_20  and  C5*_23
REMARK    8  A    between atoms: C5*_23  and  O5*_24
REMARK                            x       y       z     vdW  Elec       q    Type
REMARK                         _______ _______ _______ _____ _____    ______ ____
ROOT
ATOM      1  N   UNL     1       7.284  -0.530  25.380  0.00  0.00    -0.312 N 
ATOM      2  H   UNL     1       7.797  -1.186  25.979  0.00  0.00    +0.149 HD
ATOM      3  C   UNL     1       7.954   0.586  25.031  0.00  0.00    +0.199 A 
ATOM      4  N   UNL     1       9.128   0.550  24.311  0.00  0.00    -0.283 N 
ATOM      5  C   UNL     1       9.550   1.864  24.156  0.00  0.00    +0.074 A 
ATOM      6  C   UNL     1       8.561   2.616  24.784  0.00  0.00    +0.092 A 
ATOM      7  C   UNL     1       8.665   4.012  24.839  0.00  0.00    +0.051 A 
ATOM      8  C   UNL     1       9.758   4.631  24.228  0.00  0.00    +0.061 A 
ATOM      9 CL   UNL     1       9.832   6.358  24.303  0.00  0.00    -0.082 Cl
ATOM     10  C   UNL     1      10.735   3.866  23.580  0.00  0.00    +0.061 A 
ATOM     11 CL   UNL     1      12.097   4.595  22.794  0.00  0.00    -0.082 Cl
ATOM     12  C   UNL     1      10.657   2.463  23.538  0.00  0.00    +0.049 A 
ATOM     13  N   UNL     1       7.579   1.817  25.279  0.00  0.00    -0.214 NA
ENDROOT
BRANCH   4  14
ATOM     14  C1* UNL     1       9.801  -0.599  23.725  0.00  0.00    +0.254 C 
ATOM     15  O4* UNL     1       9.727  -1.685  24.667  0.00  0.00    -0.346 OA
ATOM     16  C4* UNL     1       9.398  -2.881  23.943  0.00  0.00    +0.177 C 
ATOM     17  C3* UNL     1       8.673  -2.454  22.662  0.00  0.00    +0.178 C 
ATOM     18  C2* UNL     1       9.349  -1.122  22.343  0.00  0.00    +0.195 C 
BRANCH  17  19
ATOM     19  O3* UNL     1       7.266  -2.316  22.870  0.00  0.00    -0.386 OA
ATOM     20  H3* UNL     1       6.847  -2.406  21.992  0.00  0.00    +0.210 HD
ENDBRANCH  17  19
BRANCH  18  21
ATOM     21  O2* UNL     1      10.490  -1.411  21.511  0.00  0.00    -0.385 OA
ATOM     22  H2* UNL     1      11.267  -1.521  22.087  0.00  0.00    +0.210 HD
ENDBRANCH  18  21
BRANCH  16  23
ATOM     23  C5* UNL     1       8.608  -3.813  24.856  0.00  0.00    +0.190 C 
BRANCH  23  24
ATOM     24  O5* UNL     1       7.998  -4.876  24.138  0.00  0.00    -0.392 OA
ATOM     25  H5* UNL     1       8.305  -5.700  24.564  0.00  0.00    +0.210 HD
ENDBRANCH  23  24
ENDBRANCH  16  23
ENDBRANCH   4  14
BRANCH   1  27
ATOM     26  C   UNL     1       5.202  -1.730  25.222  0.00  0.00    +0.027 C 
ATOM     27  C   UNL     1       5.855  -0.423  25.676  0.00  0.00    +0.067 C 
ATOM     28  C   UNL     1       5.635  -0.183  27.167  0.00  0.00    +0.027 C 
ENDBRANCH   1  27
TORSDOF 6
ENDMDL
MODEL 4
REMARK VINA RESULT:      -5.8      2.377      3.506
REMARK  Name = 
REMARK  8 active torsions:
REMARK  status: ('A' for Active; 'I' for Inactive)
REMARK    1  A    between atoms: C_1  and  C_2
REMARK    2  A    between atoms: C_2  and  C_3
REMARK    3  A    between atoms: C_2  and  N_4
REMARK    4  A    between atoms: N_13  and  C1*_14
REMARK    5  A    between atoms: C2*_16  and  O2*_26
REMARK    6  A    between atoms: C3*_18  and  O3*_25
REMARK    7  A    between atoms: C4*_20  and  C5*_23
REMARK    8  A    between atoms: C5*_23  and  O5*_24
REMARK                            x       y       z     vdW  Elec       q    Type
REMARK                         _______ _______ _______ _____ _____    ______ ____
ROOT
ATOM      1  N   UNL     1       4.370  -3.455  25.438  0.00  0.00    -0.312 N 
ATOM      2  H   UNL     1       4.822  -4.161  26.027  0.00  0.00    +0.149 HD
ATOM      3  C   UNL     1       5.196  -2.565  24.855  0.00  0.00    +0.199 A 
ATOM      4  N   UNL     1       6.185  -2.941  23.973  0.00  0.00    -0.283 N 
ATOM      5  C   UNL     1       6.853  -1.784  23.593  0.00  0.00    +0.074 A 
ATOM      6  C   UNL     1       6.184  -0.768  24.268  0.00  0.00    +0.092 A 
ATOM      7  C   UNL     1       6.602   0.563  24.133  0.00  0.00    +0.051 A 
ATOM      8  C   UNL     1       7.678   0.849  23.290  0.00  0.00    +0.061 A 
ATOM      9 CL   UNL     1       8.144   2.508  23.138  0.00  0.00    -0.082 Cl
ATOM     10  C   UNL     1       8.330  -0.179  22.599  0.00  0.00    +0.061 A 
ATOM     11 CL   UNL     1       9.656   0.134  21.528  0.00  0.00    -0.082 Cl
ATOM     12  C   UNL     1       7.937  -1.522  22.743  0.00  0.00    +0.049 A 
ATOM     13  N   UNL     1       5.154  -1.263  25.004  0.00  0.00    -0.214 NA
ENDROOT
BRANCH   4  14
ATOM     14  C1* UNL     1       6.472  -4.263  23.437  0.00  0.00    +0.254 C 
ATOM     15  O4* UNL     1       6.140  -5.233  24.447  0.00  0.00    -0.346 OA
ATOM     16  C4* UNL     1       5.447  -6.319  23.811  0.00  0.00    +0.177 C 
ATOM     17  C3* UNL     1       4.808  -5.766  22.533  0.00  0.00    +0.178 C 
ATOM     18  C2* UNL     1       5.819  -4.703  22.107  0.00  0.00    +0.195 C 
BRANCH  17  19
ATOM     19  O3* UNL     1       3.512  -5.219  22.781  0.00  0.00    -0.386 OA
ATOM     20  H3* UNL     1       3.229  -5.564  23.650  0.00  0.00    +0.210 HD
ENDBRANCH  17  19
BRANCH  18  21
ATOM     21  O2* UNL     1       6.785  -5.349  21.255  0.00  0.00    -0.385 OA
ATOM     22  H2* UNL     1       6.557  -5.149  20.330  0.00  0.00    +0.210 HD
ENDBRANCH  18  21
BRANCH  16  23
ATOM     23  C5* UNL     1       4.472  -6.938  24.808  0.00  0.00    +0.190 C 
BRANCH  23  24
ATOM     24  O5* UNL     1       3.568  -7.839  24.185  0.00  0.00    -0.392 OA
ATOM     25  H5* UNL     1       2.905  -7.284  23.732  0.00  0.00    +0.210 HD
ENDBRANCH  23  24
ENDBRANCH  16  23
ENDBRANCH   4  14
BRANCH   1  27
ATOM     26  C   UNL     1       2.015  -3.965  25.429  0.00  0.00    +0.027 C 
ATOM     27  C   UNL     1       3.076  -2.984  25.935  0.00  0.00    +0.067 C 
ATOM     28  C   UNL     1       3.082  -2.914  27.460  0.00  0.00    +0.027 C 
ENDBRANCH   1  27
TORSDOF 6
ENDMDL
MODEL 5
REMARK VINA RESULT:      -5.8      1.779      2.484
REMARK  Name = 
REMARK  8 active torsions:
REMARK  status: ('A' for Active; 'I' for Inactive)
REMARK    1  A    between atoms: C_1  and  C_2
REMARK    2  A    between atoms: C_2  and  C_3
REMARK    3  A    between atoms: C_2  and  N_4
REMARK    4  A    between atoms: N_13  and  C1*_14
REMARK    5  A    between atoms: C2*_16  and  O2*_26
REMARK    6  A    between atoms: C3*_18  and  O3*_25
REMARK    7  A    between atoms: C4*_20  and  C5*_23
REMARK    8  A    between atoms: C5*_23  and  O5*_24
REMARK                            x       y       z     vdW  Elec       q    Type
REMARK                         _______ _______ _______ _____ _____    ______ ____
ROOT
ATOM      1  N   UNL     1       6.359  -4.114  22.510  0.00  0.00    -0.312 N 
ATOM      2  H   UNL     1       5.350  -4.066  22.334  0.00  0.00    +0.149 HD
ATOM      3  C   UNL     1       6.974  -2.931  22.705  0.00  0.00    +0.199 A 
ATOM      4  N   UNL     1       6.641  -2.086  23.741  0.00  0.00    -0.283 N 
ATOM      5  C   UNL     1       7.447  -0.961  23.622  0.00  0.00    +0.074 A 
ATOM      6  C   UNL     1       8.246  -1.230  22.515  0.00  0.00    +0.092 A 
ATOM      7  C   UNL     1       9.189  -0.289  22.081  0.00  0.00    +0.051 A 
ATOM      8  C   UNL     1       9.331   0.902  22.796  0.00  0.00    +0.061 A 
ATOM      9 CL   UNL     1      10.522   2.024  22.236  0.00  0.00    -0.082 Cl
ATOM     10  C   UNL     1       8.537   1.153  23.922  0.00  0.00    +0.061 A 
ATOM     11 CL   UNL     1       8.693   2.608  24.848  0.00  0.00    -0.082 Cl
ATOM     12  C   UNL     1       7.570   0.228  24.355  0.00  0.00    +0.049 A 
ATOM     13  N   UNL     1       7.964  -2.453  21.993  0.00  0.00    -0.214 NA
ENDROOT
BRANCH   4  14
ATOM     14  C1* UNL     1       5.699  -2.306  24.828  0.00  0.00    +0.254 C 
ATOM     15  O4* UNL     1       4.533  -2.949  24.282  0.00  0.00    -0.346 OA
ATOM     16  C4* UNL     1       4.141  -3.998  25.181  0.00  0.00    +0.177 C 
ATOM     17  C3* UNL     1       5.389  -4.415  25.968  0.00  0.00    +0.178 C 
ATOM     18  C2* UNL     1       6.151  -3.096  26.077  0.00  0.00    +0.195 C 
BRANCH  17  19
ATOM     19  O3* UNL     1       6.136  -5.422  25.282  0.00  0.00    -0.386 OA
ATOM     20  H3* UNL     1       5.561  -5.752  24.565  0.00  0.00    +0.210 HD
ENDBRANCH  17  19
BRANCH  18  21
ATOM     21  O2* UNL     1       5.702  -2.442  27.281  0.00  0.00    -0.385 OA
ATOM     22  H2* UNL     1       5.380  -3.125  27.895  0.00  0.00    +0.210 HD
ENDBRANCH  18  21
BRANCH  16  23
ATOM     23  C5* UNL     1       3.475  -5.115  24.383  0.00  0.00    +0.190 C 
BRANCH  23  24
ATOM     24  O5* UNL     1       3.503  -4.864  22.985  0.00  0.00    -0.392 OA
ATOM     25  H5* UNL     1       3.256  -3.926  22.875  0.00  0.00    +0.210 HD
ENDBRANCH  23  24
ENDBRANCH  16  23
ENDBRANCH   4  14
BRANCH   1  27
ATOM     26  C   UNL     1       7.861  -5.981  22.759  0.00  0.00    +0.027 C 
ATOM     27  C   UNL     1       7.062  -5.150  21.752  0.00  0.00    +0.067 C 
ATOM     28  C   UNL     1       6.068  -6.017  20.984  0.00  0.00    +0.027 C 
ENDBRANCH   1  27
TORSDOF 6
ENDMDL
MODEL 6
REMARK VINA RESULT:      -5.7      4.275      6.588
REMARK  Name = 
REMARK  8 active torsions:
REMARK  status: ('A' for Active; 'I' for Inactive)
REMARK    1  A    between atoms: C_1  and  C_2
REMARK    2  A    between atoms: C_2  and  C_3
REMARK    3  A    between atoms: C_2  and  N_4
REMARK    4  A    between atoms: N_13  and  C1*_14
REMARK    5  A    between atoms: C2*_16  and  O2*_26
REMARK    6  A    between atoms: C3*_18  and  O3*_25
REMARK    7  A    between atoms: C4*_20  and  C5*_23
REMARK    8  A    between atoms: C5*_23  and  O5*_24
REMARK                            x       y       z     vdW  Elec       q    Type
REMARK                         _______ _______ _______ _____ _____    ______ ____
ROOT
ATOM      1  N   UNL     1       6.964   1.254  23.798  0.00  0.00    -0.312 N 
ATOM      2  H   UNL     1       6.996   1.368  22.779  0.00  0.00    +0.149 HD
ATOM      3  C   UNL     1       6.496   0.070  24.238  0.00  0.00    +0.199 A 
ATOM      4  N   UNL     1       7.107  -1.127  23.933  0.00  0.00    -0.283 N 
ATOM      5  C   UNL     1       6.350  -2.131  24.524  0.00  0.00    +0.074 A 
ATOM      6  C   UNL     1       5.331  -1.448  25.181  0.00  0.00    +0.092 A 
ATOM      7  C   UNL     1       4.348  -2.155  25.887  0.00  0.00    +0.051 A 
ATOM      8  C   UNL     1       4.430  -3.548  25.942  0.00  0.00    +0.061 A 
ATOM      9 CL   UNL     1       3.208  -4.377  26.843  0.00  0.00    -0.082 Cl
ATOM     10  C   UNL     1       5.472  -4.224  25.295  0.00  0.00    +0.061 A 
ATOM     11 CL   UNL     1       5.621  -5.949  25.354  0.00  0.00    -0.082 Cl
ATOM     12  C   UNL     1       6.451  -3.529  24.563  0.00  0.00    +0.049 A 
ATOM     13  N   UNL     1       5.461  -0.104  25.023  0.00  0.00    -0.214 NA
ENDROOT
BRANCH   4  14
ATOM     14  C1* UNL     1       8.349  -1.357  23.211  0.00  0.00    +0.254 C 
ATOM     15  O4* UNL     1       8.525  -0.277  22.275  0.00  0.00    -0.346 OA
ATOM     16  C4* UNL     1       9.900   0.134  22.325  0.00  0.00    +0.177 C 
ATOM     17  C3* UNL     1      10.444  -0.258  23.703  0.00  0.00    +0.178 C 
ATOM     18  C2* UNL     1       9.665  -1.537  24.000  0.00  0.00    +0.195 C 
BRANCH  17  19
ATOM     19  O3* UNL     1      10.211   0.762  24.676  0.00  0.00    -0.386 OA
ATOM     20  H3* UNL     1       9.245   0.912  24.692  0.00  0.00    +0.210 HD
ENDBRANCH  17  19
BRANCH  18  21
ATOM     21  O2* UNL     1      10.430  -2.637  23.468  0.00  0.00    -0.385 OA
ATOM     22  H2* UNL     1       9.825  -3.385  23.320  0.00  0.00    +0.210 HD
ENDBRANCH  18  21
BRANCH  16  23
ATOM     23  C5* UNL     1       9.986   1.621  21.993  0.00  0.00    +0.190 C 
BRANCH  23  24
ATOM     24  O5* UNL     1       8.801   2.102  21.374  0.00  0.00    -0.392 OA
ATOM     25  H5* UNL     1       9.072   2.440  20.499  0.00  0.00    +0.210 HD
ENDBRANCH  23  24
ENDBRANCH  16  23
ENDBRANCH   4  14
BRANCH   1  27
ATOM     26  C   UNL     1       7.702   2.702  25.575  0.00  0.00    +0.027 C 
ATOM     27  C   UNL     1       6.605   2.465  24.536  0.00  0.00    +0.067 C 
ATOM     28  C   UNL     1       6.478   3.653  23.584  0.00  0.00    +0.027 C 
ENDBRANCH   1  27
TORSDOF 6
ENDMDL
MODEL 7
REMARK VINA RESULT:      -5.6      2.061      3.746
REMARK  Name = 
REMARK  8 active torsions:
REMARK  status: ('A' for Active; 'I' for Inactive)
REMARK    1  A    between atoms: C_1  and  C_2
REMARK    2  A    between atoms: C_2  and  C_3
REMARK    3  A    between atoms: C_2  and  N_4
REMARK    4  A    between atoms: N_13  and  C1*_14
REMARK    5  A    between atoms: C2*_16  and  O2*_26
REMARK    6  A    between atoms: C3*_18  and  O3*_25
REMARK    7  A    between atoms: C4*_20  and  C5*_23
REMARK    8  A    between atoms: C5*_23  and  O5*_24
REMARK                            x       y       z     vdW  Elec       q    Type
REMARK                         _______ _______ _______ _____ _____    ______ ____
ROOT
ATOM      1  N   UNL     1       8.262  -3.432  24.436  0.00  0.00    -0.312 N 
ATOM      2  H   UNL     1       7.756  -3.894  23.674  0.00  0.00    +0.149 HD
ATOM      3  C   UNL     1       8.522  -2.122  24.255  0.00  0.00    +0.199 A 
ATOM      4  N   UNL     1       7.524  -1.186  24.093  0.00  0.00    -0.283 N 
ATOM      5  C   UNL     1       8.146   0.042  23.906  0.00  0.00    +0.074 A 
ATOM      6  C   UNL     1       9.504  -0.246  23.998  0.00  0.00    +0.092 A 
ATOM      7  C   UNL     1      10.454   0.772  23.840  0.00  0.00    +0.051 A 
ATOM      8  C   UNL     1      10.011   2.078  23.619  0.00  0.00    +0.061 A 
ATOM      9 CL   UNL     1      11.218   3.305  23.451  0.00  0.00    -0.082 Cl
ATOM     10  C   UNL     1       8.641   2.360  23.549  0.00  0.00    +0.061 A 
ATOM     11 CL   UNL     1       8.049   3.969  23.296  0.00  0.00    -0.082 Cl
ATOM     12  C   UNL     1       7.677   1.345  23.683  0.00  0.00    +0.049 A 
ATOM     13  N   UNL     1       9.708  -1.567  24.247  0.00  0.00    -0.214 NA
ENDROOT
BRANCH   4  14
ATOM     14  C1* UNL     1       6.082  -1.367  24.178  0.00  0.00    +0.254 C 
ATOM     15  O4* UNL     1       5.711  -2.406  23.254  0.00  0.00    -0.346 OA
ATOM     16  C4* UNL     1       4.764  -3.265  23.907  0.00  0.00    +0.177 C 
ATOM     17  C3* UNL     1       4.994  -3.135  25.417  0.00  0.00    +0.178 C 
ATOM     18  C2* UNL     1       5.434  -1.678  25.545  0.00  0.00    +0.195 C 
BRANCH  17  19
ATOM     19  O3* UNL     1       5.988  -4.049  25.882  0.00  0.00    -0.386 OA
ATOM     20  H3* UNL     1       5.736  -4.929  25.540  0.00  0.00    +0.210 HD
ENDBRANCH  17  19
BRANCH  18  21
ATOM     21  O2* UNL     1       4.244  -0.887  25.735  0.00  0.00    -0.385 OA
ATOM     22  H2* UNL     1       3.726  -1.286  26.456  0.00  0.00    +0.210 HD
ENDBRANCH  18  21
BRANCH  16  23
ATOM     23  C5* UNL     1       4.906  -4.678  23.349  0.00  0.00    +0.190 C 
BRANCH  23  24
ATOM     24  O5* UNL     1       6.260  -5.016  23.083  0.00  0.00    -0.392 OA
ATOM     25  H5* UNL     1       6.233  -5.800  22.503  0.00  0.00    +0.210 HD
ENDBRANCH  23  24
ENDBRANCH  16  23
ENDBRANCH   4  14
BRANCH   1  27
ATOM     26  C   UNL     1       9.085  -4.108  26.597  0.00  0.00    +0.027 C 
ATOM     27  C   UNL     1       9.278  -4.261  25.086  0.00  0.00    +0.067 C 
ATOM     28  C   UNL     1       9.134  -5.718  24.654  0.00  0.00    +0.027 C 
ENDBRANCH   1  27
TORSDOF 6
ENDMDL
MODEL 8
REMARK VINA RESULT:      -5.4      4.393      6.907
REMARK  Name = 
REMARK  8 active torsions:
REMARK  status: ('A' for Active; 'I' for Inactive)
REMARK    1  A    between atoms: C_1  and  C_2
REMARK    2  A    between atoms: C_2  and  C_3
REMARK    3  A    between atoms: C_2  and  N_4
REMARK    4  A    between atoms: N_13  and  C1*_14
REMARK    5  A    between atoms: C2*_16  and  O2*_26
REMARK    6  A    between atoms: C3*_18  and  O3*_25
REMARK    7  A    between atoms: C4*_20  and  C5*_23
REMARK    8  A    between atoms: C5*_23  and  O5*_24
REMARK                            x       y       z     vdW  Elec       q    Type
REMARK                         _______ _______ _______ _____ _____    ______ ____
ROOT
ATOM      1  N   UNL     1       9.584   1.752  24.339  0.00  0.00    -0.312 N 
ATOM      2  H   UNL     1       9.625   2.328  25.187  0.00  0.00    +0.149 HD
ATOM      3  C   UNL     1       9.238   0.464  24.526  0.00  0.00    +0.199 A 
ATOM      4  N   UNL     1       8.025   0.093  25.066  0.00  0.00    -0.283 N 
ATOM      5  C   UNL     1       8.019  -1.294  25.137  0.00  0.00    +0.074 A 
ATOM      6  C   UNL     1       9.245  -1.668  24.595  0.00  0.00    +0.092 A 
ATOM      7  C   UNL     1       9.598  -3.022  24.518  0.00  0.00    +0.051 A 
ATOM      8  C   UNL     1       8.688  -3.982  24.965  0.00  0.00    +0.061 A 
ATOM      9 CL   UNL     1       9.158  -5.641  24.831  0.00  0.00    -0.082 Cl
ATOM     10  C   UNL     1       7.448  -3.595  25.489  0.00  0.00    +0.061 A 
ATOM     11 CL   UNL     1       6.283  -4.754  26.037  0.00  0.00    -0.082 Cl
ATOM     12  C   UNL     1       7.090  -2.240  25.595  0.00  0.00    +0.049 A 
ATOM     13  N   UNL     1       9.957  -0.581  24.197  0.00  0.00    -0.214 NA
ENDROOT
BRANCH   4  14
ATOM     14  C1* UNL     1       6.897   0.936  25.432  0.00  0.00    +0.254 C 
ATOM     15  O4* UNL     1       7.402   2.048  26.193  0.00  0.00    -0.346 OA
ATOM     16  C4* UNL     1       6.743   3.238  25.732  0.00  0.00    +0.177 C 
ATOM     17  C3* UNL     1       6.284   2.978  24.293  0.00  0.00    +0.178 C 
ATOM     18  C2* UNL     1       5.967   1.484  24.327  0.00  0.00    +0.195 C 
BRANCH  17  19
ATOM     19  O3* UNL     1       7.303   3.298  23.345  0.00  0.00    -0.386 OA
ATOM     20  H3* UNL     1       6.900   3.197  22.461  0.00  0.00    +0.210 HD
ENDBRANCH  17  19
BRANCH  18  21
ATOM     21  O2* UNL     1       4.584   1.349  24.712  0.00  0.00    -0.385 OA
ATOM     22  H2* UNL     1       4.040   1.376  23.906  0.00  0.00    +0.210 HD
ENDBRANCH  18  21
BRANCH  16  23
ATOM     23  C5* UNL     1       7.683   4.427  25.908  0.00  0.00    +0.190 C 
BRANCH  23  24
ATOM     24  O5* UNL     1       7.249   5.566  25.179  0.00  0.00    -0.392 OA
ATOM     25  H5* UNL     1       7.252   6.309  25.812  0.00  0.00    +0.210 HD
ENDBRANCH  23  24
ENDBRANCH  16  23
ENDBRANCH   4  14
BRANCH   1  27
ATOM     26  C   UNL     1      10.002   1.758  21.967  0.00  0.00    +0.027 C 
ATOM     27  C   UNL     1      10.606   2.063  23.340  0.00  0.00    +0.067 C 
ATOM     28  C   UNL     1      11.029   3.526  23.446  0.00  0.00    +0.027 C 
ENDBRANCH   1  27
TORSDOF 6
ENDMDL
MODEL 9
REMARK VINA RESULT:      -5.3      3.921      6.264
REMARK  Name = 
REMARK  8 active torsions:
REMARK  status: ('A' for Active; 'I' for Inactive)
REMARK    1  A    between atoms: C_1  and  C_2
REMARK    2  A    between atoms: C_2  and  C_3
REMARK    3  A    between atoms: C_2  and  N_4
REMARK    4  A    between atoms: N_13  and  C1*_14
REMARK    5  A    between atoms: C2*_16  and  O2*_26
REMARK    6  A    between atoms: C3*_18  and  O3*_25
REMARK    7  A    between atoms: C4*_20  and  C5*_23
REMARK    8  A    between atoms: C5*_23  and  O5*_24
REMARK                            x       y       z     vdW  Elec       q    Type
REMARK                         _______ _______ _______ _____ _____    ______ ____
ROOT
ATOM      1  N   UNL     1       8.883   0.105  24.160  0.00  0.00    -0.312 N 
ATOM      2  H   UNL     1       8.919   0.341  25.157  0.00  0.00    +0.149 HD
ATOM      3  C   UNL     1       8.169  -0.993  23.845  0.00  0.00    +0.199 A 
ATOM      4  N   UNL     1       6.822  -1.101  24.114  0.00  0.00    -0.283 N 
ATOM      5  C   UNL     1       6.422  -2.360  23.684  0.00  0.00    +0.074 A 
ATOM      6  C   UNL     1       7.577  -2.920  23.149  0.00  0.00    +0.092 A 
ATOM      7  C   UNL     1       7.554  -4.219  22.624  0.00  0.00    +0.051 A 
ATOM      8  C   UNL     1       6.347  -4.923  22.622  0.00  0.00    +0.061 A 
ATOM      9 CL   UNL     1       6.361  -6.514  21.944  0.00  0.00    -0.082 Cl
ATOM     10  C   UNL     1       5.186  -4.341  23.143  0.00  0.00    +0.061 A 
ATOM     11 CL   UNL     1       3.665  -5.171  23.142  0.00  0.00    -0.082 Cl
ATOM     12  C   UNL     1       5.199  -3.048  23.695  0.00  0.00    +0.049 A 
ATOM     13  N   UNL     1       8.622  -2.054  23.226  0.00  0.00    -0.214 NA
ENDROOT
BRANCH   4  14
ATOM     14  C1* UNL     1       5.919  -0.099  24.661  0.00  0.00    +0.254 C 
ATOM     15  O4* UNL     1       6.065  -0.104  26.093  0.00  0.00    -0.346 OA
ATOM     16  C4* UNL     1       6.104   1.259  26.541  0.00  0.00    +0.177 C 
ATOM     17  C3* UNL     1       6.592   2.113  25.366  0.00  0.00    +0.178 C 
ATOM     18  C2* UNL     1       6.016   1.362  24.167  0.00  0.00    +0.195 C 
BRANCH  17  19
ATOM     19  O3* UNL     1       8.018   2.194  25.326  0.00  0.00    -0.386 OA
ATOM     20  H3* UNL     1       8.342   1.755  26.137  0.00  0.00    +0.210 HD
ENDBRANCH  17  19
BRANCH  18  21
ATOM     21  O2* UNL     1       4.703   1.902  23.916  0.00  0.00    -0.385 OA
ATOM     22  H2* UNL     1       4.051   1.195  24.064  0.00  0.00    +0.210 HD
ENDBRANCH  18  21
BRANCH  16  23
ATOM     23  C5* UNL     1       6.957   1.344  27.804  0.00  0.00    +0.190 C 
BRANCH  23  24
ATOM     24  O5* UNL     1       8.032   0.417  27.786  0.00  0.00    -0.392 OA
ATOM     25  H5* UNL     1       7.788  -0.291  28.412  0.00  0.00    +0.210 HD
ENDBRANCH  23  24
ENDBRANCH  16  23
ENDBRANCH   4  14
BRANCH   1  27
ATOM     26  C   UNL     1       9.785   1.354  22.308  0.00  0.00    +0.027 C 
ATOM     27  C   UNL     1      10.122   0.366  23.426  0.00  0.00    +0.067 C 
ATOM     28  C   UNL     1      11.188   0.932  24.362  0.00  0.00    +0.027 C 
ENDBRANCH   1  27
TORSDOF 6
ENDMDL
