MODEL 1
REMARK VINA RESULT:      -5.7      0.000      0.000
REMARK  Name = 
REMARK  3 active torsions:
REMARK  status: ('A' for Active; 'I' for Inactive)
REMARK    1  A    between atoms: C_3  and  N_8
REMARK    2  A    between atoms: C_5  and  C_6
REMARK    3  A    between atoms: C_6  and  O_7
REMARK                            x       y       z     vdW  Elec       q    Type
REMARK                         _______ _______ _______ _____ _____    ______ ____
ROOT
ATOM      1  N   UNL     1       9.523  -1.223  23.614  0.00  0.00    -0.273 N 
ATOM      2  C   UNL     1       9.946  -0.044  24.239  0.00  0.00    +0.352 A 
ATOM      3  O   UNL     1      10.224  -0.024  25.434  0.00  0.00    -0.244 OA
ATOM      4  N   UNL     1      10.054   1.101  23.478  0.00  0.00    -0.178 NA
ATOM      5  C   UNL     1       9.847   1.050  22.201  0.00  0.00    +0.123 A 
ATOM      6  N   UNL     1       9.967   2.214  21.494  0.00  0.00    -0.343 N 
ATOM      7  H   UNL     1      10.453   2.937  22.015  0.00  0.00    +0.144 HD
ATOM      8  H   UNL     1      10.257   2.145  20.527  0.00  0.00    +0.144 HD
ATOM      9  C   UNL     1       9.510  -0.190  21.485  0.00  0.00    +0.061 A 
ATOM     10  C   UNL     1       9.373  -1.275  22.244  0.00  0.00    +0.096 A 
ENDROOT
BRANCH   1  14
ATOM     11  C   UNL     1       7.138  -3.095  24.600  0.00  0.00    +0.038 C 
ATOM     12  C   UNL     1       7.889  -4.057  23.701  0.00  0.00    +0.146 C 
ATOM     13  O   UNL     1       9.254  -3.594  23.609  0.00  0.00    -0.351 OA
ATOM     14  C   UNL     1       9.420  -2.426  24.443  0.00  0.00    +0.224 C 
ATOM     15  C   UNL     1       8.235  -2.446  25.404  0.00  0.00    +0.057 C 
BRANCH  12  16
ATOM     16  C   UNL     1       7.277  -4.127  22.298  0.00  0.00    +0.187 C 
BRANCH  16  17
ATOM     17  O   UNL     1       7.267  -5.471  21.823  0.00  0.00    -0.392 OA
ATOM     18  H   UNL     1       6.998  -5.424  20.886  0.00  0.00    +0.210 HD
ENDBRANCH  16  17
ENDBRANCH  12  16
ENDBRANCH   1  14
TORSDOF 3
ENDMDL
MODEL 2
REMARK VINA RESULT:      -5.6      2.058      2.744
REMARK  Name = 
REMARK  3 active torsions:
REMARK  status: ('A' for Active; 'I' for Inactive)
REMARK    1  A    between atoms: C_3  and  N_8
REMARK    2  A    between atoms: C_5  and  C_6
REMARK    3  A    between atoms: C_6  and  O_7
REMARK                            x       y       z     vdW  Elec       q    Type
REMARK                         _______ _______ _______ _____ _____    ______ ____
ROOT
ATOM      1  N   UNL     1       9.978  -0.440  22.934  0.00  0.00    -0.273 N 
ATOM      2  C   UNL     1       9.726   0.410  21.850  0.00  0.00    +0.352 A 
ATOM      3  O   UNL     1       9.243  -0.019  20.806  0.00  0.00    -0.244 OA
ATOM      4  N   UNL     1      10.022   1.750  21.983  0.00  0.00    -0.178 NA
ATOM      5  C   UNL     1      10.445   2.210  23.117  0.00  0.00    +0.123 A 
ATOM      6  N   UNL     1      10.724   3.546  23.194  0.00  0.00    -0.343 N 
ATOM      7  H   UNL     1      10.327   4.070  22.421  0.00  0.00    +0.144 HD
ATOM      8  H   UNL     1      10.610   3.996  24.093  0.00  0.00    +0.144 HD
ATOM      9  C   UNL     1      10.618   1.372  24.314  0.00  0.00    +0.061 A 
ATOM     10  C   UNL     1      10.363   0.077  24.153  0.00  0.00    +0.096 A 
ENDROOT
BRANCH   1  14
ATOM     11  C   UNL     1       8.503  -2.642  24.705  0.00  0.00    +0.038 C 
ATOM     12  C   UNL     1       7.527  -2.518  23.550  0.00  0.00    +0.146 C 
ATOM     13  O   UNL     1       8.258  -2.009  22.413  0.00  0.00    -0.351 OA
ATOM     14  C   UNL     1       9.651  -1.858  22.769  0.00  0.00    +0.224 C 
ATOM     15  C   UNL     1       9.842  -2.712  24.018  0.00  0.00    +0.057 C 
BRANCH  12  16
ATOM     16  C   UNL     1       6.368  -1.572  23.879  0.00  0.00    +0.187 C 
BRANCH  16  17
ATOM     17  O   UNL     1       6.398  -0.429  23.028  0.00  0.00    -0.392 OA
ATOM     18  H   UNL     1       7.105  -0.595  22.377  0.00  0.00    +0.210 HD
ENDBRANCH  16  17
ENDBRANCH  12  16
ENDBRANCH   1  14
TORSDOF 3
ENDMDL
MODEL 3
REMARK VINA RESULT:      -5.5      2.044      2.505
REMARK  Name = 
REMARK  3 active torsions:
REMARK  status: ('A' for Active; 'I' for Inactive)
REMARK    1  A    between atoms: C_3  and  N_8
REMARK    2  A    between atoms: C_5  and  C_6
REMARK    3  A    between atoms: C_6  and  O_7
REMARK                            x       y       z     vdW  Elec       q    Type
REMARK                         _______ _______ _______ _____ _____    ______ ____
ROOT
ATOM      1  N   UNL     1       7.578  -1.157  22.786  0.00  0.00    -0.273 N 
ATOM      2  C   UNL     1       7.273   0.158  23.160  0.00  0.00    +0.352 A 
ATOM      3  O   UNL     1       6.330   0.402  23.908  0.00  0.00    -0.244 OA
ATOM      4  N   UNL     1       8.063   1.179  22.676  0.00  0.00    -0.178 NA
ATOM      5  C   UNL     1       9.108   0.905  21.963  0.00  0.00    +0.123 A 
ATOM      6  N   UNL     1       9.856   1.955  21.509  0.00  0.00    -0.343 N 
ATOM      7  H   UNL     1       9.647   2.821  21.995  0.00  0.00    +0.144 HD
ATOM      8  H   UNL     1      10.846   1.797  21.368  0.00  0.00    +0.144 HD
ATOM      9  C   UNL     1       9.529  -0.467  21.640  0.00  0.00    +0.061 A 
ATOM     10  C   UNL     1       8.732  -1.435  22.084  0.00  0.00    +0.096 A 
ENDROOT
BRANCH   1  14
ATOM     11  C   UNL     1       7.707  -4.342  22.837  0.00  0.00    +0.038 C 
ATOM     12  C   UNL     1       7.853  -4.037  24.315  0.00  0.00    +0.146 C 
ATOM     13  O   UNL     1       7.277  -2.733  24.552  0.00  0.00    -0.351 OA
ATOM     14  C   UNL     1       6.726  -2.223  23.317  0.00  0.00    +0.224 C 
ATOM     15  C   UNL     1       6.578  -3.441  22.410  0.00  0.00    +0.057 C 
BRANCH  12  16
ATOM     16  C   UNL     1       9.320  -4.036  24.758  0.00  0.00    +0.187 C 
BRANCH  16  17
ATOM     17  O   UNL     1       9.836  -5.364  24.782  0.00  0.00    -0.392 OA
ATOM     18  H   UNL     1       9.060  -5.955  24.788  0.00  0.00    +0.210 HD
ENDBRANCH  16  17
ENDBRANCH  12  16
ENDBRANCH   1  14
TORSDOF 3
ENDMDL
MODEL 4
REMARK VINA RESULT:      -5.4      1.660      1.872
REMARK  Name = 
REMARK  3 active torsions:
REMARK  status: ('A' for Active; 'I' for Inactive)
REMARK    1  A    between atoms: C_3  and  N_8
REMARK    2  A    between atoms: C_5  and  C_6
REMARK    3  A    between atoms: C_6  and  O_7
REMARK                            x       y       z     vdW  Elec       q    Type
REMARK                         _______ _______ _______ _____ _____    ______ ____
ROOT
ATOM      1  N   UNL     1       8.670  -1.486  23.083  0.00  0.00    -0.273 N 
ATOM      2  C   UNL     1       9.844  -1.113  22.417  0.00  0.00    +0.352 A 
ATOM      3  O   UNL     1      10.771  -1.906  22.272  0.00  0.00    -0.244 OA
ATOM      4  N   UNL     1       9.936   0.167  21.913  0.00  0.00    -0.178 NA
ATOM      5  C   UNL     1       8.920   0.966  21.990  0.00  0.00    +0.123 A 
ATOM      6  N   UNL     1       9.065   2.224  21.475  0.00  0.00    -0.343 N 
ATOM      7  H   UNL     1       9.872   2.304  20.865  0.00  0.00    +0.144 HD
ATOM      8  H   UNL     1       8.236   2.680  21.115  0.00  0.00    +0.144 HD
ATOM      9  C   UNL     1       7.630   0.579  22.581  0.00  0.00    +0.061 A 
ATOM     10  C   UNL     1       7.576  -0.647  23.095  0.00  0.00    +0.096 A 
ENDROOT
BRANCH   1  14
ATOM     11  C   UNL     1       6.540  -3.152  24.771  0.00  0.00    +0.038 C 
ATOM     12  C   UNL     1       6.489  -3.897  23.451  0.00  0.00    +0.146 C 
ATOM     13  O   UNL     1       7.739  -3.660  22.766  0.00  0.00    -0.351 OA
ATOM     14  C   UNL     1       8.597  -2.853  23.604  0.00  0.00    +0.224 C 
ATOM     15  C   UNL     1       8.017  -2.975  25.010  0.00  0.00    +0.057 C 
BRANCH  12  16
ATOM     16  C   UNL     1       5.327  -3.427  22.571  0.00  0.00    +0.187 C 
BRANCH  16  17
ATOM     17  O   UNL     1       5.645  -3.590  21.191  0.00  0.00    -0.392 OA
ATOM     18  H   UNL     1       6.468  -4.114  21.164  0.00  0.00    +0.210 HD
ENDBRANCH  16  17
ENDBRANCH  12  16
ENDBRANCH   1  14
TORSDOF 3
ENDMDL
MODEL 5
REMARK VINA RESULT:      -5.4      2.829      5.152
REMARK  Name = 
REMARK  3 active torsions:
REMARK  status: ('A' for Active; 'I' for Inactive)
REMARK    1  A    between atoms: C_3  and  N_8
REMARK    2  A    between atoms: C_5  and  C_6
REMARK    3  A    between atoms: C_6  and  O_7
REMARK                            x       y       z     vdW  Elec       q    Type
REMARK                         _______ _______ _______ _____ _____    ______ ____
ROOT
ATOM      1  N   UNL     1       7.934  -3.352  23.275  0.00  0.00    -0.273 N 
ATOM      2  C   UNL     1       8.104  -4.723  23.501  0.00  0.00    +0.352 A 
ATOM      3  O   UNL     1       8.897  -5.134  24.343  0.00  0.00    -0.244 OA
ATOM      4  N   UNL     1       7.350  -5.609  22.761  0.00  0.00    -0.178 NA
ATOM      5  C   UNL     1       6.451  -5.166  21.942  0.00  0.00    +0.123 A 
ATOM      6  N   UNL     1       5.731  -6.088  21.233  0.00  0.00    -0.343 N 
ATOM      7  H   UNL     1       5.812  -7.023  21.618  0.00  0.00    +0.144 HD
ATOM      8  H   UNL     1       4.788  -5.838  20.965  0.00  0.00    +0.144 HD
ATOM      9  C   UNL     1       6.162  -3.736  21.755  0.00  0.00    +0.061 A 
ATOM     10  C   UNL     1       6.927  -2.898  22.449  0.00  0.00    +0.096 A 
ENDROOT
BRANCH   1  14
ATOM     11  C   UNL     1      10.144  -1.143  22.640  0.00  0.00    +0.038 C 
ATOM     12  C   UNL     1       9.029  -0.270  23.181  0.00  0.00    +0.146 C 
ATOM     13  O   UNL     1       8.190  -1.098  24.016  0.00  0.00    -0.351 OA
ATOM     14  C   UNL     1       8.744  -2.431  24.076  0.00  0.00    +0.224 C 
ATOM     15  C   UNL     1      10.193  -2.286  23.621  0.00  0.00    +0.057 C 
BRANCH  12  16
ATOM     16  C   UNL     1       8.187   0.345  22.059  0.00  0.00    +0.187 C 
BRANCH  16  17
ATOM     17  O   UNL     1       9.024   0.954  21.080  0.00  0.00    -0.392 OA
ATOM     18  H   UNL     1       9.188   0.270  20.403  0.00  0.00    +0.210 HD
ENDBRANCH  16  17
ENDBRANCH  12  16
ENDBRANCH   1  14
TORSDOF 3
ENDMDL
MODEL 6
REMARK VINA RESULT:      -5.4      2.130      4.997
REMARK  Name = 
REMARK  3 active torsions:
REMARK  status: ('A' for Active; 'I' for Inactive)
REMARK    1  A    between atoms: C_3  and  N_8
REMARK    2  A    between atoms: C_5  and  C_6
REMARK    3  A    between atoms: C_6  and  O_7
REMARK                            x       y       z     vdW  Elec       q    Type
REMARK                         _______ _______ _______ _____ _____    ______ ____
ROOT
ATOM      1  N   UNL     1       8.705  -1.950  23.067  0.00  0.00    -0.273 N 
ATOM      2  C   UNL     1       8.968  -3.044  23.901  0.00  0.00    +0.352 A 
ATOM      3  O   UNL     1      10.117  -3.427  24.103  0.00  0.00    -0.244 OA
ATOM      4  N   UNL     1       7.904  -3.681  24.505  0.00  0.00    -0.178 NA
ATOM      5  C   UNL     1       6.706  -3.215  24.361  0.00  0.00    +0.123 A 
ATOM      6  N   UNL     1       5.688  -3.884  24.981  0.00  0.00    -0.343 N 
ATOM      7  H   UNL     1       6.021  -4.527  25.691  0.00  0.00    +0.144 HD
ATOM      8  H   UNL     1       4.880  -3.345  25.267  0.00  0.00    +0.144 HD
ATOM      9  C   UNL     1       6.397  -2.003  23.585  0.00  0.00    +0.061 A 
ATOM     10  C   UNL     1       7.433  -1.427  22.980  0.00  0.00    +0.096 A 
ENDROOT
BRANCH   1  14
ATOM     11  C   UNL     1       9.324   0.995  22.017  0.00  0.00    +0.038 C 
ATOM     12  C   UNL     1      10.299   0.905  23.176  0.00  0.00    +0.146 C 
ATOM     13  O   UNL     1      10.562  -0.494  23.417  0.00  0.00    -0.351 OA
ATOM     14  C   UNL     1       9.853  -1.290  22.441  0.00  0.00    +0.224 C 
ATOM     15  C   UNL     1       9.503  -0.324  21.313  0.00  0.00    +0.057 C 
BRANCH  12  16
ATOM     16  C   UNL     1       9.738   1.547  24.448  0.00  0.00    +0.187 C 
BRANCH  16  17
ATOM     17  O   UNL     1       9.810   0.637  25.542  0.00  0.00    -0.392 OA
ATOM     18  H   UNL     1       9.681   1.173  26.348  0.00  0.00    +0.210 HD
ENDBRANCH  16  17
ENDBRANCH  12  16
ENDBRANCH   1  14
TORSDOF 3
ENDMDL
MODEL 7
REMARK VINA RESULT:      -5.4      4.722      6.081
REMARK  Name = 
REMARK  3 active torsions:
REMARK  status: ('A' for Active; 'I' for Inactive)
REMARK    1  A    between atoms: C_3  and  N_8
REMARK    2  A    between atoms: C_5  and  C_6
REMARK    3  A    between atoms: C_6  and  O_7
REMARK                            x       y       z     vdW  Elec       q    Type
REMARK                         _______ _______ _______ _____ _____    ______ ____
ROOT
ATOM      1  N   UNL     1       6.963  -5.146  24.996  0.00  0.00    -0.273 N 
ATOM      2  C   UNL     1       7.893  -5.152  23.949  0.00  0.00    +0.352 A 
ATOM      3  O   UNL     1       9.069  -4.859  24.144  0.00  0.00    -0.244 OA
ATOM      4  N   UNL     1       7.461  -5.508  22.689  0.00  0.00    -0.178 NA
ATOM      5  C   UNL     1       6.241  -5.904  22.511  0.00  0.00    +0.123 A 
ATOM      6  N   UNL     1       5.865  -6.244  21.242  0.00  0.00    -0.343 N 
ATOM      7  H   UNL     1       6.660  -6.387  20.627  0.00  0.00    +0.144 HD
ATOM      8  H   UNL     1       5.141  -6.944  21.141  0.00  0.00    +0.144 HD
ATOM      9  C   UNL     1       5.262  -6.019  23.603  0.00  0.00    +0.061 A 
ATOM     10  C   UNL     1       5.688  -5.635  24.803  0.00  0.00    +0.096 A 
ENDROOT
BRANCH   1  14
ATOM     11  C   UNL     1       5.599  -4.202  27.719  0.00  0.00    +0.038 C 
ATOM     12  C   UNL     1       6.164  -5.543  28.144  0.00  0.00    +0.146 C 
ATOM     13  O   UNL     1       7.257  -5.860  27.254  0.00  0.00    -0.351 OA
ATOM     14  C   UNL     1       7.448  -4.769  26.326  0.00  0.00    +0.224 C 
ATOM     15  C   UNL     1       6.737  -3.575  26.956  0.00  0.00    +0.057 C 
BRANCH  12  16
ATOM     16  C   UNL     1       5.112  -6.655  28.080  0.00  0.00    +0.187 C 
BRANCH  16  17
ATOM     17  O   UNL     1       5.659  -7.889  28.536  0.00  0.00    -0.392 OA
ATOM     18  H   UNL     1       5.865  -8.406  27.734  0.00  0.00    +0.210 HD
ENDBRANCH  16  17
ENDBRANCH  12  16
ENDBRANCH   1  14
TORSDOF 3
ENDMDL
MODEL 8
REMARK VINA RESULT:      -5.2      2.626      3.483
REMARK  Name = 
REMARK  3 active torsions:
REMARK  status: ('A' for Active; 'I' for Inactive)
REMARK    1  A    between atoms: C_3  and  N_8
REMARK    2  A    between atoms: C_5  and  C_6
REMARK    3  A    between atoms: C_6  and  O_7
REMARK                            x       y       z     vdW  Elec       q    Type
REMARK                         _______ _______ _______ _____ _____    ______ ____
ROOT
ATOM      1  N   UNL     1       9.293   1.625  24.542  0.00  0.00    -0.273 N 
ATOM      2  C   UNL     1       8.540   2.715  24.997  0.00  0.00    +0.352 A 
ATOM      3  O   UNL     1       7.622   2.562  25.797  0.00  0.00    -0.244 OA
ATOM      4  N   UNL     1       8.859   3.973  24.532  0.00  0.00    -0.178 NA
ATOM      5  C   UNL     1       9.885   4.136  23.760  0.00  0.00    +0.123 A 
ATOM      6  N   UNL     1      10.156   5.405  23.327  0.00  0.00    -0.343 N 
ATOM      7  H   UNL     1       9.667   6.111  23.867  0.00  0.00    +0.144 HD
ATOM      8  H   UNL     1      11.122   5.636  23.135  0.00  0.00    +0.144 HD
ATOM      9  C   UNL     1      10.770   3.035  23.348  0.00  0.00    +0.061 A 
ATOM     10  C   UNL     1      10.422   1.825  23.776  0.00  0.00    +0.096 A 
ENDROOT
BRANCH   1  14
ATOM     11  C   UNL     1       8.067  -1.034  23.281  0.00  0.00    +0.038 C 
ATOM     12  C   UNL     1       9.456  -1.518  23.647  0.00  0.00    +0.146 C 
ATOM     13  O   UNL     1       9.955  -0.662  24.699  0.00  0.00    -0.351 OA
ATOM     14  C   UNL     1       8.937   0.300  25.055  0.00  0.00    +0.224 C 
ATOM     15  C   UNL     1       7.633  -0.273  24.507  0.00  0.00    +0.057 C 
BRANCH  12  16
ATOM     16  C   UNL     1      10.413  -1.471  22.452  0.00  0.00    +0.187 C 
BRANCH  16  17
ATOM     17  O   UNL     1       9.771  -0.893  21.319  0.00  0.00    -0.392 OA
ATOM     18  H   UNL     1      10.473  -0.444  20.811  0.00  0.00    +0.210 HD
ENDBRANCH  16  17
ENDBRANCH  12  16
ENDBRANCH   1  14
TORSDOF 3
ENDMDL
MODEL 9
REMARK VINA RESULT:      -5.2      2.500      4.866
REMARK  Name = 
REMARK  3 active torsions:
REMARK  status: ('A' for Active; 'I' for Inactive)
REMARK    1  A    between atoms: C_3  and  N_8
REMARK    2  A    between atoms: C_5  and  C_6
REMARK    3  A    between atoms: C_6  and  O_7
REMARK                            x       y       z     vdW  Elec       q    Type
REMARK                         _______ _______ _______ _____ _____    ______ ____
ROOT
ATOM      1  N   UNL     1       8.506  -1.265  24.325  0.00  0.00    -0.273 N 
ATOM      2  C   UNL     1       8.406  -2.457  25.052  0.00  0.00    +0.352 A 
ATOM      3  O   UNL     1       8.611  -2.482  26.262  0.00  0.00    -0.244 OA
ATOM      4  N   UNL     1       8.059  -3.609  24.379  0.00  0.00    -0.178 NA
ATOM      5  C   UNL     1       7.754  -3.557  23.122  0.00  0.00    +0.123 A 
ATOM      6  N   UNL     1       7.417  -4.729  22.503  0.00  0.00    -0.343 N 
ATOM      7  H   UNL     1       7.200  -5.468  23.163  0.00  0.00    +0.144 HD
ATOM      8  H   UNL     1       6.774  -4.677  21.724  0.00  0.00    +0.144 HD
ATOM      9  C   UNL     1       7.738  -2.307  22.346  0.00  0.00    +0.061 A 
ATOM     10  C   UNL     1       8.114  -1.214  23.005  0.00  0.00    +0.096 A 
ENDROOT
BRANCH   1  14
ATOM     11  C   UNL     1      10.593   1.107  23.892  0.00  0.00    +0.038 C 
ATOM     12  C   UNL     1       9.285   1.862  23.756  0.00  0.00    +0.146 C 
ATOM     13  O   UNL     1       8.269   1.106  24.451  0.00  0.00    -0.351 OA
ATOM     14  C   UNL     1       8.873  -0.054  25.065  0.00  0.00    +0.224 C 
ATOM     15  C   UNL     1      10.368   0.246  25.108  0.00  0.00    +0.057 C 
BRANCH  12  16
ATOM     16  C   UNL     1       8.877   2.041  22.290  0.00  0.00    +0.187 C 
BRANCH  16  17
ATOM     17  O   UNL     1      10.029   2.165  21.461  0.00  0.00    -0.392 OA
ATOM     18  H   UNL     1      10.065   3.100  21.186  0.00  0.00    +0.210 HD
ENDBRANCH  16  17
ENDBRANCH  12  16
ENDBRANCH   1  14
TORSDOF 3
ENDMDL
