MODEL 1
REMARK VINA RESULT:      -7.2      0.000      0.000
REMARK  Name = 
REMARK  11 active torsions:
REMARK  status: ('A' for Active; 'I' for Inactive)
REMARK    1  A    between atoms: C_1  and  C_2
REMARK    2  A    between atoms: C_5  and  C_36
REMARK    3  A    between atoms: N_6  and  C_7
REMARK    4  A    between atoms: N_15  and  C_16
REMARK    5  A    between atoms: C_16  and  C_17
REMARK    6  A    between atoms: C_17  and  C_18
REMARK    7  A    between atoms: C_18  and  C_19
REMARK    8  A    between atoms: C_18  and  N_25
REMARK    9  A    between atoms: C_26  and  C_28
REMARK   10  A    between atoms: C_36  and  C_37
REMARK   11  A    between atoms: C_36  and  C_38
REMARK                            x       y       z     vdW  Elec       q    Type
REMARK                         _______ _______ _______ _____ _____    ______ ____
ROOT
ATOM      1  C   UNL     1       8.685  -1.921  25.473  0.00  0.00    +0.042 C 
ENDROOT
BRANCH   1   2
ATOM      2  C   UNL     1       8.720  -1.309  24.059  0.00  0.00    +0.087 C 
BRANCH   2   6
ATOM      3  C   UNL     1       7.281   2.506  23.970  0.00  0.00    +0.093 C 
ATOM      4  C   UNL     1       8.782   2.545  24.325  0.00  0.00    +0.044 C 
ATOM      5  C   UNL     1       9.419   1.113  24.208  0.00  0.00    +0.059 C 
ATOM      6  N   UNL     1       8.341   0.117  23.971  0.00  0.00    -0.296 NA
ATOM      7  C   UNL     1       7.924   0.469  22.589  0.00  0.00    +0.059 C 
ATOM      8  C   UNL     1       9.246   0.737  21.846  0.00  0.00    +0.020 C 
ATOM      9  C   UNL     1      10.270   1.004  22.946  0.00  0.00    +0.020 C 
ATOM     10  C   UNL     1       7.031   1.737  22.661  0.00  0.00    +0.044 C 
BRANCH   3  13
ATOM     11  C   UNL     1       4.715   2.657  25.610  0.00  0.00    +0.088 C 
ATOM     12  C   UNL     1       5.337   3.790  24.881  0.00  0.00    +0.131 A 
ATOM     13  N   UNL     1       6.514   3.731  24.144  0.00  0.00    -0.312 N 
ATOM     14  C   UNL     1       6.664   5.000  23.617  0.00  0.00    +0.136 A 
ATOM     15  N   UNL     1       5.664   5.753  24.042  0.00  0.00    -0.134 NA
ATOM     16  N   UNL     1       4.842   5.004  24.820  0.00  0.00    -0.135 NA
BRANCH  14  17
ATOM     17  C   UNL     1       7.725   5.532  22.705  0.00  0.00    +0.051 C 
ATOM     18  C   UNL     1       8.836   6.202  23.528  0.00  0.00    +0.015 C 
ATOM     19  C   UNL     1       7.124   6.586  21.758  0.00  0.00    +0.015 C 
ENDBRANCH  14  17
ENDBRANCH   3  13
ENDBRANCH   2   6
ENDBRANCH   1   2
BRANCH   1  20
ATOM     20  C   UNL     1       7.230  -2.153  25.973  0.00  0.00    +0.104 C 
BRANCH  20  21
ATOM     21  C   UNL     1       6.734  -1.038  26.879  0.00  0.00    -0.027 A 
ATOM     22  C   UNL     1       5.396  -1.044  27.309  0.00  0.00    +0.005 A 
ATOM     23  C   UNL     1       4.940  -0.104  28.233  0.00  0.00    +0.000 A 
ATOM     24  C   UNL     1       5.809   0.864  28.728  0.00  0.00    +0.000 A 
ATOM     25  C   UNL     1       7.127   0.914  28.272  0.00  0.00    +0.000 A 
ATOM     26  C   UNL     1       7.586  -0.027  27.350  0.00  0.00    +0.005 A 
ENDBRANCH  20  21
BRANCH  20  27
ATOM     27  N   UNL     1       6.317  -2.343  24.852  0.00  0.00    -0.308 N 
ATOM     28  H   UNL     1       6.199  -1.591  24.192  0.00  0.00    +0.149 HD
ATOM     29  C   UNL     1       5.656  -3.535  24.672  0.00  0.00    +0.217 C 
ATOM     30  O   UNL     1       5.701  -4.441  25.502  0.00  0.00    -0.275 OA
BRANCH  29  31
ATOM     31  C   UNL     1       4.886  -3.664  23.353  0.00  0.00    +0.075 C 
ATOM     32  C   UNL     1       4.518  -5.134  23.050  0.00  0.00    +0.018 C 
ATOM     33  C   UNL     1       5.731  -6.000  22.691  0.00  0.00    +0.076 C 
ATOM     34  C   UNL     1       6.600  -5.366  21.621  0.00  0.00    +0.249 C 
ATOM     35  F   UNL     1       5.955  -5.444  20.428  0.00  0.00    -0.206 F 
ATOM     36  F   UNL     1       7.748  -6.075  21.485  0.00  0.00    -0.206 F 
ATOM     37  C   UNL     1       6.940  -3.908  21.891  0.00  0.00    +0.076 C 
ATOM     38  C   UNL     1       5.684  -3.086  22.175  0.00  0.00    +0.018 C 
ENDBRANCH  29  31
ENDBRANCH  20  27
ENDBRANCH   1  20
TORSDOF 8
ENDMDL
MODEL 2
REMARK VINA RESULT:      -7.2      3.061      7.627
REMARK  Name = 
REMARK  11 active torsions:
REMARK  status: ('A' for Active; 'I' for Inactive)
REMARK    1  A    between atoms: C_1  and  C_2
REMARK    2  A    between atoms: C_5  and  C_36
REMARK    3  A    between atoms: N_6  and  C_7
REMARK    4  A    between atoms: N_15  and  C_16
REMARK    5  A    between atoms: C_16  and  C_17
REMARK    6  A    between atoms: C_17  and  C_18
REMARK    7  A    between atoms: C_18  and  C_19
REMARK    8  A    between atoms: C_18  and  N_25
REMARK    9  A    between atoms: C_26  and  C_28
REMARK   10  A    between atoms: C_36  and  C_37
REMARK   11  A    between atoms: C_36  and  C_38
REMARK                            x       y       z     vdW  Elec       q    Type
REMARK                         _______ _______ _______ _____ _____    ______ ____
ROOT
ATOM      1  C   UNL     1       5.407   2.725  24.901  0.00  0.00    +0.042 C 
ENDROOT
BRANCH   1   2
ATOM      2  C   UNL     1       4.701   1.477  25.469  0.00  0.00    +0.087 C 
BRANCH   2   6
ATOM      3  C   UNL     1       6.490  -2.103  24.689  0.00  0.00    +0.093 C 
ATOM      4  C   UNL     1       7.526  -1.154  25.326  0.00  0.00    +0.044 C 
ATOM      5  C   UNL     1       6.843   0.180  25.797  0.00  0.00    +0.059 C 
ATOM      6  N   UNL     1       5.435   0.204  25.318  0.00  0.00    -0.296 NA
ATOM      7  C   UNL     1       4.828  -0.860  26.158  0.00  0.00    +0.059 C 
ATOM      8  C   UNL     1       5.432  -0.635  27.557  0.00  0.00    +0.020 C 
ATOM      9  C   UNL     1       6.688   0.198  27.316  0.00  0.00    +0.020 C 
ATOM     10  C   UNL     1       5.232  -2.236  25.566  0.00  0.00    +0.044 C 
BRANCH   3  13
ATOM     11  C   UNL     1       5.620  -3.096  21.940  0.00  0.00    +0.088 C 
ATOM     12  C   UNL     1       6.571  -3.791  22.844  0.00  0.00    +0.131 A 
ATOM     13  N   UNL     1       6.982  -3.337  24.092  0.00  0.00    -0.312 N 
ATOM     14  C   UNL     1       7.817  -4.329  24.570  0.00  0.00    +0.136 A 
ATOM     15  N   UNL     1       7.911  -5.278  23.655  0.00  0.00    -0.134 NA
ATOM     16  N   UNL     1       7.137  -4.947  22.590  0.00  0.00    -0.135 NA
BRANCH  14  17
ATOM     17  C   UNL     1       8.530  -4.420  25.884  0.00  0.00    +0.051 C 
ATOM     18  C   UNL     1       9.867  -5.155  25.703  0.00  0.00    +0.015 C 
ATOM     19  C   UNL     1       7.677  -5.211  26.891  0.00  0.00    +0.015 C 
ENDBRANCH  14  17
ENDBRANCH   3  13
ENDBRANCH   2   6
ENDBRANCH   1   2
BRANCH   1  20
ATOM     20  C   UNL     1       5.430   2.726  23.346  0.00  0.00    +0.104 C 
BRANCH  20  21
ATOM     21  C   UNL     1       4.512   3.777  22.744  0.00  0.00    -0.027 A 
ATOM     22  C   UNL     1       3.392   3.368  21.999  0.00  0.00    +0.005 A 
ATOM     23  C   UNL     1       2.466   4.302  21.535  0.00  0.00    +0.000 A 
ATOM     24  C   UNL     1       2.653   5.657  21.794  0.00  0.00    +0.000 A 
ATOM     25  C   UNL     1       3.786   6.083  22.489  0.00  0.00    +0.000 A 
ATOM     26  C   UNL     1       4.713   5.150  22.958  0.00  0.00    +0.005 A 
ENDBRANCH  20  21
BRANCH  20  27
ATOM     27  N   UNL     1       6.789   2.888  22.844  0.00  0.00    -0.308 N 
ATOM     28  H   UNL     1       7.197   3.810  22.846  0.00  0.00    +0.149 HD
ATOM     29  C   UNL     1       7.518   1.807  22.410  0.00  0.00    +0.217 C 
ATOM     30  O   UNL     1       7.026   0.685  22.306  0.00  0.00    -0.275 OA
BRANCH  29  31
ATOM     31  C   UNL     1       8.991   2.093  22.097  0.00  0.00    +0.075 C 
ATOM     32  C   UNL     1       9.796   0.788  21.904  0.00  0.00    +0.018 C 
ATOM     33  C   UNL     1       9.989  -0.001  23.204  0.00  0.00    +0.076 C 
ATOM     34  C   UNL     1      10.511   0.865  24.336  0.00  0.00    +0.249 C 
ATOM     35  F   UNL     1      11.816   1.158  24.099  0.00  0.00    -0.206 F 
ATOM     36  F   UNL     1      10.478   0.167  25.499  0.00  0.00    -0.206 F 
ATOM     37  C   UNL     1       9.748   2.169  24.513  0.00  0.00    +0.076 C 
ATOM     38  C   UNL     1       9.648   2.939  23.196  0.00  0.00    +0.018 C 
ENDBRANCH  29  31
ENDBRANCH  20  27
ENDBRANCH   1  20
TORSDOF 8
ENDMDL
MODEL 3
REMARK VINA RESULT:      -7.1      2.684      3.783
REMARK  Name = 
REMARK  11 active torsions:
REMARK  status: ('A' for Active; 'I' for Inactive)
REMARK    1  A    between atoms: C_1  and  C_2
REMARK    2  A    between atoms: C_5  and  C_36
REMARK    3  A    between atoms: N_6  and  C_7
REMARK    4  A    between atoms: N_15  and  C_16
REMARK    5  A    between atoms: C_16  and  C_17
REMARK    6  A    between atoms: C_17  and  C_18
REMARK    7  A    between atoms: C_18  and  C_19
REMARK    8  A    between atoms: C_18  and  N_25
REMARK    9  A    between atoms: C_26  and  C_28
REMARK   10  A    between atoms: C_36  and  C_37
REMARK   11  A    between atoms: C_36  and  C_38
REMARK                            x       y       z     vdW  Elec       q    Type
REMARK                         _______ _______ _______ _____ _____    ______ ____
ROOT
ATOM      1  C   UNL     1       6.391  -1.889  23.060  0.00  0.00    +0.042 C 
ENDROOT
BRANCH   1   2
ATOM      2  C   UNL     1       7.845  -1.419  22.857  0.00  0.00    +0.087 C 
BRANCH   2   6
ATOM      3  C   UNL     1       8.313   2.330  24.391  0.00  0.00    +0.093 C 
ATOM      4  C   UNL     1       9.705   1.724  24.116  0.00  0.00    +0.044 C 
ATOM      5  C   UNL     1       9.575   0.347  23.371  0.00  0.00    +0.059 C 
ATOM      6  N   UNL     1       8.143  -0.048  23.319  0.00  0.00    -0.296 NA
ATOM      7  C   UNL     1       7.602   0.960  22.370  0.00  0.00    +0.059 C 
ATOM      8  C   UNL     1       8.671   1.060  21.267  0.00  0.00    +0.020 C 
ATOM      9  C   UNL     1       9.943   0.496  21.897  0.00  0.00    +0.020 C 
ATOM     10  C   UNL     1       7.428   2.300  23.133  0.00  0.00    +0.044 C 
BRANCH   3  13
ATOM     11  C   UNL     1       6.841   2.529  27.054  0.00  0.00    +0.088 C 
ATOM     12  C   UNL     1       7.568   3.639  26.388  0.00  0.00    +0.131 A 
ATOM     13  N   UNL     1       8.253   3.551  25.182  0.00  0.00    -0.312 N 
ATOM     14  C   UNL     1       8.718   4.831  24.947  0.00  0.00    +0.136 A 
ATOM     15  N   UNL     1       8.357   5.603  25.957  0.00  0.00    -0.134 NA
ATOM     16  N   UNL     1       7.643   4.866  26.846  0.00  0.00    -0.135 NA
BRANCH  14  17
ATOM     17  C   UNL     1       9.491   5.363  23.779  0.00  0.00    +0.051 C 
ATOM     18  C   UNL     1      10.744   6.102  24.275  0.00  0.00    +0.015 C 
ATOM     19  C   UNL     1       8.626   6.358  22.985  0.00  0.00    +0.015 C 
ENDBRANCH  14  17
ENDBRANCH   3  13
ENDBRANCH   2   6
ENDBRANCH   1   2
BRANCH   1  20
ATOM     20  C   UNL     1       6.302  -3.421  23.317  0.00  0.00    +0.104 C 
BRANCH  20  21
ATOM     21  C   UNL     1       7.279  -3.897  24.380  0.00  0.00    -0.027 A 
ATOM     22  C   UNL     1       7.066  -3.535  25.722  0.00  0.00    +0.005 A 
ATOM     23  C   UNL     1       7.874  -4.052  26.735  0.00  0.00    +0.000 A 
ATOM     24  C   UNL     1       8.913  -4.923  26.422  0.00  0.00    +0.000 A 
ATOM     25  C   UNL     1       9.168  -5.252  25.089  0.00  0.00    +0.000 A 
ATOM     26  C   UNL     1       8.359  -4.739  24.074  0.00  0.00    +0.005 A 
ENDBRANCH  20  21
BRANCH  20  27
ATOM     27  N   UNL     1       4.942  -3.815  23.663  0.00  0.00    -0.308 N 
ATOM     28  H   UNL     1       4.440  -3.269  24.345  0.00  0.00    +0.149 HD
ATOM     29  C   UNL     1       4.335  -4.884  23.046  0.00  0.00    +0.217 C 
ATOM     30  O   UNL     1       4.943  -5.627  22.279  0.00  0.00    -0.275 OA
BRANCH  29  31
ATOM     31  C   UNL     1       2.846  -5.062  23.360  0.00  0.00    +0.075 C 
ATOM     32  C   UNL     1       2.456  -4.370  24.685  0.00  0.00    +0.018 C 
ATOM     33  C   UNL     1       3.035  -5.063  25.924  0.00  0.00    +0.076 C 
ATOM     34  C   UNL     1       2.772  -6.558  25.927  0.00  0.00    +0.249 C 
ATOM     35  F   UNL     1       1.456  -6.771  26.191  0.00  0.00    -0.206 F 
ATOM     36  F   UNL     1       3.465  -7.142  26.936  0.00  0.00    -0.206 F 
ATOM     37  C   UNL     1       3.118  -7.245  24.616  0.00  0.00    +0.076 C 
ATOM     38  C   UNL     1       2.458  -6.547  23.428  0.00  0.00    +0.018 C 
ENDBRANCH  29  31
ENDBRANCH  20  27
ENDBRANCH   1  20
TORSDOF 8
ENDMDL
MODEL 4
REMARK VINA RESULT:      -7.0      1.271      2.310
REMARK  Name = 
REMARK  11 active torsions:
REMARK  status: ('A' for Active; 'I' for Inactive)
REMARK    1  A    between atoms: C_1  and  C_2
REMARK    2  A    between atoms: C_5  and  C_36
REMARK    3  A    between atoms: N_6  and  C_7
REMARK    4  A    between atoms: N_15  and  C_16
REMARK    5  A    between atoms: C_16  and  C_17
REMARK    6  A    between atoms: C_17  and  C_18
REMARK    7  A    between atoms: C_18  and  C_19
REMARK    8  A    between atoms: C_18  and  N_25
REMARK    9  A    between atoms: C_26  and  C_28
REMARK   10  A    between atoms: C_36  and  C_37
REMARK   11  A    between atoms: C_36  and  C_38
REMARK                            x       y       z     vdW  Elec       q    Type
REMARK                         _______ _______ _______ _____ _____    ______ ____
ROOT
ATOM      1  C   UNL     1       8.721  -1.315  24.898  0.00  0.00    +0.042 C 
ENDROOT
BRANCH   1   2
ATOM      2  C   UNL     1       8.714  -0.723  23.475  0.00  0.00    +0.087 C 
BRANCH   2   6
ATOM      3  C   UNL     1       7.126   3.014  23.094  0.00  0.00    +0.093 C 
ATOM      4  C   UNL     1       8.197   3.036  24.205  0.00  0.00    +0.044 C 
ATOM      5  C   UNL     1       8.954   1.661  24.275  0.00  0.00    +0.059 C 
ATOM      6  N   UNL     1       8.283   0.687  23.373  0.00  0.00    -0.296 NA
ATOM      7  C   UNL     1       8.623   1.249  22.040  0.00  0.00    +0.059 C 
ATOM      8  C   UNL     1      10.098   1.671  22.167  0.00  0.00    +0.020 C 
ATOM      9  C   UNL     1      10.350   1.784  23.668  0.00  0.00    +0.020 C 
ATOM     10  C   UNL     1       7.693   2.463  21.775  0.00  0.00    +0.044 C 
BRANCH   3  13
ATOM     11  C   UNL     1       8.159   5.870  22.824  0.00  0.00    +0.088 C 
ATOM     12  C   UNL     1       6.729   5.473  22.868  0.00  0.00    +0.131 A 
ATOM     13  N   UNL     1       6.252   4.173  22.976  0.00  0.00    -0.312 N 
ATOM     14  C   UNL     1       4.877   4.306  23.028  0.00  0.00    +0.136 A 
ATOM     15  N   UNL     1       4.573   5.588  22.926  0.00  0.00    -0.134 NA
ATOM     16  N   UNL     1       5.719   6.310  22.830  0.00  0.00    -0.135 NA
BRANCH  14  17
ATOM     17  C   UNL     1       3.825   3.251  23.185  0.00  0.00    +0.051 C 
ATOM     18  C   UNL     1       2.923   3.224  21.942  0.00  0.00    +0.015 C 
ATOM     19  C   UNL     1       2.948   3.562  24.411  0.00  0.00    +0.015 C 
ENDBRANCH  14  17
ENDBRANCH   3  13
ENDBRANCH   2   6
ENDBRANCH   1   2
BRANCH   1  20
ATOM     20  C   UNL     1       7.282  -1.555  25.438  0.00  0.00    +0.104 C 
BRANCH  20  21
ATOM     21  C   UNL     1       6.720  -0.350  26.172  0.00  0.00    -0.027 A 
ATOM     22  C   UNL     1       7.356   0.103  27.341  0.00  0.00    +0.005 A 
ATOM     23  C   UNL     1       6.938   1.274  27.972  0.00  0.00    +0.000 A 
ATOM     24  C   UNL     1       5.869   2.001  27.454  0.00  0.00    +0.000 A 
ATOM     25  C   UNL     1       5.196   1.538  26.323  0.00  0.00    +0.000 A 
ATOM     26  C   UNL     1       5.615   0.367  25.688  0.00  0.00    +0.005 A 
ENDBRANCH  20  21
BRANCH  20  27
ATOM     27  N   UNL     1       6.383  -1.963  24.364  0.00  0.00    -0.308 N 
ATOM     28  H   UNL     1       6.334  -1.393  23.534  0.00  0.00    +0.149 HD
ATOM     29  C   UNL     1       5.645  -3.118  24.459  0.00  0.00    +0.217 C 
ATOM     30  O   UNL     1       5.608  -3.789  25.489  0.00  0.00    -0.275 OA
BRANCH  29  31
ATOM     31  C   UNL     1       4.898  -3.525  23.184  0.00  0.00    +0.075 C 
ATOM     32  C   UNL     1       4.439  -4.999  23.238  0.00  0.00    +0.018 C 
ATOM     33  C   UNL     1       5.599  -5.998  23.151  0.00  0.00    +0.076 C 
ATOM     34  C   UNL     1       6.532  -5.702  21.992  0.00  0.00    +0.249 C 
ATOM     35  F   UNL     1       5.910  -6.036  20.831  0.00  0.00    -0.206 F 
ATOM     36  F   UNL     1       7.633  -6.490  22.078  0.00  0.00    -0.206 F 
ATOM     37  C   UNL     1       6.963  -4.246  21.907  0.00  0.00    +0.076 C 
ATOM     38  C   UNL     1       5.758  -3.306  21.931  0.00  0.00    +0.018 C 
ENDBRANCH  29  31
ENDBRANCH  20  27
ENDBRANCH   1  20
TORSDOF 8
ENDMDL
MODEL 5
REMARK VINA RESULT:      -6.9      1.616      2.451
REMARK  Name = 
REMARK  11 active torsions:
REMARK  status: ('A' for Active; 'I' for Inactive)
REMARK    1  A    between atoms: C_1  and  C_2
REMARK    2  A    between atoms: C_5  and  C_36
REMARK    3  A    between atoms: N_6  and  C_7
REMARK    4  A    between atoms: N_15  and  C_16
REMARK    5  A    between atoms: C_16  and  C_17
REMARK    6  A    between atoms: C_17  and  C_18
REMARK    7  A    between atoms: C_18  and  C_19
REMARK    8  A    between atoms: C_18  and  N_25
REMARK    9  A    between atoms: C_26  and  C_28
REMARK   10  A    between atoms: C_36  and  C_37
REMARK   11  A    between atoms: C_36  and  C_38
REMARK                            x       y       z     vdW  Elec       q    Type
REMARK                         _______ _______ _______ _____ _____    ______ ____
ROOT
ATOM      1  C   UNL     1       8.268  -2.212  26.133  0.00  0.00    +0.042 C 
ENDROOT
BRANCH   1   2
ATOM      2  C   UNL     1       8.788  -1.926  24.710  0.00  0.00    +0.087 C 
BRANCH   2   6
ATOM      3  C   UNL     1       9.330   2.083  24.200  0.00  0.00    +0.093 C 
ATOM      4  C   UNL     1      10.679   1.364  23.984  0.00  0.00    +0.044 C 
ATOM      5  C   UNL     1      10.487  -0.196  24.006  0.00  0.00    +0.059 C 
ATOM      6  N   UNL     1       9.092  -0.511  24.414  0.00  0.00    -0.296 NA
ATOM      7  C   UNL     1       8.333  -0.044  23.226  0.00  0.00    +0.059 C 
ATOM      8  C   UNL     1       9.174  -0.514  22.025  0.00  0.00    +0.020 C 
ATOM      9  C   UNL     1      10.567  -0.767  22.592  0.00  0.00    +0.020 C 
ATOM     10  C   UNL     1       8.231   1.503  23.293  0.00  0.00    +0.044 C 
BRANCH   3  13
ATOM     11  C   UNL     1      11.511   3.837  22.989  0.00  0.00    +0.088 C 
ATOM     12  C   UNL     1      10.357   4.326  23.784  0.00  0.00    +0.131 A 
ATOM     13  N   UNL     1       9.352   3.533  24.326  0.00  0.00    -0.312 N 
ATOM     14  C   UNL     1       8.539   4.416  25.012  0.00  0.00    +0.136 A 
ATOM     15  N   UNL     1       9.017   5.638  24.855  0.00  0.00    -0.134 NA
ATOM     16  N   UNL     1      10.143   5.582  24.099  0.00  0.00    -0.135 NA
BRANCH  14  17
ATOM     17  C   UNL     1       7.316   4.142  25.831  0.00  0.00    +0.051 C 
ATOM     18  C   UNL     1       6.063   4.233  24.948  0.00  0.00    +0.015 C 
ATOM     19  C   UNL     1       7.192   5.186  26.955  0.00  0.00    +0.015 C 
ENDBRANCH  14  17
ENDBRANCH   3  13
ENDBRANCH   2   6
ENDBRANCH   1   2
BRANCH   1  20
ATOM     20  C   UNL     1       6.733  -1.991  26.249  0.00  0.00    +0.104 C 
BRANCH  20  21
ATOM     21  C   UNL     1       6.375  -0.620  26.799  0.00  0.00    -0.027 A 
ATOM     22  C   UNL     1       5.089  -0.101  26.571  0.00  0.00    +0.005 A 
ATOM     23  C   UNL     1       4.690   1.098  27.162  0.00  0.00    +0.000 A 
ATOM     24  C   UNL     1       5.574   1.802  27.974  0.00  0.00    +0.000 A 
ATOM     25  C   UNL     1       6.871   1.325  28.169  0.00  0.00    +0.000 A 
ATOM     26  C   UNL     1       7.271   0.124  27.582  0.00  0.00    +0.005 A 
ENDBRANCH  20  21
BRANCH  20  27
ATOM     27  N   UNL     1       6.075  -2.212  24.966  0.00  0.00    -0.308 N 
ATOM     28  H   UNL     1       6.128  -1.489  24.265  0.00  0.00    +0.149 HD
ATOM     29  C   UNL     1       5.428  -3.394  24.696  0.00  0.00    +0.217 C 
ATOM     30  O   UNL     1       5.263  -4.260  25.553  0.00  0.00    -0.275 OA
BRANCH  29  31
ATOM     31  C   UNL     1       4.956  -3.567  23.248  0.00  0.00    +0.075 C 
ATOM     32  C   UNL     1       4.507  -5.018  22.965  0.00  0.00    +0.018 C 
ATOM     33  C   UNL     1       5.668  -6.018  22.946  0.00  0.00    +0.076 C 
ATOM     34  C   UNL     1       6.813  -5.561  22.062  0.00  0.00    +0.249 C 
ATOM     35  F   UNL     1       6.439  -5.684  20.761  0.00  0.00    -0.206 F 
ATOM     36  F   UNL     1       7.880  -6.380  22.234  0.00  0.00    -0.206 F 
ATOM     37  C   UNL     1       7.241  -4.122  22.307  0.00  0.00    +0.076 C 
ATOM     38  C   UNL     1       6.049  -3.168  22.246  0.00  0.00    +0.018 C 
ENDBRANCH  29  31
ENDBRANCH  20  27
ENDBRANCH   1  20
TORSDOF 8
ENDMDL
MODEL 6
REMARK VINA RESULT:      -6.9      3.020      7.502
REMARK  Name = 
REMARK  11 active torsions:
REMARK  status: ('A' for Active; 'I' for Inactive)
REMARK    1  A    between atoms: C_1  and  C_2
REMARK    2  A    between atoms: C_5  and  C_36
REMARK    3  A    between atoms: N_6  and  C_7
REMARK    4  A    between atoms: N_15  and  C_16
REMARK    5  A    between atoms: C_16  and  C_17
REMARK    6  A    between atoms: C_17  and  C_18
REMARK    7  A    between atoms: C_18  and  C_19
REMARK    8  A    between atoms: C_18  and  N_25
REMARK    9  A    between atoms: C_26  and  C_28
REMARK   10  A    between atoms: C_36  and  C_37
REMARK   11  A    between atoms: C_36  and  C_38
REMARK                            x       y       z     vdW  Elec       q    Type
REMARK                         _______ _______ _______ _____ _____    ______ ____
ROOT
ATOM      1  C   UNL     1       8.240  -0.403  27.096  0.00  0.00    +0.042 C 
ENDROOT
BRANCH   1   2
ATOM      2  C   UNL     1       8.681  -1.133  25.811  0.00  0.00    +0.087 C 
BRANCH   2   6
ATOM      3  C   UNL     1       6.345  -4.381  25.018  0.00  0.00    +0.093 C 
ATOM      4  C   UNL     1       5.754  -3.150  24.298  0.00  0.00    +0.044 C 
ATOM      5  C   UNL     1       6.710  -1.911  24.437  0.00  0.00    +0.059 C 
ATOM      6  N   UNL     1       7.810  -2.247  25.380  0.00  0.00    -0.296 NA
ATOM      7  C   UNL     1       8.576  -3.240  24.584  0.00  0.00    +0.059 C 
ATOM      8  C   UNL     1       8.597  -2.656  23.160  0.00  0.00    +0.020 C 
ATOM      9  C   UNL     1       7.449  -1.652  23.127  0.00  0.00    +0.020 C 
ATOM     10  C   UNL     1       7.823  -4.595  24.645  0.00  0.00    +0.044 C 
BRANCH   3  13
ATOM     11  C   UNL     1       5.520  -5.986  22.559  0.00  0.00    +0.088 C 
ATOM     12  C   UNL     1       5.141  -6.300  23.960  0.00  0.00    +0.131 A 
ATOM     13  N   UNL     1       5.525  -5.582  25.085  0.00  0.00    -0.312 N 
ATOM     14  C   UNL     1       4.896  -6.216  26.140  0.00  0.00    +0.136 A 
ATOM     15  N   UNL     1       4.219  -7.248  25.668  0.00  0.00    -0.134 NA
ATOM     16  N   UNL     1       4.368  -7.298  24.319  0.00  0.00    -0.135 NA
BRANCH  14  17
ATOM     17  C   UNL     1       4.901  -5.870  27.597  0.00  0.00    +0.051 C 
ATOM     18  C   UNL     1       4.264  -4.489  27.810  0.00  0.00    +0.015 C 
ATOM     19  C   UNL     1       6.348  -5.821  28.120  0.00  0.00    +0.015 C 
ENDBRANCH  14  17
ENDBRANCH   3  13
ENDBRANCH   2   6
ENDBRANCH   1   2
BRANCH   1  20
ATOM     20  C   UNL     1       7.260   0.767  26.795  0.00  0.00    +0.104 C 
BRANCH  20  21
ATOM     21  C   UNL     1       6.678   1.386  28.055  0.00  0.00    -0.027 A 
ATOM     22  C   UNL     1       5.481   2.118  27.972  0.00  0.00    +0.005 A 
ATOM     23  C   UNL     1       4.858   2.597  29.124  0.00  0.00    +0.000 A 
ATOM     24  C   UNL     1       5.429   2.366  30.373  0.00  0.00    +0.000 A 
ATOM     25  C   UNL     1       6.643   1.685  30.467  0.00  0.00    +0.000 A 
ATOM     26  C   UNL     1       7.266   1.201  29.315  0.00  0.00    +0.005 A 
ENDBRANCH  20  21
BRANCH  20  27
ATOM     27  N   UNL     1       7.902   1.788  25.975  0.00  0.00    -0.308 N 
ATOM     28  H   UNL     1       8.730   2.241  26.330  0.00  0.00    +0.149 HD
ATOM     29  C   UNL     1       7.417   2.105  24.729  0.00  0.00    +0.217 C 
ATOM     30  O   UNL     1       6.361   1.643  24.301  0.00  0.00    -0.275 OA
BRANCH  29  31
ATOM     31  C   UNL     1       8.298   3.047  23.902  0.00  0.00    +0.075 C 
ATOM     32  C   UNL     1       7.969   2.961  22.396  0.00  0.00    +0.018 C 
ATOM     33  C   UNL     1       8.395   1.633  21.758  0.00  0.00    +0.076 C 
ATOM     34  C   UNL     1       9.833   1.271  22.080  0.00  0.00    +0.249 C 
ATOM     35  F   UNL     1      10.659   2.089  21.378  0.00  0.00    -0.206 F 
ATOM     36  F   UNL     1      10.092   0.008  21.657  0.00  0.00    -0.206 F 
ATOM     37  C   UNL     1      10.179   1.386  23.556  0.00  0.00    +0.076 C 
ATOM     38  C   UNL     1       9.791   2.755  24.114  0.00  0.00    +0.018 C 
ENDBRANCH  29  31
ENDBRANCH  20  27
ENDBRANCH   1  20
TORSDOF 8
ENDMDL
MODEL 7
REMARK VINA RESULT:      -6.8      2.681      4.901
REMARK  Name = 
REMARK  11 active torsions:
REMARK  status: ('A' for Active; 'I' for Inactive)
REMARK    1  A    between atoms: C_1  and  C_2
REMARK    2  A    between atoms: C_5  and  C_36
REMARK    3  A    between atoms: N_6  and  C_7
REMARK    4  A    between atoms: N_15  and  C_16
REMARK    5  A    between atoms: C_16  and  C_17
REMARK    6  A    between atoms: C_17  and  C_18
REMARK    7  A    between atoms: C_18  and  C_19
REMARK    8  A    between atoms: C_18  and  N_25
REMARK    9  A    between atoms: C_26  and  C_28
REMARK   10  A    between atoms: C_36  and  C_37
REMARK   11  A    between atoms: C_36  and  C_38
REMARK                            x       y       z     vdW  Elec       q    Type
REMARK                         _______ _______ _______ _____ _____    ______ ____
ROOT
ATOM      1  C   UNL     1       4.129  -2.108  27.644  0.00  0.00    +0.042 C 
ENDROOT
BRANCH   1   2
ATOM      2  C   UNL     1       5.257  -1.081  27.867  0.00  0.00    +0.087 C 
BRANCH   2   6
ATOM      3  C   UNL     1       7.879  -0.717  24.765  0.00  0.00    +0.093 C 
ATOM      4  C   UNL     1       6.482  -0.257  24.297  0.00  0.00    +0.044 C 
ATOM      5  C   UNL     1       5.475  -0.221  25.503  0.00  0.00    +0.059 C 
ATOM      6  N   UNL     1       6.124  -0.821  26.699  0.00  0.00    -0.296 NA
ATOM      7  C   UNL     1       7.146   0.209  27.018  0.00  0.00    +0.059 C 
ATOM      8  C   UNL     1       6.415   1.549  26.819  0.00  0.00    +0.020 C 
ATOM      9  C   UNL     1       5.212   1.217  25.941  0.00  0.00    +0.020 C 
ATOM     10  C   UNL     1       8.328   0.041  26.027  0.00  0.00    +0.044 C 
BRANCH   3  13
ATOM     11  C   UNL     1       9.467  -3.304  24.475  0.00  0.00    +0.088 C 
ATOM     12  C   UNL     1       9.630  -2.095  23.629  0.00  0.00    +0.131 A 
ATOM     13  N   UNL     1       8.899  -0.919  23.747  0.00  0.00    -0.312 N 
ATOM     14  C   UNL     1       9.433  -0.076  22.790  0.00  0.00    +0.136 A 
ATOM     15  N   UNL     1      10.384  -0.723  22.140  0.00  0.00    -0.134 NA
ATOM     16  N   UNL     1      10.508  -1.971  22.661  0.00  0.00    -0.135 NA
BRANCH  14  17
ATOM     17  C   UNL     1       9.080   1.345  22.471  0.00  0.00    +0.051 C 
ATOM     18  C   UNL     1       8.308   1.406  21.144  0.00  0.00    +0.015 C 
ATOM     19  C   UNL     1      10.362   2.184  22.323  0.00  0.00    +0.015 C 
ENDBRANCH  14  17
ENDBRANCH   3  13
ENDBRANCH   2   6
ENDBRANCH   1   2
BRANCH   1  20
ATOM     20  C   UNL     1       4.676  -3.479  27.153  0.00  0.00    +0.104 C 
BRANCH  20  21
ATOM     21  C   UNL     1       4.284  -4.630  28.064  0.00  0.00    -0.027 A 
ATOM     22  C   UNL     1       3.469  -5.659  27.562  0.00  0.00    +0.005 A 
ATOM     23  C   UNL     1       3.190  -6.787  28.333  0.00  0.00    +0.000 A 
ATOM     24  C   UNL     1       3.707  -6.896  29.621  0.00  0.00    +0.000 A 
ATOM     25  C   UNL     1       4.476  -5.859  30.152  0.00  0.00    +0.000 A 
ATOM     26  C   UNL     1       4.760  -4.731  29.380  0.00  0.00    +0.005 A 
ENDBRANCH  20  21
BRANCH  20  27
ATOM     27  N   UNL     1       4.255  -3.747  25.782  0.00  0.00    -0.308 N 
ATOM     28  H   UNL     1       3.272  -3.861  25.593  0.00  0.00    +0.149 HD
ATOM     29  C   UNL     1       5.171  -3.808  24.759  0.00  0.00    +0.217 C 
ATOM     30  O   UNL     1       6.383  -3.766  24.962  0.00  0.00    -0.275 OA
BRANCH  29  31
ATOM     31  C   UNL     1       4.574  -3.900  23.350  0.00  0.00    +0.075 C 
ATOM     32  C   UNL     1       4.286  -5.364  22.949  0.00  0.00    +0.018 C 
ATOM     33  C   UNL     1       5.557  -6.188  22.712  0.00  0.00    +0.076 C 
ATOM     34  C   UNL     1       6.535  -5.492  21.784  0.00  0.00    +0.249 C 
ATOM     35  F   UNL     1       6.045  -5.537  20.517  0.00  0.00    -0.206 F 
ATOM     36  F   UNL     1       7.709  -6.170  21.765  0.00  0.00    -0.206 F 
ATOM     37  C   UNL     1       6.799  -4.040  22.148  0.00  0.00    +0.076 C 
ATOM     38  C   UNL     1       5.496  -3.257  22.304  0.00  0.00    +0.018 C 
ENDBRANCH  29  31
ENDBRANCH  20  27
ENDBRANCH   1  20
TORSDOF 8
ENDMDL
MODEL 8
REMARK VINA RESULT:      -6.8      2.064      3.226
REMARK  Name = 
REMARK  11 active torsions:
REMARK  status: ('A' for Active; 'I' for Inactive)
REMARK    1  A    between atoms: C_1  and  C_2
REMARK    2  A    between atoms: C_5  and  C_36
REMARK    3  A    between atoms: N_6  and  C_7
REMARK    4  A    between atoms: N_15  and  C_16
REMARK    5  A    between atoms: C_16  and  C_17
REMARK    6  A    between atoms: C_17  and  C_18
REMARK    7  A    between atoms: C_18  and  C_19
REMARK    8  A    between atoms: C_18  and  N_25
REMARK    9  A    between atoms: C_26  and  C_28
REMARK   10  A    between atoms: C_36  and  C_37
REMARK   11  A    between atoms: C_36  and  C_38
REMARK                            x       y       z     vdW  Elec       q    Type
REMARK                         _______ _______ _______ _____ _____    ______ ____
ROOT
ATOM      1  C   UNL     1       9.715  -1.475  24.311  0.00  0.00    +0.042 C 
ENDROOT
BRANCH   1   2
ATOM      2  C   UNL     1       9.171  -0.770  23.053  0.00  0.00    +0.087 C 
BRANCH   2   6
ATOM      3  C   UNL     1       9.165   3.279  23.543  0.00  0.00    +0.093 C 
ATOM      4  C   UNL     1       8.497   2.937  22.195  0.00  0.00    +0.044 C 
ATOM      5  C   UNL     1       8.326   1.383  22.038  0.00  0.00    +0.059 C 
ATOM      6  N   UNL     1       9.029   0.698  23.155  0.00  0.00    -0.296 NA
ATOM      7  C   UNL     1       8.167   1.068  24.307  0.00  0.00    +0.059 C 
ATOM      8  C   UNL     1       6.730   0.930  23.770  0.00  0.00    +0.020 C 
ATOM      9  C   UNL     1       6.869   0.978  22.251  0.00  0.00    +0.020 C 
ATOM     10  C   UNL     1       8.498   2.529  24.710  0.00  0.00    +0.044 C 
BRANCH   3  13
ATOM     11  C   UNL     1      12.003   4.375  23.332  0.00  0.00    +0.088 C 
ATOM     12  C   UNL     1      10.802   5.162  23.710  0.00  0.00    +0.131 A 
ATOM     13  N   UNL     1       9.505   4.672  23.794  0.00  0.00    -0.312 N 
ATOM     14  C   UNL     1       8.750   5.747  24.223  0.00  0.00    +0.136 A 
ATOM     15  N   UNL     1       9.543   6.796  24.351  0.00  0.00    -0.134 NA
ATOM     16  N   UNL     1      10.813   6.434  24.036  0.00  0.00    -0.135 NA
BRANCH  14  17
ATOM     17  C   UNL     1       7.286   5.818  24.534  0.00  0.00    +0.051 C 
ATOM     18  C   UNL     1       6.477   5.878  23.229  0.00  0.00    +0.015 C 
ATOM     19  C   UNL     1       6.983   7.088  25.349  0.00  0.00    +0.015 C 
ENDBRANCH  14  17
ENDBRANCH   3  13
ENDBRANCH   2   6
ENDBRANCH   1   2
BRANCH   1  20
ATOM     20  C   UNL     1       8.641  -2.372  24.989  0.00  0.00    +0.104 C 
BRANCH  20  21
ATOM     21  C   UNL     1       7.859  -1.642  26.068  0.00  0.00    -0.027 A 
ATOM     22  C   UNL     1       8.531  -0.747  26.919  0.00  0.00    +0.005 A 
ATOM     23  C   UNL     1       7.824   0.027  27.840  0.00  0.00    +0.000 A 
ATOM     24  C   UNL     1       6.440  -0.095  27.935  0.00  0.00    +0.000 A 
ATOM     25  C   UNL     1       5.766  -1.016  27.133  0.00  0.00    +0.000 A 
ATOM     26  C   UNL     1       6.470  -1.788  26.208  0.00  0.00    +0.005 A 
ENDBRANCH  20  21
BRANCH  20  27
ATOM     27  N   UNL     1       7.734  -2.939  23.998  0.00  0.00    -0.308 N 
ATOM     28  H   UNL     1       6.996  -2.358  23.630  0.00  0.00    +0.149 HD
ATOM     29  C   UNL     1       7.898  -4.225  23.541  0.00  0.00    +0.217 C 
ATOM     30  O   UNL     1       8.725  -4.993  24.029  0.00  0.00    -0.275 OA
BRANCH  29  31
ATOM     31  C   UNL     1       7.000  -4.622  22.364  0.00  0.00    +0.075 C 
ATOM     32  C   UNL     1       5.831  -3.629  22.179  0.00  0.00    +0.018 C 
ATOM     33  C   UNL     1       4.787  -3.708  23.299  0.00  0.00    +0.076 C 
ATOM     34  C   UNL     1       4.330  -5.130  23.565  0.00  0.00    +0.249 C 
ATOM     35  F   UNL     1       3.536  -5.536  22.540  0.00  0.00    -0.206 F 
ATOM     36  F   UNL     1       3.561  -5.162  24.682  0.00  0.00    -0.206 F 
ATOM     37  C   UNL     1       5.471  -6.124  23.714  0.00  0.00    +0.076 C 
ATOM     38  C   UNL     1       6.440  -6.041  22.534  0.00  0.00    +0.018 C 
ENDBRANCH  29  31
ENDBRANCH  20  27
ENDBRANCH   1  20
TORSDOF 8
ENDMDL
MODEL 9
REMARK VINA RESULT:      -6.7      2.877      4.297
REMARK  Name = 
REMARK  11 active torsions:
REMARK  status: ('A' for Active; 'I' for Inactive)
REMARK    1  A    between atoms: C_1  and  C_2
REMARK    2  A    between atoms: C_5  and  C_36
REMARK    3  A    between atoms: N_6  and  C_7
REMARK    4  A    between atoms: N_15  and  C_16
REMARK    5  A    between atoms: C_16  and  C_17
REMARK    6  A    between atoms: C_17  and  C_18
REMARK    7  A    between atoms: C_18  and  C_19
REMARK    8  A    between atoms: C_18  and  N_25
REMARK    9  A    between atoms: C_26  and  C_28
REMARK   10  A    between atoms: C_36  and  C_37
REMARK   11  A    between atoms: C_36  and  C_38
REMARK                            x       y       z     vdW  Elec       q    Type
REMARK                         _______ _______ _______ _____ _____    ______ ____
ROOT
ATOM      1  C   UNL     1       6.220  -2.387  22.682  0.00  0.00    +0.042 C 
ENDROOT
BRANCH   1   2
ATOM      2  C   UNL     1       7.653  -2.028  22.243  0.00  0.00    +0.087 C 
BRANCH   2   6
ATOM      3  C   UNL     1       8.705   1.786  23.232  0.00  0.00    +0.093 C 
ATOM      4  C   UNL     1       8.924   0.873  24.456  0.00  0.00    +0.044 C 
ATOM      5  C   UNL     1       8.691  -0.634  24.075  0.00  0.00    +0.059 C 
ATOM      6  N   UNL     1       8.147  -0.710  22.693  0.00  0.00    -0.296 NA
ATOM      7  C   UNL     1       9.328  -0.286  21.897  0.00  0.00    +0.059 C 
ATOM      8  C   UNL     1      10.517  -1.001  22.565  0.00  0.00    +0.020 C 
ATOM      9  C   UNL     1      10.023  -1.371  23.961  0.00  0.00    +0.020 C 
ATOM     10  C   UNL     1       9.450   1.257  21.994  0.00  0.00    +0.044 C 
BRANCH   3  13
ATOM     11  C   UNL     1      11.321   3.336  23.468  0.00  0.00    +0.088 C 
ATOM     12  C   UNL     1       9.960   3.924  23.566  0.00  0.00    +0.131 A 
ATOM     13  N   UNL     1       8.765   3.225  23.444  0.00  0.00    -0.312 N 
ATOM     14  C   UNL     1       7.781   4.173  23.655  0.00  0.00    +0.136 A 
ATOM     15  N   UNL     1       8.359   5.344  23.853  0.00  0.00    -0.134 NA
ATOM     16  N   UNL     1       9.707   5.190  23.801  0.00  0.00    -0.135 NA
BRANCH  14  17
ATOM     17  C   UNL     1       6.293   4.007  23.687  0.00  0.00    +0.051 C 
ATOM     18  C   UNL     1       5.891   3.122  24.877  0.00  0.00    +0.015 C 
ATOM     19  C   UNL     1       5.812   3.326  22.394  0.00  0.00    +0.015 C 
ENDBRANCH  14  17
ENDBRANCH   3  13
ENDBRANCH   2   6
ENDBRANCH   1   2
BRANCH   1  20
ATOM     20  C   UNL     1       6.122  -3.844  23.219  0.00  0.00    +0.104 C 
BRANCH  20  21
ATOM     21  C   UNL     1       7.091  -4.119  24.356  0.00  0.00    -0.027 A 
ATOM     22  C   UNL     1       8.190  -4.967  24.134  0.00  0.00    +0.005 A 
ATOM     23  C   UNL     1       9.162  -5.146  25.119  0.00  0.00    +0.000 A 
ATOM     24  C   UNL     1       9.041  -4.494  26.343  0.00  0.00    +0.000 A 
ATOM     25  C   UNL     1       7.929  -3.689  26.597  0.00  0.00    +0.000 A 
ATOM     26  C   UNL     1       6.958  -3.506  25.612  0.00  0.00    +0.005 A 
ENDBRANCH  20  21
BRANCH  20  27
ATOM     27  N   UNL     1       4.757  -4.160  23.624  0.00  0.00    -0.308 N 
ATOM     28  H   UNL     1       4.313  -3.578  24.318  0.00  0.00    +0.149 HD
ATOM     29  C   UNL     1       4.070  -5.202  23.049  0.00  0.00    +0.217 C 
ATOM     30  O   UNL     1       4.606  -5.988  22.270  0.00  0.00    -0.275 OA
BRANCH  29  31
ATOM     31  C   UNL     1       2.588  -5.297  23.425  0.00  0.00    +0.075 C 
ATOM     32  C   UNL     1       2.270  -4.483  24.699  0.00  0.00    +0.018 C 
ATOM     33  C   UNL     1       2.867  -5.092  25.972  0.00  0.00    +0.076 C 
ATOM     34  C   UNL     1       2.551  -6.570  26.110  0.00  0.00    +0.249 C 
ATOM     35  F   UNL     1       1.239  -6.710  26.434  0.00  0.00    -0.206 F 
ATOM     36  F   UNL     1       3.259  -7.095  27.142  0.00  0.00    -0.206 F 
ATOM     37  C   UNL     1       2.827  -7.377  24.851  0.00  0.00    +0.076 C 
ATOM     38  C   UNL     1       2.149  -6.754  23.631  0.00  0.00    +0.018 C 
ENDBRANCH  29  31
ENDBRANCH  20  27
ENDBRANCH   1  20
TORSDOF 8
ENDMDL
