MODEL 1
REMARK VINA RESULT:      -5.8      0.000      0.000
REMARK  Name = 
REMARK  23 active torsions:
REMARK  status: ('A' for Active; 'I' for Inactive)
REMARK    1  A    between atoms: C_1  and  C_2
REMARK    2  A    between atoms: C_2  and  C_4
REMARK    3  A    between atoms: C_2  and  O_15
REMARK    4  A    between atoms: C_4  and  N_5
REMARK    5  A    between atoms: C_9  and  N_14
REMARK    6  A    between atoms: O_15  and  C_16
REMARK    7  A    between atoms: C_16  and  P_17
REMARK    8  A    between atoms: P_17  and  O_19
REMARK    9  A    between atoms: P_17  and  O_28
REMARK   10  A    between atoms: O_19  and  C_20
REMARK   11  A    between atoms: C_20  and  O_21
REMARK   12  A    between atoms: O_21  and  C_22
REMARK   13  A    between atoms: C_22  and  O_24
REMARK   14  A    between atoms: O_24  and  C_25
REMARK   15  A    between atoms: C_25  and  C_26
REMARK   16  A    between atoms: C_25  and  C_27
REMARK   17  A    between atoms: O_28  and  C_29
REMARK   18  A    between atoms: C_29  and  O_30
REMARK   19  A    between atoms: O_30  and  C_31
REMARK   20  A    between atoms: C_31  and  O_33
REMARK   21  A    between atoms: O_33  and  C_34
REMARK   22  A    between atoms: C_34  and  C_35
REMARK   23  A    between atoms: C_34  and  C_36
REMARK                            x       y       z     vdW  Elec       q    Type
REMARK                         _______ _______ _______ _____ _____    ______ ____
ROOT
ATOM      1  P   UNL     1       6.012  -1.066  25.105  0.00  0.00    +0.364 P 
ATOM      2  O   UNL     1       7.344  -0.351  25.389  0.00  0.00    -0.256 OA
ENDROOT
BRANCH   1   3
ATOM      3  O   UNL     1       5.444   0.445  24.484  0.00  0.00    -0.268 OA
BRANCH   3   4
ATOM      4  C   UNL     1       6.500   1.319  24.132  0.00  0.00    +0.410 C 
BRANCH   4   5
ATOM      5  O   UNL     1       6.474   1.657  22.746  0.00  0.00    -0.406 OA
BRANCH   5   6
ATOM      6  C   UNL     1       5.892   2.853  22.490  0.00  0.00    +0.512 C 
ATOM      7  O   UNL     1       4.708   3.123  22.660  0.00  0.00    -0.203 OA
BRANCH   6   8
ATOM      8  O   UNL     1       6.843   3.715  22.047  0.00  0.00    -0.431 OA
BRANCH   8   9
ATOM      9  C   UNL     1       7.008   4.909  22.840  0.00  0.00    +0.174 C 
ATOM     10  C   UNL     1       7.367   6.049  21.895  0.00  0.00    +0.052 C 
ATOM     11  C   UNL     1       8.115   4.714  23.873  0.00  0.00    +0.052 C 
ENDBRANCH   8   9
ENDBRANCH   6   8
ENDBRANCH   5   6
ENDBRANCH   4   5
ENDBRANCH   3   4
ENDBRANCH   1   3
BRANCH   1  12
ATOM     12  O   UNL     1       6.178  -1.608  23.536  0.00  0.00    -0.268 OA
BRANCH  12  13
ATOM     13  C   UNL     1       5.472  -2.808  23.189  0.00  0.00    +0.410 C 
BRANCH  13  14
ATOM     14  O   UNL     1       6.074  -3.571  22.143  0.00  0.00    -0.406 OA
BRANCH  14  15
ATOM     15  C   UNL     1       6.104  -4.896  22.411  0.00  0.00    +0.512 C 
ATOM     16  O   UNL     1       6.604  -5.766  21.704  0.00  0.00    -0.203 OA
BRANCH  15  17
ATOM     17  O   UNL     1       5.493  -5.114  23.601  0.00  0.00    -0.431 OA
BRANCH  17  18
ATOM     18  C   UNL     1       4.692  -6.307  23.652  0.00  0.00    +0.174 C 
ATOM     19  C   UNL     1       3.314  -5.947  23.113  0.00  0.00    +0.052 C 
ATOM     20  C   UNL     1       4.585  -6.851  25.075  0.00  0.00    +0.052 C 
ENDBRANCH  17  18
ENDBRANCH  15  17
ENDBRANCH  14  15
ENDBRANCH  13  14
ENDBRANCH  12  13
ENDBRANCH   1  12
BRANCH   1  21
ATOM     21  C   UNL     1       6.613  -2.665  25.762  0.00  0.00    +0.287 C 
BRANCH  21  22
ATOM     22  O   UNL     1       8.058  -2.743  25.747  0.00  0.00    -0.363 OA
BRANCH  22  24
ATOM     23  C   UNL     1       8.872  -4.990  25.463  0.00  0.00    +0.040 C 
ATOM     24  C   UNL     1       8.654  -3.635  24.792  0.00  0.00    +0.136 C 
BRANCH  24  25
ATOM     25  C   UNL     1       9.901  -3.032  24.176  0.00  0.00    +0.156 C 
BRANCH  25  26
ATOM     26  N   UNL     1       9.684  -1.947  23.253  0.00  0.00    -0.312 N 
ATOM     27  C   UNL     1      10.042  -0.660  23.530  0.00  0.00    +0.165 A 
ATOM     28  C   UNL     1       9.632   0.059  22.426  0.00  0.00    +0.147 A 
ATOM     29  C   UNL     1       9.834   1.440  22.473  0.00  0.00    +0.147 A 
ATOM     30  N   UNL     1      10.461   1.967  23.548  0.00  0.00    -0.219 NA
ATOM     31  C   UNL     1      10.826   1.134  24.549  0.00  0.00    +0.225 A 
ATOM     32  N   UNL     1       9.109  -0.764  21.458  0.00  0.00    -0.231 NA
ATOM     33  N   UNL     1      10.651  -0.201  24.634  0.00  0.00    -0.216 NA
ATOM     34  C   UNL     1       9.174  -1.967  21.983  0.00  0.00    +0.201 A 
BRANCH  29  35
ATOM     35  N   UNL     1       9.428   2.272  21.438  0.00  0.00    -0.341 N 
ATOM     36  H   UNL     1       8.652   2.864  21.699  0.00  0.00    +0.144 HD
ATOM     37  H   UNL     1      10.211   2.694  20.949  0.00  0.00    +0.144 HD
ENDBRANCH  29  35
ENDBRANCH  25  26
ENDBRANCH  24  25
ENDBRANCH  22  24
ENDBRANCH  21  22
ENDBRANCH   1  21
TORSDOF 18
ENDMDL
MODEL 2
REMARK VINA RESULT:      -5.6      1.139      6.071
REMARK  Name = 
REMARK  23 active torsions:
REMARK  status: ('A' for Active; 'I' for Inactive)
REMARK    1  A    between atoms: C_1  and  C_2
REMARK    2  A    between atoms: C_2  and  C_4
REMARK    3  A    between atoms: C_2  and  O_15
REMARK    4  A    between atoms: C_4  and  N_5
REMARK    5  A    between atoms: C_9  and  N_14
REMARK    6  A    between atoms: O_15  and  C_16
REMARK    7  A    between atoms: C_16  and  P_17
REMARK    8  A    between atoms: P_17  and  O_19
REMARK    9  A    between atoms: P_17  and  O_28
REMARK   10  A    between atoms: O_19  and  C_20
REMARK   11  A    between atoms: C_20  and  O_21
REMARK   12  A    between atoms: O_21  and  C_22
REMARK   13  A    between atoms: C_22  and  O_24
REMARK   14  A    between atoms: O_24  and  C_25
REMARK   15  A    between atoms: C_25  and  C_26
REMARK   16  A    between atoms: C_25  and  C_27
REMARK   17  A    between atoms: O_28  and  C_29
REMARK   18  A    between atoms: C_29  and  O_30
REMARK   19  A    between atoms: O_30  and  C_31
REMARK   20  A    between atoms: C_31  and  O_33
REMARK   21  A    between atoms: O_33  and  C_34
REMARK   22  A    between atoms: C_34  and  C_35
REMARK   23  A    between atoms: C_34  and  C_36
REMARK                            x       y       z     vdW  Elec       q    Type
REMARK                         _______ _______ _______ _____ _____    ______ ____
ROOT
ATOM      1  P   UNL     1       5.904  -2.006  25.554  0.00  0.00    +0.364 P 
ATOM      2  O   UNL     1       5.207  -1.022  26.509  0.00  0.00    -0.256 OA
ENDROOT
BRANCH   1   3
ATOM      3  O   UNL     1       4.338  -2.321  24.892  0.00  0.00    -0.268 OA
BRANCH   3   4
ATOM      4  C   UNL     1       3.921  -3.658  25.096  0.00  0.00    +0.410 C 
BRANCH   4   5
ATOM      5  O   UNL     1       5.019  -4.568  25.075  0.00  0.00    -0.406 OA
BRANCH   5   6
ATOM      6  C   UNL     1       4.835  -5.622  24.244  0.00  0.00    +0.512 C 
ATOM      7  O   UNL     1       4.734  -6.795  24.589  0.00  0.00    -0.203 OA
BRANCH   6   8
ATOM      8  O   UNL     1       4.746  -5.163  22.970  0.00  0.00    -0.431 OA
BRANCH   8   9
ATOM      9  C   UNL     1       6.002  -4.806  22.355  0.00  0.00    +0.174 C 
ATOM     10  C   UNL     1       5.834  -3.430  21.722  0.00  0.00    +0.052 C 
ATOM     11  C   UNL     1       6.385  -5.831  21.292  0.00  0.00    +0.052 C 
ENDBRANCH   8   9
ENDBRANCH   6   8
ENDBRANCH   5   6
ENDBRANCH   4   5
ENDBRANCH   3   4
ENDBRANCH   1   3
BRANCH   1  12
ATOM     12  O   UNL     1       6.248  -1.081  24.210  0.00  0.00    -0.268 OA
BRANCH  12  13
ATOM     13  C   UNL     1       6.421   0.328  24.422  0.00  0.00    +0.410 C 
BRANCH  13  14
ATOM     14  O   UNL     1       6.441   1.111  23.228  0.00  0.00    -0.406 OA
BRANCH  14  15
ATOM     15  C   UNL     1       5.657   2.210  23.309  0.00  0.00    +0.512 C 
ATOM     16  O   UNL     1       4.632   2.320  23.975  0.00  0.00    -0.203 OA
BRANCH  15  17
ATOM     17  O   UNL     1       6.192   3.186  22.535  0.00  0.00    -0.431 OA
BRANCH  17  18
ATOM     18  C   UNL     1       6.599   4.363  23.253  0.00  0.00    +0.174 C 
ATOM     19  C   UNL     1       7.227   5.312  22.241  0.00  0.00    +0.052 C 
ATOM     20  C   UNL     1       7.593   4.028  24.362  0.00  0.00    +0.052 C 
ENDBRANCH  17  18
ENDBRANCH  15  17
ENDBRANCH  14  15
ENDBRANCH  13  14
ENDBRANCH  12  13
ENDBRANCH   1  12
BRANCH   1  21
ATOM     21  C   UNL     1       7.561  -1.672  26.256  0.00  0.00    +0.287 C 
BRANCH  21  22
ATOM     22  O   UNL     1       8.409  -2.843  26.211  0.00  0.00    -0.363 OA
BRANCH  22  24
ATOM     23  C   UNL     1       8.486  -5.006  25.159  0.00  0.00    +0.040 C 
ATOM     24  C   UNL     1       8.557  -3.495  24.941  0.00  0.00    +0.136 C 
BRANCH  24  25
ATOM     25  C   UNL     1       9.803  -3.023  24.218  0.00  0.00    +0.156 C 
BRANCH  25  26
ATOM     26  N   UNL     1       9.618  -1.940  23.287  0.00  0.00    -0.312 N 
ATOM     27  C   UNL     1       9.992  -0.658  23.562  0.00  0.00    +0.165 A 
ATOM     28  C   UNL     1       9.610   0.061  22.448  0.00  0.00    +0.147 A 
ATOM     29  C   UNL     1       9.835   1.439  22.491  0.00  0.00    +0.147 A 
ATOM     30  N   UNL     1      10.455   1.961  23.572  0.00  0.00    -0.219 NA
ATOM     31  C   UNL     1      10.792   1.128  24.583  0.00  0.00    +0.225 A 
ATOM     32  N   UNL     1       9.088  -0.758  21.477  0.00  0.00    -0.231 NA
ATOM     33  N   UNL     1      10.593  -0.203  24.672  0.00  0.00    -0.216 NA
ATOM     34  C   UNL     1       9.125  -1.959  22.010  0.00  0.00    +0.201 A 
BRANCH  29  35
ATOM     35  N   UNL     1       9.457   2.271  21.446  0.00  0.00    -0.341 N 
ATOM     36  H   UNL     1       9.728   3.233  21.600  0.00  0.00    +0.144 HD
ATOM     37  H   UNL     1       9.641   1.861  20.536  0.00  0.00    +0.144 HD
ENDBRANCH  29  35
ENDBRANCH  25  26
ENDBRANCH  24  25
ENDBRANCH  22  24
ENDBRANCH  21  22
ENDBRANCH   1  21
TORSDOF 18
ENDMDL
MODEL 3
REMARK VINA RESULT:      -5.5      3.293      5.645
REMARK  Name = 
REMARK  23 active torsions:
REMARK  status: ('A' for Active; 'I' for Inactive)
REMARK    1  A    between atoms: C_1  and  C_2
REMARK    2  A    between atoms: C_2  and  C_4
REMARK    3  A    between atoms: C_2  and  O_15
REMARK    4  A    between atoms: C_4  and  N_5
REMARK    5  A    between atoms: C_9  and  N_14
REMARK    6  A    between atoms: O_15  and  C_16
REMARK    7  A    between atoms: C_16  and  P_17
REMARK    8  A    between atoms: P_17  and  O_19
REMARK    9  A    between atoms: P_17  and  O_28
REMARK   10  A    between atoms: O_19  and  C_20
REMARK   11  A    between atoms: C_20  and  O_21
REMARK   12  A    between atoms: O_21  and  C_22
REMARK   13  A    between atoms: C_22  and  O_24
REMARK   14  A    between atoms: O_24  and  C_25
REMARK   15  A    between atoms: C_25  and  C_26
REMARK   16  A    between atoms: C_25  and  C_27
REMARK   17  A    between atoms: O_28  and  C_29
REMARK   18  A    between atoms: C_29  and  O_30
REMARK   19  A    between atoms: O_30  and  C_31
REMARK   20  A    between atoms: C_31  and  O_33
REMARK   21  A    between atoms: O_33  and  C_34
REMARK   22  A    between atoms: C_34  and  C_35
REMARK   23  A    between atoms: C_34  and  C_36
REMARK                            x       y       z     vdW  Elec       q    Type
REMARK                         _______ _______ _______ _____ _____    ______ ____
ROOT
ATOM      1  P   UNL     1       6.150  -5.235  27.164  0.00  0.00    +0.364 P 
ATOM      2  O   UNL     1       6.351  -5.230  28.689  0.00  0.00    -0.256 OA
ENDROOT
BRANCH   1   3
ATOM      3  O   UNL     1       7.786  -5.788  27.048  0.00  0.00    -0.268 OA
BRANCH   3   4
ATOM      4  C   UNL     1       8.646  -4.821  26.476  0.00  0.00    +0.410 C 
BRANCH   4   5
ATOM      5  O   UNL     1       8.937  -5.109  25.109  0.00  0.00    -0.406 OA
BRANCH   5   6
ATOM      6  C   UNL     1       8.819  -4.036  24.291  0.00  0.00    +0.512 C 
ATOM      7  O   UNL     1       9.733  -3.293  23.949  0.00  0.00    -0.203 OA
BRANCH   6   8
ATOM      8  O   UNL     1       7.528  -3.939  23.882  0.00  0.00    -0.431 OA
BRANCH   8   9
ATOM      9  C   UNL     1       7.330  -3.984  22.453  0.00  0.00    +0.174 C 
ATOM     10  C   UNL     1       6.099  -3.148  22.127  0.00  0.00    +0.052 C 
ATOM     11  C   UNL     1       7.125  -5.424  21.989  0.00  0.00    +0.052 C 
ENDBRANCH   8   9
ENDBRANCH   6   8
ENDBRANCH   5   6
ENDBRANCH   4   5
ENDBRANCH   3   4
ENDBRANCH   1   3
BRANCH   1  12
ATOM     12  O   UNL     1       5.640  -6.788  26.834  0.00  0.00    -0.268 OA
BRANCH  12  13
ATOM     13  C   UNL     1       4.274  -6.946  26.422  0.00  0.00    +0.410 C 
BRANCH  13  14
ATOM     14  O   UNL     1       4.107  -7.498  25.116  0.00  0.00    -0.406 OA
BRANCH  14  15
ATOM     15  C   UNL     1       2.832  -7.872  24.865  0.00  0.00    +0.512 C 
ATOM     16  O   UNL     1       2.399  -9.021  24.879  0.00  0.00    -0.203 OA
BRANCH  15  17
ATOM     17  O   UNL     1       2.097  -6.765  24.599  0.00  0.00    -0.431 OA
BRANCH  17  18
ATOM     18  C   UNL     1       2.320  -6.198  23.296  0.00  0.00    +0.174 C 
ATOM     19  C   UNL     1       3.060  -4.883  23.499  0.00  0.00    +0.052 C 
ATOM     20  C   UNL     1       1.006  -5.965  22.554  0.00  0.00    +0.052 C 
ENDBRANCH  17  18
ENDBRANCH  15  17
ENDBRANCH  14  15
ENDBRANCH  13  14
ENDBRANCH  12  13
ENDBRANCH   1  12
BRANCH   1  21
ATOM     21  C   UNL     1       4.421  -4.651  27.287  0.00  0.00    +0.287 C 
BRANCH  21  22
ATOM     22  O   UNL     1       4.211  -3.431  26.539  0.00  0.00    -0.363 OA
BRANCH  22  24
ATOM     23  C   UNL     1       4.251  -1.407  27.841  0.00  0.00    +0.040 C 
ATOM     24  C   UNL     1       5.032  -2.304  26.882  0.00  0.00    +0.136 C 
BRANCH  24  25
ATOM     25  C   UNL     1       5.550  -1.599  25.644  0.00  0.00    +0.156 C 
BRANCH  25  26
ATOM     26  N   UNL     1       6.912  -1.136  25.707  0.00  0.00    -0.312 N 
ATOM     27  C   UNL     1       7.490  -0.402  24.713  0.00  0.00    +0.165 A 
ATOM     28  C   UNL     1       8.787  -0.202  25.138  0.00  0.00    +0.147 A 
ATOM     29  C   UNL     1       9.628   0.490  24.265  0.00  0.00    +0.147 A 
ATOM     30  N   UNL     1       9.113   0.964  23.109  0.00  0.00    -0.219 NA
ATOM     31  C   UNL     1       7.813   0.708  22.833  0.00  0.00    +0.225 A 
ATOM     32  N   UNL     1       8.989  -0.724  26.393  0.00  0.00    -0.231 NA
ATOM     33  N   UNL     1       6.920   0.023  23.575  0.00  0.00    -0.216 NA
ATOM     34  C   UNL     1       7.833  -1.262  26.712  0.00  0.00    +0.201 A 
BRANCH  29  35
ATOM     35  N   UNL     1      10.964   0.719  24.567  0.00  0.00    -0.341 N 
ATOM     36  H   UNL     1      11.084   1.433  25.272  0.00  0.00    +0.144 HD
ATOM     37  H   UNL     1      11.494  -0.141  24.659  0.00  0.00    +0.144 HD
ENDBRANCH  29  35
ENDBRANCH  25  26
ENDBRANCH  24  25
ENDBRANCH  22  24
ENDBRANCH  21  22
ENDBRANCH   1  21
TORSDOF 18
ENDMDL
MODEL 4
REMARK VINA RESULT:      -5.5      3.458      5.879
REMARK  Name = 
REMARK  23 active torsions:
REMARK  status: ('A' for Active; 'I' for Inactive)
REMARK    1  A    between atoms: C_1  and  C_2
REMARK    2  A    between atoms: C_2  and  C_4
REMARK    3  A    between atoms: C_2  and  O_15
REMARK    4  A    between atoms: C_4  and  N_5
REMARK    5  A    between atoms: C_9  and  N_14
REMARK    6  A    between atoms: O_15  and  C_16
REMARK    7  A    between atoms: C_16  and  P_17
REMARK    8  A    between atoms: P_17  and  O_19
REMARK    9  A    between atoms: P_17  and  O_28
REMARK   10  A    between atoms: O_19  and  C_20
REMARK   11  A    between atoms: C_20  and  O_21
REMARK   12  A    between atoms: O_21  and  C_22
REMARK   13  A    between atoms: C_22  and  O_24
REMARK   14  A    between atoms: O_24  and  C_25
REMARK   15  A    between atoms: C_25  and  C_26
REMARK   16  A    between atoms: C_25  and  C_27
REMARK   17  A    between atoms: O_28  and  C_29
REMARK   18  A    between atoms: C_29  and  O_30
REMARK   19  A    between atoms: O_30  and  C_31
REMARK   20  A    between atoms: C_31  and  O_33
REMARK   21  A    between atoms: O_33  and  C_34
REMARK   22  A    between atoms: C_34  and  C_35
REMARK   23  A    between atoms: C_34  and  C_36
REMARK                            x       y       z     vdW  Elec       q    Type
REMARK                         _______ _______ _______ _____ _____    ______ ____
ROOT
ATOM      1  P   UNL     1       8.520  -2.146  23.372  0.00  0.00    +0.364 P 
ATOM      2  O   UNL     1       9.089  -1.514  22.091  0.00  0.00    -0.256 OA
ENDROOT
BRANCH   1   3
ATOM      3  O   UNL     1       9.748  -1.279  24.229  0.00  0.00    -0.268 OA
BRANCH   3   4
ATOM      4  C   UNL     1      10.387  -0.307  23.424  0.00  0.00    +0.410 C 
BRANCH   4   5
ATOM      5  O   UNL     1      10.325   0.994  24.007  0.00  0.00    -0.406 OA
BRANCH   5   6
ATOM      6  C   UNL     1      10.347   1.998  23.099  0.00  0.00    +0.512 C 
ATOM      7  O   UNL     1      10.117   1.882  21.899  0.00  0.00    -0.203 OA
BRANCH   6   8
ATOM      8  O   UNL     1      10.632   3.161  23.740  0.00  0.00    -0.431 OA
BRANCH   8   9
ATOM      9  C   UNL     1       9.573   4.141  23.734  0.00  0.00    +0.174 C 
ATOM     10  C   UNL     1      10.212   5.517  23.875  0.00  0.00    +0.052 C 
ATOM     11  C   UNL     1       8.608   3.889  24.890  0.00  0.00    +0.052 C 
ENDBRANCH   8   9
ENDBRANCH   6   8
ENDBRANCH   5   6
ENDBRANCH   4   5
ENDBRANCH   3   4
ENDBRANCH   1   3
BRANCH   1  12
ATOM     12  O   UNL     1       7.406  -1.026  23.908  0.00  0.00    -0.268 OA
BRANCH  12  13
ATOM     13  C   UNL     1       7.362  -0.785  25.322  0.00  0.00    +0.410 C 
BRANCH  13  14
ATOM     14  O   UNL     1       6.377  -1.544  26.024  0.00  0.00    -0.406 OA
BRANCH  14  15
ATOM     15  C   UNL     1       5.113  -1.207  25.682  0.00  0.00    +0.512 C 
ATOM     16  O   UNL     1       4.657  -0.069  25.630  0.00  0.00    -0.203 OA
BRANCH  15  17
ATOM     17  O   UNL     1       4.423  -2.338  25.394  0.00  0.00    -0.431 OA
BRANCH  17  18
ATOM     18  C   UNL     1       3.267  -2.559  26.220  0.00  0.00    +0.174 C 
ATOM     19  C   UNL     1       3.744  -3.267  27.481  0.00  0.00    +0.052 C 
ATOM     20  C   UNL     1       2.215  -3.399  25.500  0.00  0.00    +0.052 C 
ENDBRANCH  17  18
ENDBRANCH  15  17
ENDBRANCH  14  15
ENDBRANCH  13  14
ENDBRANCH  12  13
ENDBRANCH   1  12
BRANCH   1  21
ATOM     21  C   UNL     1       7.221  -3.063  22.466  0.00  0.00    +0.287 C 
BRANCH  21  22
ATOM     22  O   UNL     1       7.601  -4.438  22.228  0.00  0.00    -0.363 OA
BRANCH  22  24
ATOM     23  C   UNL     1       6.179  -5.948  21.007  0.00  0.00    +0.040 C 
ATOM     24  C   UNL     1       6.580  -5.435  22.389  0.00  0.00    +0.136 C 
BRANCH  24  25
ATOM     25  C   UNL     1       5.426  -4.915  23.224  0.00  0.00    +0.156 C 
BRANCH  25  26
ATOM     26  N   UNL     1       5.119  -5.672  24.411  0.00  0.00    -0.312 N 
ATOM     27  C   UNL     1       5.844  -5.568  25.561  0.00  0.00    +0.165 A 
ATOM     28  C   UNL     1       5.256  -6.471  26.423  0.00  0.00    +0.147 A 
ATOM     29  C   UNL     1       5.849  -6.606  27.681  0.00  0.00    +0.147 A 
ATOM     30  N   UNL     1       6.901  -5.817  27.989  0.00  0.00    -0.219 NA
ATOM     31  C   UNL     1       7.357  -4.959  27.047  0.00  0.00    +0.225 A 
ATOM     32  N   UNL     1       4.152  -7.060  25.857  0.00  0.00    -0.231 NA
ATOM     33  N   UNL     1       6.895  -4.769  25.795  0.00  0.00    -0.216 NA
ATOM     34  C   UNL     1       4.088  -6.540  24.651  0.00  0.00    +0.201 A 
BRANCH  29  35
ATOM     35  N   UNL     1       5.370  -7.511  28.619  0.00  0.00    -0.341 N 
ATOM     36  H   UNL     1       4.369  -7.639  28.557  0.00  0.00    +0.144 HD
ATOM     37  H   UNL     1       5.955  -8.336  28.697  0.00  0.00    +0.144 HD
ENDBRANCH  29  35
ENDBRANCH  25  26
ENDBRANCH  24  25
ENDBRANCH  22  24
ENDBRANCH  21  22
ENDBRANCH   1  21
TORSDOF 18
ENDMDL
MODEL 5
REMARK VINA RESULT:      -5.3      3.936      6.611
REMARK  Name = 
REMARK  23 active torsions:
REMARK  status: ('A' for Active; 'I' for Inactive)
REMARK    1  A    between atoms: C_1  and  C_2
REMARK    2  A    between atoms: C_2  and  C_4
REMARK    3  A    between atoms: C_2  and  O_15
REMARK    4  A    between atoms: C_4  and  N_5
REMARK    5  A    between atoms: C_9  and  N_14
REMARK    6  A    between atoms: O_15  and  C_16
REMARK    7  A    between atoms: C_16  and  P_17
REMARK    8  A    between atoms: P_17  and  O_19
REMARK    9  A    between atoms: P_17  and  O_28
REMARK   10  A    between atoms: O_19  and  C_20
REMARK   11  A    between atoms: C_20  and  O_21
REMARK   12  A    between atoms: O_21  and  C_22
REMARK   13  A    between atoms: C_22  and  O_24
REMARK   14  A    between atoms: O_24  and  C_25
REMARK   15  A    between atoms: C_25  and  C_26
REMARK   16  A    between atoms: C_25  and  C_27
REMARK   17  A    between atoms: O_28  and  C_29
REMARK   18  A    between atoms: C_29  and  O_30
REMARK   19  A    between atoms: O_30  and  C_31
REMARK   20  A    between atoms: C_31  and  O_33
REMARK   21  A    between atoms: O_33  and  C_34
REMARK   22  A    between atoms: C_34  and  C_35
REMARK   23  A    between atoms: C_34  and  C_36
REMARK                            x       y       z     vdW  Elec       q    Type
REMARK                         _______ _______ _______ _____ _____    ______ ____
ROOT
ATOM      1  P   UNL     1       9.661  -1.347  23.425  0.00  0.00    +0.364 P 
ATOM      2  O   UNL     1      10.380  -2.277  22.435  0.00  0.00    -0.256 OA
ENDROOT
BRANCH   1   3
ATOM      3  O   UNL     1      10.612  -0.064  22.759  0.00  0.00    -0.268 OA
BRANCH   3   4
ATOM      4  C   UNL     1       9.829   0.882  22.055  0.00  0.00    +0.410 C 
BRANCH   4   5
ATOM      5  O   UNL     1      10.352   2.203  22.175  0.00  0.00    -0.406 OA
BRANCH   5   6
ATOM      6  C   UNL     1      10.284   2.702  23.433  0.00  0.00    +0.512 C 
ATOM      7  O   UNL     1       9.346   2.555  24.210  0.00  0.00    -0.203 OA
BRANCH   6   8
ATOM      8  O   UNL     1      11.439   3.361  23.706  0.00  0.00    -0.431 OA
BRANCH   8   9
ATOM      9  C   UNL     1      11.558   4.668  23.105  0.00  0.00    +0.174 C 
ATOM     10  C   UNL     1      13.026   5.070  23.153  0.00  0.00    +0.052 C 
ATOM     11  C   UNL     1      10.709   5.683  23.866  0.00  0.00    +0.052 C 
ENDBRANCH   8   9
ENDBRANCH   6   8
ENDBRANCH   5   6
ENDBRANCH   4   5
ENDBRANCH   3   4
ENDBRANCH   1   3
BRANCH   1  12
ATOM     12  O   UNL     1       8.354  -0.779  22.560  0.00  0.00    -0.268 OA
BRANCH  12  13
ATOM     13  C   UNL     1       7.084  -0.782  23.231  0.00  0.00    +0.410 C 
BRANCH  13  14
ATOM     14  O   UNL     1       6.651   0.498  23.691  0.00  0.00    -0.406 OA
BRANCH  14  15
ATOM     15  C   UNL     1       6.121   0.456  24.935  0.00  0.00    +0.512 C 
ATOM     16  O   UNL     1       4.973   0.129  25.221  0.00  0.00    -0.203 OA
BRANCH  15  17
ATOM     17  O   UNL     1       7.071   0.830  25.826  0.00  0.00    -0.431 OA
BRANCH  17  18
ATOM     18  C   UNL     1       7.171  -0.017  26.984  0.00  0.00    +0.174 C 
ATOM     19  C   UNL     1       6.872   0.847  28.201  0.00  0.00    +0.052 C 
ATOM     20  C   UNL     1       8.558  -0.645  27.100  0.00  0.00    +0.052 C 
ENDBRANCH  17  18
ENDBRANCH  15  17
ENDBRANCH  14  15
ENDBRANCH  13  14
ENDBRANCH  12  13
ENDBRANCH   1  12
BRANCH   1  21
ATOM     21  C   UNL     1       8.656  -2.704  24.129  0.00  0.00    +0.287 C 
BRANCH  21  22
ATOM     22  O   UNL     1       8.647  -3.868  23.270  0.00  0.00    -0.363 OA
BRANCH  22  24
ATOM     23  C   UNL     1       7.408  -5.755  22.437  0.00  0.00    +0.040 C 
ATOM     24  C   UNL     1       7.834  -4.977  23.681  0.00  0.00    +0.136 C 
BRANCH  24  25
ATOM     25  C   UNL     1       6.686  -4.525  24.562  0.00  0.00    +0.156 C 
BRANCH  25  26
ATOM     26  N   UNL     1       6.627  -5.119  25.873  0.00  0.00    -0.312 N 
ATOM     27  C   UNL     1       5.479  -5.636  26.398  0.00  0.00    +0.165 A 
ATOM     28  C   UNL     1       5.837  -6.060  27.661  0.00  0.00    +0.147 A 
ATOM     29  C   UNL     1       4.815  -6.592  28.451  0.00  0.00    +0.147 A 
ATOM     30  N   UNL     1       3.580  -6.711  27.918  0.00  0.00    -0.219 NA
ATOM     31  C   UNL     1       3.381  -6.270  26.654  0.00  0.00    +0.225 A 
ATOM     32  N   UNL     1       7.181  -5.888  27.886  0.00  0.00    -0.231 NA
ATOM     33  N   UNL     1       4.273  -5.707  25.815  0.00  0.00    -0.216 NA
ATOM     34  C   UNL     1       7.628  -5.337  26.780  0.00  0.00    +0.201 A 
BRANCH  29  35
ATOM     35  N   UNL     1       5.046  -7.017  29.752  0.00  0.00    -0.341 N 
ATOM     36  H   UNL     1       4.540  -7.863  29.979  0.00  0.00    +0.144 HD
ATOM     37  H   UNL     1       6.025  -6.960  30.012  0.00  0.00    +0.144 HD
ENDBRANCH  29  35
ENDBRANCH  25  26
ENDBRANCH  24  25
ENDBRANCH  22  24
ENDBRANCH  21  22
ENDBRANCH   1  21
TORSDOF 18
ENDMDL
MODEL 6
REMARK VINA RESULT:      -5.3      3.440      7.249
REMARK  Name = 
REMARK  23 active torsions:
REMARK  status: ('A' for Active; 'I' for Inactive)
REMARK    1  A    between atoms: C_1  and  C_2
REMARK    2  A    between atoms: C_2  and  C_4
REMARK    3  A    between atoms: C_2  and  O_15
REMARK    4  A    between atoms: C_4  and  N_5
REMARK    5  A    between atoms: C_9  and  N_14
REMARK    6  A    between atoms: O_15  and  C_16
REMARK    7  A    between atoms: C_16  and  P_17
REMARK    8  A    between atoms: P_17  and  O_19
REMARK    9  A    between atoms: P_17  and  O_28
REMARK   10  A    between atoms: O_19  and  C_20
REMARK   11  A    between atoms: C_20  and  O_21
REMARK   12  A    between atoms: O_21  and  C_22
REMARK   13  A    between atoms: C_22  and  O_24
REMARK   14  A    between atoms: O_24  and  C_25
REMARK   15  A    between atoms: C_25  and  C_26
REMARK   16  A    between atoms: C_25  and  C_27
REMARK   17  A    between atoms: O_28  and  C_29
REMARK   18  A    between atoms: C_29  and  O_30
REMARK   19  A    between atoms: O_30  and  C_31
REMARK   20  A    between atoms: C_31  and  O_33
REMARK   21  A    between atoms: O_33  and  C_34
REMARK   22  A    between atoms: C_34  and  C_35
REMARK   23  A    between atoms: C_34  and  C_36
REMARK                            x       y       z     vdW  Elec       q    Type
REMARK                         _______ _______ _______ _____ _____    ______ ____
ROOT
ATOM      1  P   UNL     1       8.288  -2.350  23.660  0.00  0.00    +0.364 P 
ATOM      2  O   UNL     1       9.574  -3.191  23.724  0.00  0.00    -0.256 OA
ENDROOT
BRANCH   1   3
ATOM      3  O   UNL     1       8.949  -1.417  24.958  0.00  0.00    -0.268 OA
BRANCH   3   4
ATOM      4  C   UNL     1       7.964  -0.670  25.645  0.00  0.00    +0.410 C 
BRANCH   4   5
ATOM      5  O   UNL     1       6.665  -1.244  25.507  0.00  0.00    -0.406 OA
BRANCH   5   6
ATOM      6  C   UNL     1       5.696  -0.337  25.235  0.00  0.00    +0.512 C 
ATOM      7  O   UNL     1       5.823   0.652  24.521  0.00  0.00    -0.203 OA
BRANCH   6   8
ATOM      8  O   UNL     1       4.552  -0.721  25.855  0.00  0.00    -0.431 OA
BRANCH   8   9
ATOM      9  C   UNL     1       4.723  -1.665  26.934  0.00  0.00    +0.174 C 
ATOM     10  C   UNL     1       3.737  -2.805  26.715  0.00  0.00    +0.052 C 
ATOM     11  C   UNL     1       4.458  -0.991  28.278  0.00  0.00    +0.052 C 
ENDBRANCH   8   9
ENDBRANCH   6   8
ENDBRANCH   5   6
ENDBRANCH   4   5
ENDBRANCH   3   4
ENDBRANCH   1   3
BRANCH   1  12
ATOM     12  O   UNL     1       8.676  -1.108  22.617  0.00  0.00    -0.268 OA
BRANCH  12  13
ATOM     13  C   UNL     1      10.046  -0.677  22.607  0.00  0.00    +0.410 C 
BRANCH  13  14
ATOM     14  O   UNL     1      10.225   0.732  22.460  0.00  0.00    -0.406 OA
BRANCH  14  15
ATOM     15  C   UNL     1      10.565   1.340  23.619  0.00  0.00    +0.512 C 
ATOM     16  O   UNL     1      11.263   0.863  24.509  0.00  0.00    -0.203 OA
BRANCH  15  17
ATOM     17  O   UNL     1      10.013   2.578  23.641  0.00  0.00    -0.431 OA
BRANCH  17  18
ATOM     18  C   UNL     1       8.587   2.593  23.827  0.00  0.00    +0.174 C 
ATOM     19  C   UNL     1       7.992   3.399  22.681  0.00  0.00    +0.052 C 
ATOM     20  C   UNL     1       8.204   3.210  25.170  0.00  0.00    +0.052 C 
ENDBRANCH  17  18
ENDBRANCH  15  17
ENDBRANCH  14  15
ENDBRANCH  13  14
ENDBRANCH  12  13
ENDBRANCH   1  12
BRANCH   1  21
ATOM     21  C   UNL     1       7.589  -3.338  22.287  0.00  0.00    +0.287 C 
BRANCH  21  22
ATOM     22  O   UNL     1       7.767  -4.757  22.501  0.00  0.00    -0.363 OA
BRANCH  22  24
ATOM     23  C   UNL     1       6.246  -5.802  20.956  0.00  0.00    +0.040 C 
ATOM     24  C   UNL     1       6.594  -5.581  22.427  0.00  0.00    +0.136 C 
BRANCH  24  25
ATOM     25  C   UNL     1       5.463  -5.009  23.260  0.00  0.00    +0.156 C 
BRANCH  25  26
ATOM     26  N   UNL     1       5.125  -5.745  24.451  0.00  0.00    -0.312 N 
ATOM     27  C   UNL     1       5.828  -5.631  25.614  0.00  0.00    +0.165 A 
ATOM     28  C   UNL     1       5.216  -6.515  26.477  0.00  0.00    +0.147 A 
ATOM     29  C   UNL     1       5.782  -6.637  27.748  0.00  0.00    +0.147 A 
ATOM     30  N   UNL     1       6.835  -5.852  28.065  0.00  0.00    -0.219 NA
ATOM     31  C   UNL     1       7.318  -5.013  27.120  0.00  0.00    +0.225 A 
ATOM     32  N   UNL     1       4.117  -7.102  25.898  0.00  0.00    -0.231 NA
ATOM     33  N   UNL     1       6.883  -4.838  25.856  0.00  0.00    -0.216 NA
ATOM     34  C   UNL     1       4.082  -6.600  24.684  0.00  0.00    +0.201 A 
BRANCH  29  35
ATOM     35  N   UNL     1       5.277  -7.523  28.690  0.00  0.00    -0.341 N 
ATOM     36  H   UNL     1       4.572  -7.101  29.279  0.00  0.00    +0.144 HD
ATOM     37  H   UNL     1       5.089  -8.440  28.299  0.00  0.00    +0.144 HD
ENDBRANCH  29  35
ENDBRANCH  25  26
ENDBRANCH  24  25
ENDBRANCH  22  24
ENDBRANCH  21  22
ENDBRANCH   1  21
TORSDOF 18
ENDMDL
MODEL 7
REMARK VINA RESULT:      -5.3      2.911      5.563
REMARK  Name = 
REMARK  23 active torsions:
REMARK  status: ('A' for Active; 'I' for Inactive)
REMARK    1  A    between atoms: C_1  and  C_2
REMARK    2  A    between atoms: C_2  and  C_4
REMARK    3  A    between atoms: C_2  and  O_15
REMARK    4  A    between atoms: C_4  and  N_5
REMARK    5  A    between atoms: C_9  and  N_14
REMARK    6  A    between atoms: O_15  and  C_16
REMARK    7  A    between atoms: C_16  and  P_17
REMARK    8  A    between atoms: P_17  and  O_19
REMARK    9  A    between atoms: P_17  and  O_28
REMARK   10  A    between atoms: O_19  and  C_20
REMARK   11  A    between atoms: C_20  and  O_21
REMARK   12  A    between atoms: O_21  and  C_22
REMARK   13  A    between atoms: C_22  and  O_24
REMARK   14  A    between atoms: O_24  and  C_25
REMARK   15  A    between atoms: C_25  and  C_26
REMARK   16  A    between atoms: C_25  and  C_27
REMARK   17  A    between atoms: O_28  and  C_29
REMARK   18  A    between atoms: C_29  and  O_30
REMARK   19  A    between atoms: O_30  and  C_31
REMARK   20  A    between atoms: C_31  and  O_33
REMARK   21  A    between atoms: O_33  and  C_34
REMARK   22  A    between atoms: C_34  and  C_35
REMARK   23  A    between atoms: C_34  and  C_36
REMARK                            x       y       z     vdW  Elec       q    Type
REMARK                         _______ _______ _______ _____ _____    ______ ____
ROOT
ATOM      1  P   UNL     1       8.224  -4.047  25.162  0.00  0.00    +0.364 P 
ATOM      2  O   UNL     1       9.623  -3.565  24.743  0.00  0.00    -0.256 OA
ENDROOT
BRANCH   1   3
ATOM      3  O   UNL     1       8.435  -5.336  24.028  0.00  0.00    -0.268 OA
BRANCH   3   4
ATOM      4  C   UNL     1       7.786  -5.086  22.795  0.00  0.00    +0.410 C 
BRANCH   4   5
ATOM      5  O   UNL     1       6.559  -5.805  22.682  0.00  0.00    -0.406 OA
BRANCH   5   6
ATOM      6  C   UNL     1       5.775  -5.385  21.660  0.00  0.00    +0.512 C 
ATOM      7  O   UNL     1       5.885  -5.730  20.488  0.00  0.00    -0.203 OA
BRANCH   6   8
ATOM      8  O   UNL     1       4.827  -4.548  22.152  0.00  0.00    -0.431 OA
BRANCH   8   9
ATOM      9  C   UNL     1       4.310  -4.901  23.453  0.00  0.00    +0.174 C 
ATOM     10  C   UNL     1       2.926  -5.506  23.255  0.00  0.00    +0.052 C 
ATOM     11  C   UNL     1       4.221  -3.664  24.344  0.00  0.00    +0.052 C 
ENDBRANCH   8   9
ENDBRANCH   6   8
ENDBRANCH   5   6
ENDBRANCH   4   5
ENDBRANCH   3   4
ENDBRANCH   1   3
BRANCH   1  12
ATOM     12  O   UNL     1       8.527  -5.129  26.394  0.00  0.00    -0.268 OA
BRANCH  12  13
ATOM     13  C   UNL     1       7.393  -5.587  27.146  0.00  0.00    +0.410 C 
BRANCH  13  14
ATOM     14  O   UNL     1       6.283  -6.006  26.352  0.00  0.00    -0.406 OA
BRANCH  14  15
ATOM     15  C   UNL     1       5.363  -6.698  27.062  0.00  0.00    +0.512 C 
ATOM     16  O   UNL     1       5.515  -7.155  28.191  0.00  0.00    -0.203 OA
BRANCH  15  17
ATOM     17  O   UNL     1       4.231  -6.804  26.325  0.00  0.00    -0.431 OA
BRANCH  17  18
ATOM     18  C   UNL     1       3.012  -6.681  27.078  0.00  0.00    +0.174 C 
ATOM     19  C   UNL     1       1.926  -7.408  26.298  0.00  0.00    +0.052 C 
ATOM     20  C   UNL     1       2.631  -5.218  27.293  0.00  0.00    +0.052 C 
ENDBRANCH  17  18
ENDBRANCH  15  17
ENDBRANCH  14  15
ENDBRANCH  13  14
ENDBRANCH  12  13
ENDBRANCH   1  12
BRANCH   1  21
ATOM     21  C   UNL     1       8.001  -2.683  26.361  0.00  0.00    +0.287 C 
BRANCH  21  22
ATOM     22  O   UNL     1       6.622  -2.252  26.434  0.00  0.00    -0.363 OA
BRANCH  22  24
ATOM     23  C   UNL     1       5.458  -0.512  27.622  0.00  0.00    +0.040 C 
ATOM     24  C   UNL     1       6.380  -0.837  26.449  0.00  0.00    +0.136 C 
BRANCH  24  25
ATOM     25  C   UNL     1       5.880  -0.348  25.103  0.00  0.00    +0.156 C 
BRANCH  25  26
ATOM     26  N   UNL     1       6.894  -0.049  24.125  0.00  0.00    -0.312 N 
ATOM     27  C   UNL     1       7.647   1.087  24.166  0.00  0.00    +0.165 A 
ATOM     28  C   UNL     1       8.454   1.008  23.050  0.00  0.00    +0.147 A 
ATOM     29  C   UNL     1       9.304   2.092  22.819  0.00  0.00    +0.147 A 
ATOM     30  N   UNL     1       9.325   3.101  23.717  0.00  0.00    -0.219 NA
ATOM     31  C   UNL     1       8.489   3.033  24.779  0.00  0.00    +0.225 A 
ATOM     32  N   UNL     1       8.269  -0.176  22.380  0.00  0.00    -0.231 NA
ATOM     33  N   UNL     1       7.604   2.064  25.085  0.00  0.00    -0.216 NA
ATOM     34  C   UNL     1       7.335  -0.797  23.067  0.00  0.00    +0.201 A 
BRANCH  29  35
ATOM     35  N   UNL     1      10.135   2.143  21.708  0.00  0.00    -0.341 N 
ATOM     36  H   UNL     1      10.839   1.418  21.718  0.00  0.00    +0.144 HD
ATOM     37  H   UNL     1       9.622   2.303  20.847  0.00  0.00    +0.144 HD
ENDBRANCH  29  35
ENDBRANCH  25  26
ENDBRANCH  24  25
ENDBRANCH  22  24
ENDBRANCH  21  22
ENDBRANCH   1  21
TORSDOF 18
ENDMDL
MODEL 8
REMARK VINA RESULT:      -5.2      2.922      5.895
REMARK  Name = 
REMARK  23 active torsions:
REMARK  status: ('A' for Active; 'I' for Inactive)
REMARK    1  A    between atoms: C_1  and  C_2
REMARK    2  A    between atoms: C_2  and  C_4
REMARK    3  A    between atoms: C_2  and  O_15
REMARK    4  A    between atoms: C_4  and  N_5
REMARK    5  A    between atoms: C_9  and  N_14
REMARK    6  A    between atoms: O_15  and  C_16
REMARK    7  A    between atoms: C_16  and  P_17
REMARK    8  A    between atoms: P_17  and  O_19
REMARK    9  A    between atoms: P_17  and  O_28
REMARK   10  A    between atoms: O_19  and  C_20
REMARK   11  A    between atoms: C_20  and  O_21
REMARK   12  A    between atoms: O_21  and  C_22
REMARK   13  A    between atoms: C_22  and  O_24
REMARK   14  A    between atoms: O_24  and  C_25
REMARK   15  A    between atoms: C_25  and  C_26
REMARK   16  A    between atoms: C_25  and  C_27
REMARK   17  A    between atoms: O_28  and  C_29
REMARK   18  A    between atoms: C_29  and  O_30
REMARK   19  A    between atoms: O_30  and  C_31
REMARK   20  A    between atoms: C_31  and  O_33
REMARK   21  A    between atoms: O_33  and  C_34
REMARK   22  A    between atoms: C_34  and  C_35
REMARK   23  A    between atoms: C_34  and  C_36
REMARK                            x       y       z     vdW  Elec       q    Type
REMARK                         _______ _______ _______ _____ _____    ______ ____
ROOT
ATOM      1  P   UNL     1       8.501  -3.456  25.116  0.00  0.00    +0.364 P 
ATOM      2  O   UNL     1       9.832  -2.838  24.656  0.00  0.00    -0.256 OA
ENDROOT
BRANCH   1   3
ATOM      3  O   UNL     1       8.736  -4.641  23.878  0.00  0.00    -0.268 OA
BRANCH   3   4
ATOM      4  C   UNL     1       7.735  -4.587  22.878  0.00  0.00    +0.410 C 
BRANCH   4   5
ATOM      5  O   UNL     1       7.328  -5.889  22.460  0.00  0.00    -0.406 OA
BRANCH   5   6
ATOM      6  C   UNL     1       6.059  -5.935  21.987  0.00  0.00    +0.512 C 
ATOM      7  O   UNL     1       5.735  -5.897  20.805  0.00  0.00    -0.203 OA
BRANCH   6   8
ATOM      8  O   UNL     1       5.207  -6.067  23.036  0.00  0.00    -0.431 OA
BRANCH   8   9
ATOM      9  C   UNL     1       4.042  -5.218  22.992  0.00  0.00    +0.174 C 
ATOM     10  C   UNL     1       4.209  -4.144  24.060  0.00  0.00    +0.052 C 
ATOM     11  C   UNL     1       2.779  -6.032  23.259  0.00  0.00    +0.052 C 
ENDBRANCH   8   9
ENDBRANCH   6   8
ENDBRANCH   5   6
ENDBRANCH   4   5
ENDBRANCH   3   4
ENDBRANCH   1   3
BRANCH   1  12
ATOM     12  O   UNL     1       8.959  -4.595  26.243  0.00  0.00    -0.268 OA
BRANCH  12  13
ATOM     13  C   UNL     1       7.908  -5.212  27.003  0.00  0.00    +0.410 C 
BRANCH  13  14
ATOM     14  O   UNL     1       6.925  -5.887  26.218  0.00  0.00    -0.406 OA
BRANCH  14  15
ATOM     15  C   UNL     1       5.746  -6.030  26.866  0.00  0.00    +0.512 C 
ATOM     16  O   UNL     1       5.103  -7.070  26.977  0.00  0.00    -0.203 OA
BRANCH  15  17
ATOM     17  O   UNL     1       5.385  -4.831  27.386  0.00  0.00    -0.431 OA
BRANCH  17  18
ATOM     18  C   UNL     1       4.504  -4.911  28.519  0.00  0.00    +0.174 C 
ATOM     19  C   UNL     1       3.780  -3.576  28.622  0.00  0.00    +0.052 C 
ATOM     20  C   UNL     1       5.270  -5.205  29.806  0.00  0.00    +0.052 C 
ENDBRANCH  17  18
ENDBRANCH  15  17
ENDBRANCH  14  15
ENDBRANCH  13  14
ENDBRANCH  12  13
ENDBRANCH   1  12
BRANCH   1  21
ATOM     21  C   UNL     1       8.254  -2.202  26.425  0.00  0.00    +0.287 C 
BRANCH  21  22
ATOM     22  O   UNL     1       6.852  -1.918  26.639  0.00  0.00    -0.363 OA
BRANCH  22  24
ATOM     23  C   UNL     1       5.342  -0.292  27.572  0.00  0.00    +0.040 C 
ATOM     24  C   UNL     1       6.440  -0.546  26.541  0.00  0.00    +0.136 C 
BRANCH  24  25
ATOM     25  C   UNL     1       6.061  -0.182  25.118  0.00  0.00    +0.156 C 
BRANCH  25  26
ATOM     26  N   UNL     1       6.960   0.713  24.437  0.00  0.00    -0.312 N 
ATOM     27  C   UNL     1       7.761   0.313  23.408  0.00  0.00    +0.165 A 
ATOM     28  C   UNL     1       8.481   1.440  23.070  0.00  0.00    +0.147 A 
ATOM     29  C   UNL     1       9.432   1.291  22.059  0.00  0.00    +0.147 A 
ATOM     30  N   UNL     1       9.543   0.092  21.446  0.00  0.00    -0.219 NA
ATOM     31  C   UNL     1       8.753  -0.921  21.871  0.00  0.00    +0.225 A 
ATOM     32  N   UNL     1       8.084   2.528  23.809  0.00  0.00    -0.231 NA
ATOM     33  N   UNL     1       7.833  -0.908  22.856  0.00  0.00    -0.216 NA
ATOM     34  C   UNL     1       7.153   2.057  24.609  0.00  0.00    +0.201 A 
BRANCH  29  35
ATOM     35  N   UNL     1      10.243   2.345  21.659  0.00  0.00    -0.341 N 
ATOM     36  H   UNL     1      10.573   2.240  20.709  0.00  0.00    +0.144 HD
ATOM     37  H   UNL     1       9.875   3.247  21.943  0.00  0.00    +0.144 HD
ENDBRANCH  29  35
ENDBRANCH  25  26
ENDBRANCH  24  25
ENDBRANCH  22  24
ENDBRANCH  21  22
ENDBRANCH   1  21
TORSDOF 18
ENDMDL
MODEL 9
REMARK VINA RESULT:      -5.2      2.818      6.389
REMARK  Name = 
REMARK  23 active torsions:
REMARK  status: ('A' for Active; 'I' for Inactive)
REMARK    1  A    between atoms: C_1  and  C_2
REMARK    2  A    between atoms: C_2  and  C_4
REMARK    3  A    between atoms: C_2  and  O_15
REMARK    4  A    between atoms: C_4  and  N_5
REMARK    5  A    between atoms: C_9  and  N_14
REMARK    6  A    between atoms: O_15  and  C_16
REMARK    7  A    between atoms: C_16  and  P_17
REMARK    8  A    between atoms: P_17  and  O_19
REMARK    9  A    between atoms: P_17  and  O_28
REMARK   10  A    between atoms: O_19  and  C_20
REMARK   11  A    between atoms: C_20  and  O_21
REMARK   12  A    between atoms: O_21  and  C_22
REMARK   13  A    between atoms: C_22  and  O_24
REMARK   14  A    between atoms: O_24  and  C_25
REMARK   15  A    between atoms: C_25  and  C_26
REMARK   16  A    between atoms: C_25  and  C_27
REMARK   17  A    between atoms: O_28  and  C_29
REMARK   18  A    between atoms: C_29  and  O_30
REMARK   19  A    between atoms: O_30  and  C_31
REMARK   20  A    between atoms: C_31  and  O_33
REMARK   21  A    between atoms: O_33  and  C_34
REMARK   22  A    between atoms: C_34  and  C_35
REMARK   23  A    between atoms: C_34  and  C_36
REMARK                            x       y       z     vdW  Elec       q    Type
REMARK                         _______ _______ _______ _____ _____    ______ ____
ROOT
ATOM      1  P   UNL     1       7.726  -4.497  26.657  0.00  0.00    +0.364 P 
ATOM      2  O   UNL     1       6.279  -4.474  26.138  0.00  0.00    -0.256 OA
ENDROOT
BRANCH   1   3
ATOM      3  O   UNL     1       7.377  -6.075  27.274  0.00  0.00    -0.268 OA
BRANCH   3   4
ATOM      4  C   UNL     1       6.516  -6.041  28.397  0.00  0.00    +0.410 C 
BRANCH   4   5
ATOM      5  O   UNL     1       5.836  -7.281  28.586  0.00  0.00    -0.406 OA
BRANCH   5   6
ATOM      6  C   UNL     1       4.487  -7.162  28.609  0.00  0.00    +0.512 C 
ATOM      7  O   UNL     1       3.765  -7.394  29.573  0.00  0.00    -0.203 OA
BRANCH   6   8
ATOM      8  O   UNL     1       4.068  -6.710  27.399  0.00  0.00    -0.431 OA
BRANCH   8   9
ATOM      9  C   UNL     1       2.767  -6.085  27.393  0.00  0.00    +0.174 C 
ATOM     10  C   UNL     1       1.856  -6.919  26.501  0.00  0.00    +0.052 C 
ATOM     11  C   UNL     1       2.864  -4.659  26.858  0.00  0.00    +0.052 C 
ENDBRANCH   8   9
ENDBRANCH   6   8
ENDBRANCH   5   6
ENDBRANCH   4   5
ENDBRANCH   3   4
ENDBRANCH   1   3
BRANCH   1  12
ATOM     12  O   UNL     1       8.583  -5.211  25.417  0.00  0.00    -0.268 OA
BRANCH  12  13
ATOM     13  C   UNL     1       8.286  -4.764  24.086  0.00  0.00    +0.410 C 
BRANCH  13  14
ATOM     14  O   UNL     1       8.264  -5.798  23.102  0.00  0.00    -0.406 OA
BRANCH  14  15
ATOM     15  C   UNL     1       7.118  -5.814  22.384  0.00  0.00    +0.512 C 
ATOM     16  O   UNL     1       7.032  -5.800  21.159  0.00  0.00    -0.203 OA
BRANCH  15  17
ATOM     17  O   UNL     1       6.067  -5.854  23.239  0.00  0.00    -0.431 OA
BRANCH  17  18
ATOM     18  C   UNL     1       4.851  -5.292  22.718  0.00  0.00    +0.174 C 
ATOM     19  C   UNL     1       4.837  -3.818  23.097  0.00  0.00    +0.052 C 
ATOM     20  C   UNL     1       3.620  -6.001  23.279  0.00  0.00    +0.052 C 
ENDBRANCH  17  18
ENDBRANCH  15  17
ENDBRANCH  14  15
ENDBRANCH  13  14
ENDBRANCH  12  13
ENDBRANCH   1  12
BRANCH   1  21
ATOM     21  C   UNL     1       8.095  -2.828  26.005  0.00  0.00    +0.287 C 
BRANCH  21  22
ATOM     22  O   UNL     1       6.891  -2.055  25.794  0.00  0.00    -0.363 OA
BRANCH  22  24
ATOM     23  C   UNL     1       4.957  -1.256  26.983  0.00  0.00    +0.040 C 
ATOM     24  C   UNL     1       6.478  -1.185  26.859  0.00  0.00    +0.136 C 
BRANCH  24  25
ATOM     25  C   UNL     1       7.028   0.216  26.674  0.00  0.00    +0.156 C 
BRANCH  25  26
ATOM     26  N   UNL     1       7.222   0.640  25.311  0.00  0.00    -0.312 N 
ATOM     27  C   UNL     1       8.451   0.694  24.723  0.00  0.00    +0.165 A 
ATOM     28  C   UNL     1       8.207   1.179  23.454  0.00  0.00    +0.147 A 
ATOM     29  C   UNL     1       9.324   1.386  22.642  0.00  0.00    +0.147 A 
ATOM     30  N   UNL     1      10.542   1.047  23.118  0.00  0.00    -0.219 NA
ATOM     31  C   UNL     1      10.627   0.561  24.378  0.00  0.00    +0.225 A 
ATOM     32  N   UNL     1       6.862   1.345  23.231  0.00  0.00    -0.231 NA
ATOM     33  N   UNL     1       9.631   0.356  25.264  0.00  0.00    -0.216 NA
ATOM     34  C   UNL     1       6.298   0.992  24.364  0.00  0.00    +0.201 A 
BRANCH  29  35
ATOM     35  N   UNL     1       9.207   1.906  21.360  0.00  0.00    -0.341 N 
ATOM     36  H   UNL     1       8.907   1.214  20.687  0.00  0.00    +0.144 HD
ATOM     37  H   UNL     1       8.754   2.814  21.349  0.00  0.00    +0.144 HD
ENDBRANCH  29  35
ENDBRANCH  25  26
ENDBRANCH  24  25
ENDBRANCH  22  24
ENDBRANCH  21  22
ENDBRANCH   1  21
TORSDOF 18
ENDMDL
