MODEL 1
REMARK VINA RESULT:      -7.2      0.000      0.000
REMARK  Name = 
REMARK  11 active torsions:
REMARK  status: ('A' for Active; 'I' for Inactive)
REMARK    1  A    between atoms: C_1  and  C_2
REMARK    2  A    between atoms: C_5  and  C_35
REMARK    3  A    between atoms: N_6  and  C_7
REMARK    4  A    between atoms: N_14  and  C_15
REMARK    5  A    between atoms: C_15  and  C_16
REMARK    6  A    between atoms: C_16  and  C_17
REMARK    7  A    between atoms: C_17  and  C_18
REMARK    8  A    between atoms: C_17  and  N_24
REMARK    9  A    between atoms: C_25  and  C_27
REMARK   10  A    between atoms: C_35  and  C_36
REMARK   11  A    between atoms: C_35  and  C_37
REMARK                            x       y       z     vdW  Elec       q    Type
REMARK                         _______ _______ _______ _____ _____    ______ ____
ROOT
ATOM      1  C   UNL     1       8.544  -2.016  25.723  0.00  0.00    +0.042 C 
ENDROOT
BRANCH   1   2
ATOM      2  C   UNL     1       8.690  -1.431  24.307  0.00  0.00    +0.087 C 
BRANCH   2   6
ATOM      3  C   UNL     1       7.293   2.393  24.062  0.00  0.00    +0.093 C 
ATOM      4  C   UNL     1       8.789   2.431  24.435  0.00  0.00    +0.044 C 
ATOM      5  C   UNL     1       9.413   0.988  24.379  0.00  0.00    +0.059 C 
ATOM      6  N   UNL     1       8.329  -0.003  24.161  0.00  0.00    -0.296 NA
ATOM      7  C   UNL     1       7.931   0.304  22.762  0.00  0.00    +0.059 C 
ATOM      8  C   UNL     1       9.266   0.530  22.028  0.00  0.00    +0.020 C 
ATOM      9  C   UNL     1      10.279   0.825  23.133  0.00  0.00    +0.020 C 
ATOM     10  C   UNL     1       7.054   1.584  22.777  0.00  0.00    +0.044 C 
BRANCH   3  13
ATOM     11  C   UNL     1       4.673   2.595  25.606  0.00  0.00    +0.088 C 
ATOM     12  C   UNL     1       5.329   3.708  24.878  0.00  0.00    +0.131 A 
ATOM     13  N   UNL     1       6.531   3.629  24.186  0.00  0.00    -0.312 N 
ATOM     14  C   UNL     1       6.703   4.882  23.637  0.00  0.00    +0.136 A 
ATOM     15  N   UNL     1       5.691   5.649  24.001  0.00  0.00    -0.134 NA
ATOM     16  N   UNL     1       4.840   4.920  24.768  0.00  0.00    -0.135 NA
BRANCH  14  17
ATOM     17  C   UNL     1       7.803   5.395  22.752  0.00  0.00    +0.051 C 
ATOM     18  C   UNL     1       8.883   6.078  23.603  0.00  0.00    +0.015 C 
ATOM     19  C   UNL     1       7.239   6.428  21.763  0.00  0.00    +0.015 C 
ENDBRANCH  14  17
ENDBRANCH   3  13
ENDBRANCH   2   6
ENDBRANCH   1   2
BRANCH   1  20
ATOM     20  C   UNL     1       7.053  -2.146  26.151  0.00  0.00    +0.104 C 
BRANCH  20  21
ATOM     21  C   UNL     1       6.582  -0.996  27.021  0.00  0.00    -0.027 A 
ATOM     22  C   UNL     1       5.256  -0.978  27.485  0.00  0.00    +0.005 A 
ATOM     23  C   UNL     1       4.827  -0.003  28.385  0.00  0.00    +0.000 A 
ATOM     24  C   UNL     1       5.712   0.979  28.823  0.00  0.00    +0.000 A 
ATOM     25  C   UNL     1       7.016   1.004  28.333  0.00  0.00    +0.000 A 
ATOM     26  C   UNL     1       7.449   0.029  27.431  0.00  0.00    +0.005 A 
ENDBRANCH  20  21
BRANCH  20  27
ATOM     27  N   UNL     1       6.189  -2.293  24.980  0.00  0.00    -0.308 N 
ATOM     28  H   UNL     1       6.123  -1.528  24.325  0.00  0.00    +0.149 HD
ATOM     29  C   UNL     1       5.532  -3.475  24.733  0.00  0.00    +0.217 C 
ATOM     30  O   UNL     1       5.521  -4.399  25.549  0.00  0.00    -0.275 OA
BRANCH  29  31
ATOM     31  C   UNL     1       4.853  -3.585  23.365  0.00  0.00    +0.075 C 
ATOM     32  C   UNL     1       4.434  -5.036  23.052  0.00  0.00    +0.018 C 
ATOM     33  C   UNL     1       5.626  -5.969  22.802  0.00  0.00    +0.076 C 
ATOM     34  C   UNL     1       6.613  -5.396  21.800  0.00  0.00    +0.249 C 
ATOM     35  F   UNL     1       6.069  -5.471  20.556  0.00  0.00    -0.206 F 
ATOM     36  F   UNL     1       7.732  -6.162  21.773  0.00  0.00    -0.206 F 
ATOM     37  C   UNL     1       6.999  -3.951  22.072  0.00  0.00    +0.076 C 
ATOM     38  C   UNL     1       5.765  -3.065  22.243  0.00  0.00    +0.018 C 
ENDBRANCH  29  31
ENDBRANCH  20  27
ENDBRANCH   1  20
TORSDOF 8
ENDMDL
MODEL 2
REMARK VINA RESULT:      -7.1      3.068      7.561
REMARK  Name = 
REMARK  11 active torsions:
REMARK  status: ('A' for Active; 'I' for Inactive)
REMARK    1  A    between atoms: C_1  and  C_2
REMARK    2  A    between atoms: C_5  and  C_35
REMARK    3  A    between atoms: N_6  and  C_7
REMARK    4  A    between atoms: N_14  and  C_15
REMARK    5  A    between atoms: C_15  and  C_16
REMARK    6  A    between atoms: C_16  and  C_17
REMARK    7  A    between atoms: C_17  and  C_18
REMARK    8  A    between atoms: C_17  and  N_24
REMARK    9  A    between atoms: C_25  and  C_27
REMARK   10  A    between atoms: C_35  and  C_36
REMARK   11  A    between atoms: C_35  and  C_37
REMARK                            x       y       z     vdW  Elec       q    Type
REMARK                         _______ _______ _______ _____ _____    ______ ____
ROOT
ATOM      1  C   UNL     1       5.463   2.724  24.888  0.00  0.00    +0.042 C 
ENDROOT
BRANCH   1   2
ATOM      2  C   UNL     1       4.749   1.486  25.461  0.00  0.00    +0.087 C 
BRANCH   2   6
ATOM      3  C   UNL     1       6.509  -2.109  24.676  0.00  0.00    +0.093 C 
ATOM      4  C   UNL     1       7.543  -1.183  25.348  0.00  0.00    +0.044 C 
ATOM      5  C   UNL     1       6.867   0.157  25.819  0.00  0.00    +0.059 C 
ATOM      6  N   UNL     1       5.473   0.202  25.312  0.00  0.00    -0.296 NA
ATOM      7  C   UNL     1       4.832  -0.865  26.125  0.00  0.00    +0.059 C 
ATOM      8  C   UNL     1       5.408  -0.663  27.539  0.00  0.00    +0.020 C 
ATOM      9  C   UNL     1       6.678   0.159  27.334  0.00  0.00    +0.020 C 
ATOM     10  C   UNL     1       5.235  -2.238  25.525  0.00  0.00    +0.044 C 
BRANCH   3  13
ATOM     11  C   UNL     1       5.608  -3.091  21.935  0.00  0.00    +0.088 C 
ATOM     12  C   UNL     1       6.566  -3.789  22.825  0.00  0.00    +0.131 A 
ATOM     13  N   UNL     1       6.996  -3.341  24.068  0.00  0.00    -0.312 N 
ATOM     14  C   UNL     1       7.827  -4.338  24.533  0.00  0.00    +0.136 A 
ATOM     15  N   UNL     1       7.902  -5.289  23.620  0.00  0.00    -0.134 NA
ATOM     16  N   UNL     1       7.120  -4.949  22.563  0.00  0.00    -0.135 NA
BRANCH  14  17
ATOM     17  C   UNL     1       8.562  -4.439  25.839  0.00  0.00    +0.051 C 
ATOM     18  C   UNL     1       9.893  -5.176  25.634  0.00  0.00    +0.015 C 
ATOM     19  C   UNL     1       7.720  -5.231  26.852  0.00  0.00    +0.015 C 
ENDBRANCH  14  17
ENDBRANCH   3  13
ENDBRANCH   2   6
ENDBRANCH   1   2
BRANCH   1  20
ATOM     20  C   UNL     1       5.457   2.733  23.331  0.00  0.00    +0.104 C 
BRANCH  20  21
ATOM     21  C   UNL     1       4.522   3.776  22.747  0.00  0.00    -0.027 A 
ATOM     22  C   UNL     1       3.332   3.365  22.124  0.00  0.00    +0.005 A 
ATOM     23  C   UNL     1       2.393   4.301  21.688  0.00  0.00    +0.000 A 
ATOM     24  C   UNL     1       2.638   5.662  21.855  0.00  0.00    +0.000 A 
ATOM     25  C   UNL     1       3.836   6.086  22.426  0.00  0.00    +0.000 A 
ATOM     26  C   UNL     1       4.777   5.151  22.864  0.00  0.00    +0.005 A 
ENDBRANCH  20  21
BRANCH  20  27
ATOM     27  N   UNL     1       6.812   2.907  22.809  0.00  0.00    -0.308 N 
ATOM     28  H   UNL     1       7.216   3.833  22.802  0.00  0.00    +0.149 HD
ATOM     29  C   UNL     1       7.553   1.826  22.399  0.00  0.00    +0.217 C 
ATOM     30  O   UNL     1       7.067   0.696  22.313  0.00  0.00    -0.275 OA
BRANCH  29  31
ATOM     31  C   UNL     1       9.028   2.106  22.097  0.00  0.00    +0.075 C 
ATOM     32  C   UNL     1       9.828   0.801  21.902  0.00  0.00    +0.018 C 
ATOM     33  C   UNL     1       9.999  -0.004  23.196  0.00  0.00    +0.076 C 
ATOM     34  C   UNL     1      10.504   0.847  24.349  0.00  0.00    +0.249 C 
ATOM     35  F   UNL     1      11.818   1.127  24.142  0.00  0.00    -0.206 F 
ATOM     36  F   UNL     1      10.442   0.137  25.502  0.00  0.00    -0.206 F 
ATOM     37  C   UNL     1       9.753   2.157  24.524  0.00  0.00    +0.076 C 
ATOM     38  C   UNL     1       9.679   2.940  23.212  0.00  0.00    +0.018 C 
ENDBRANCH  29  31
ENDBRANCH  20  27
ENDBRANCH   1  20
TORSDOF 8
ENDMDL
MODEL 3
REMARK VINA RESULT:      -7.1      2.654      3.802
REMARK  Name = 
REMARK  11 active torsions:
REMARK  status: ('A' for Active; 'I' for Inactive)
REMARK    1  A    between atoms: C_1  and  C_2
REMARK    2  A    between atoms: C_5  and  C_35
REMARK    3  A    between atoms: N_6  and  C_7
REMARK    4  A    between atoms: N_14  and  C_15
REMARK    5  A    between atoms: C_15  and  C_16
REMARK    6  A    between atoms: C_16  and  C_17
REMARK    7  A    between atoms: C_17  and  C_18
REMARK    8  A    between atoms: C_17  and  N_24
REMARK    9  A    between atoms: C_25  and  C_27
REMARK   10  A    between atoms: C_35  and  C_36
REMARK   11  A    between atoms: C_35  and  C_37
REMARK                            x       y       z     vdW  Elec       q    Type
REMARK                         _______ _______ _______ _____ _____    ______ ____
ROOT
ATOM      1  C   UNL     1       6.296  -1.816  23.194  0.00  0.00    +0.042 C 
ENDROOT
BRANCH   1   2
ATOM      2  C   UNL     1       7.702  -1.293  22.847  0.00  0.00    +0.087 C 
BRANCH   2   6
ATOM      3  C   UNL     1       8.250   2.374  24.548  0.00  0.00    +0.093 C 
ATOM      4  C   UNL     1       9.628   1.729  24.297  0.00  0.00    +0.044 C 
ATOM      5  C   UNL     1       9.475   0.386  23.493  0.00  0.00    +0.059 C 
ATOM      6  N   UNL     1       8.034   0.051  23.375  0.00  0.00    -0.296 NA
ATOM      7  C   UNL     1       7.562   1.115  22.449  0.00  0.00    +0.059 C 
ATOM      8  C   UNL     1       8.674   1.216  21.389  0.00  0.00    +0.020 C 
ATOM      9  C   UNL     1       9.900   0.580  22.039  0.00  0.00    +0.020 C 
ATOM     10  C   UNL     1       7.413   2.429  23.260  0.00  0.00    +0.044 C 
BRANCH   3  13
ATOM     11  C   UNL     1       6.732   2.489  27.188  0.00  0.00    +0.088 C 
ATOM     12  C   UNL     1       7.491   3.610  26.584  0.00  0.00    +0.131 A 
ATOM     13  N   UNL     1       8.200   3.562  25.391  0.00  0.00    -0.312 N 
ATOM     14  C   UNL     1       8.685   4.841  25.218  0.00  0.00    +0.136 A 
ATOM     15  N   UNL     1       8.312   5.580  26.247  0.00  0.00    -0.134 NA
ATOM     16  N   UNL     1       7.571   4.817  27.092  0.00  0.00    -0.135 NA
BRANCH  14  17
ATOM     17  C   UNL     1       9.495   5.413  24.089  0.00  0.00    +0.051 C 
ATOM     18  C   UNL     1      10.563   6.367  24.643  0.00  0.00    +0.015 C 
ATOM     19  C   UNL     1       8.583   6.205  23.140  0.00  0.00    +0.015 C 
ENDBRANCH  14  17
ENDBRANCH   3  13
ENDBRANCH   2   6
ENDBRANCH   1   2
BRANCH   1  20
ATOM     20  C   UNL     1       6.278  -3.361  23.382  0.00  0.00    +0.104 C 
BRANCH  20  21
ATOM     21  C   UNL     1       7.292  -3.847  24.402  0.00  0.00    -0.027 A 
ATOM     22  C   UNL     1       7.169  -3.447  25.743  0.00  0.00    +0.005 A 
ATOM     23  C   UNL     1       8.009  -3.974  26.725  0.00  0.00    +0.000 A 
ATOM     24  C   UNL     1       8.994  -4.895  26.378  0.00  0.00    +0.000 A 
ATOM     25  C   UNL     1       9.160  -5.263  25.044  0.00  0.00    +0.000 A 
ATOM     26  C   UNL     1       8.321  -4.738  24.059  0.00  0.00    +0.005 A 
ENDBRANCH  20  21
BRANCH  20  27
ATOM     27  N   UNL     1       4.936  -3.824  23.731  0.00  0.00    -0.308 N 
ATOM     28  H   UNL     1       4.424  -3.336  24.452  0.00  0.00    +0.149 HD
ATOM     29  C   UNL     1       4.348  -4.861  23.046  0.00  0.00    +0.217 C 
ATOM     30  O   UNL     1       4.970  -5.533  22.220  0.00  0.00    -0.275 OA
BRANCH  29  31
ATOM     31  C   UNL     1       2.864  -5.098  23.342  0.00  0.00    +0.075 C 
ATOM     32  C   UNL     1       2.432  -4.428  24.663  0.00  0.00    +0.018 C 
ATOM     33  C   UNL     1       3.033  -5.098  25.905  0.00  0.00    +0.076 C 
ATOM     34  C   UNL     1       2.844  -6.606  25.903  0.00  0.00    +0.249 C 
ATOM     35  F   UNL     1       1.540  -6.883  26.167  0.00  0.00    -0.206 F 
ATOM     36  F   UNL     1       3.564  -7.157  26.910  0.00  0.00    -0.206 F 
ATOM     37  C   UNL     1       3.224  -7.272  24.590  0.00  0.00    +0.076 C 
ATOM     38  C   UNL     1       2.538  -6.598  23.401  0.00  0.00    +0.018 C 
ENDBRANCH  29  31
ENDBRANCH  20  27
ENDBRANCH   1  20
TORSDOF 8
ENDMDL
MODEL 4
REMARK VINA RESULT:      -6.9      1.400      1.976
REMARK  Name = 
REMARK  11 active torsions:
REMARK  status: ('A' for Active; 'I' for Inactive)
REMARK    1  A    between atoms: C_1  and  C_2
REMARK    2  A    between atoms: C_5  and  C_35
REMARK    3  A    between atoms: N_6  and  C_7
REMARK    4  A    between atoms: N_14  and  C_15
REMARK    5  A    between atoms: C_15  and  C_16
REMARK    6  A    between atoms: C_16  and  C_17
REMARK    7  A    between atoms: C_17  and  C_18
REMARK    8  A    between atoms: C_17  and  N_24
REMARK    9  A    between atoms: C_25  and  C_27
REMARK   10  A    between atoms: C_35  and  C_36
REMARK   11  A    between atoms: C_35  and  C_37
REMARK                            x       y       z     vdW  Elec       q    Type
REMARK                         _______ _______ _______ _____ _____    ______ ____
ROOT
ATOM      1  C   UNL     1       9.315  -1.522  24.793  0.00  0.00    +0.042 C 
ENDROOT
BRANCH   1   2
ATOM      2  C   UNL     1       8.962  -0.859  23.450  0.00  0.00    +0.087 C 
BRANCH   2   6
ATOM      3  C   UNL     1       7.251   2.839  23.661  0.00  0.00    +0.093 C 
ATOM      4  C   UNL     1       8.553   2.842  24.489  0.00  0.00    +0.044 C 
ATOM      5  C   UNL     1       9.334   1.489  24.304  0.00  0.00    +0.059 C 
ATOM      6  N   UNL     1       8.491   0.543  23.530  0.00  0.00    -0.296 NA
ATOM      7  C   UNL     1       8.494   1.181  22.187  0.00  0.00    +0.059 C 
ATOM      8  C   UNL     1       9.950   1.644  21.990  0.00  0.00    +0.020 C 
ATOM      9  C   UNL     1      10.544   1.688  23.396  0.00  0.00    +0.020 C 
ATOM     10  C   UNL     1       7.505   2.377  22.217  0.00  0.00    +0.044 C 
BRANCH   3  13
ATOM     11  C   UNL     1       4.688   2.710  25.305  0.00  0.00    +0.088 C 
ATOM     12  C   UNL     1       5.170   3.895  24.555  0.00  0.00    +0.131 A 
ATOM     13  N   UNL     1       6.345   3.969  23.818  0.00  0.00    -0.312 N 
ATOM     14  C   UNL     1       6.335   5.232  23.266  0.00  0.00    +0.136 A 
ATOM     15  N   UNL     1       5.249   5.865  23.671  0.00  0.00    -0.134 NA
ATOM     16  N   UNL     1       4.527   5.035  24.468  0.00  0.00    -0.135 NA
BRANCH  14  17
ATOM     17  C   UNL     1       7.326   5.879  22.341  0.00  0.00    +0.051 C 
ATOM     18  C   UNL     1       8.557   6.341  23.135  0.00  0.00    +0.015 C 
ATOM     19  C   UNL     1       6.692   7.108  21.672  0.00  0.00    +0.015 C 
ENDBRANCH  14  17
ENDBRANCH   3  13
ENDBRANCH   2   6
ENDBRANCH   1   2
BRANCH   1  20
ATOM     20  C   UNL     1       8.099  -2.270  25.413  0.00  0.00    +0.104 C 
BRANCH  20  21
ATOM     21  C   UNL     1       7.310  -1.416  26.387  0.00  0.00    -0.027 A 
ATOM     22  C   UNL     1       7.954  -0.368  27.066  0.00  0.00    +0.005 A 
ATOM     23  C   UNL     1       7.231   0.512  27.872  0.00  0.00    +0.000 A 
ATOM     24  C   UNL     1       5.856   0.348  28.024  0.00  0.00    +0.000 A 
ATOM     25  C   UNL     1       5.212  -0.716  27.397  0.00  0.00    +0.000 A 
ATOM     26  C   UNL     1       5.932  -1.599  26.589  0.00  0.00    +0.005 A 
ENDBRANCH  20  21
BRANCH  20  27
ATOM     27  N   UNL     1       7.226  -2.796  24.365  0.00  0.00    -0.308 N 
ATOM     28  H   UNL     1       6.573  -2.170  23.915  0.00  0.00    +0.149 HD
ATOM     29  C   UNL     1       7.334  -4.101  23.947  0.00  0.00    +0.217 C 
ATOM     30  O   UNL     1       8.056  -4.915  24.526  0.00  0.00    -0.275 OA
BRANCH  29  31
ATOM     31  C   UNL     1       6.535  -4.466  22.692  0.00  0.00    +0.075 C 
ATOM     32  C   UNL     1       5.231  -3.647  22.588  0.00  0.00    +0.018 C 
ATOM     33  C   UNL     1       4.192  -4.026  23.651  0.00  0.00    +0.076 C 
ATOM     34  C   UNL     1       3.958  -5.525  23.728  0.00  0.00    +0.249 C 
ATOM     35  F   UNL     1       3.244  -5.913  22.638  0.00  0.00    -0.206 F 
ATOM     36  F   UNL     1       3.192  -5.812  24.809  0.00  0.00    -0.206 F 
ATOM     37  C   UNL     1       5.237  -6.346  23.785  0.00  0.00    +0.076 C 
ATOM     38  C   UNL     1       6.198  -5.964  22.659  0.00  0.00    +0.018 C 
ENDBRANCH  29  31
ENDBRANCH  20  27
ENDBRANCH   1  20
TORSDOF 8
ENDMDL
MODEL 5
REMARK VINA RESULT:      -6.9      1.361      2.383
REMARK  Name = 
REMARK  11 active torsions:
REMARK  status: ('A' for Active; 'I' for Inactive)
REMARK    1  A    between atoms: C_1  and  C_2
REMARK    2  A    between atoms: C_5  and  C_35
REMARK    3  A    between atoms: N_6  and  C_7
REMARK    4  A    between atoms: N_14  and  C_15
REMARK    5  A    between atoms: C_15  and  C_16
REMARK    6  A    between atoms: C_16  and  C_17
REMARK    7  A    between atoms: C_17  and  C_18
REMARK    8  A    between atoms: C_17  and  N_24
REMARK    9  A    between atoms: C_25  and  C_27
REMARK   10  A    between atoms: C_35  and  C_36
REMARK   11  A    between atoms: C_35  and  C_37
REMARK                            x       y       z     vdW  Elec       q    Type
REMARK                         _______ _______ _______ _____ _____    ______ ____
ROOT
ATOM      1  C   UNL     1       8.643  -1.190  24.924  0.00  0.00    +0.042 C 
ENDROOT
BRANCH   1   2
ATOM      2  C   UNL     1       8.646  -0.615  23.496  0.00  0.00    +0.087 C 
BRANCH   2   6
ATOM      3  C   UNL     1       7.036   3.106  23.046  0.00  0.00    +0.093 C 
ATOM      4  C   UNL     1       8.086   3.149  24.175  0.00  0.00    +0.044 C 
ATOM      5  C   UNL     1       8.852   1.779  24.275  0.00  0.00    +0.059 C 
ATOM      6  N   UNL     1       8.207   0.794  23.371  0.00  0.00    -0.296 NA
ATOM      7  C   UNL     1       8.566   1.344  22.037  0.00  0.00    +0.059 C 
ATOM      8  C   UNL     1      10.036   1.777  22.188  0.00  0.00    +0.020 C 
ATOM      9  C   UNL     1      10.258   1.906  23.693  0.00  0.00    +0.020 C 
ATOM     10  C   UNL     1       7.633   2.549  21.744  0.00  0.00    +0.044 C 
BRANCH   3  13
ATOM     11  C   UNL     1       8.041   5.958  22.674  0.00  0.00    +0.088 C 
ATOM     12  C   UNL     1       6.617   5.552  22.748  0.00  0.00    +0.131 A 
ATOM     13  N   UNL     1       6.149   4.253  22.900  0.00  0.00    -0.312 N 
ATOM     14  C   UNL     1       4.778   4.379  22.971  0.00  0.00    +0.136 A 
ATOM     15  N   UNL     1       4.461   5.655  22.843  0.00  0.00    -0.134 NA
ATOM     16  N   UNL     1       5.601   6.381  22.707  0.00  0.00    -0.135 NA
BRANCH  14  17
ATOM     17  C   UNL     1       3.730   3.322  23.172  0.00  0.00    +0.051 C 
ATOM     18  C   UNL     1       2.856   3.208  21.914  0.00  0.00    +0.015 C 
ATOM     19  C   UNL     1       2.827   3.699  24.357  0.00  0.00    +0.015 C 
ENDBRANCH  14  17
ENDBRANCH   3  13
ENDBRANCH   2   6
ENDBRANCH   1   2
BRANCH   1  20
ATOM     20  C   UNL     1       7.199  -1.436  25.452  0.00  0.00    +0.104 C 
BRANCH  20  21
ATOM     21  C   UNL     1       6.616  -0.232  26.170  0.00  0.00    -0.027 A 
ATOM     22  C   UNL     1       7.241   0.248  27.333  0.00  0.00    +0.005 A 
ATOM     23  C   UNL     1       6.806   1.424  27.945  0.00  0.00    +0.000 A 
ATOM     24  C   UNL     1       5.728   2.128  27.412  0.00  0.00    +0.000 A 
ATOM     25  C   UNL     1       5.067   1.638  26.288  0.00  0.00    +0.000 A 
ATOM     26  C   UNL     1       5.501   0.462  25.673  0.00  0.00    +0.005 A 
ENDBRANCH  20  21
BRANCH  20  27
ATOM     27  N   UNL     1       6.317  -1.864  24.368  0.00  0.00    -0.308 N 
ATOM     28  H   UNL     1       6.255  -1.295  23.536  0.00  0.00    +0.149 HD
ATOM     29  C   UNL     1       5.635  -3.055  24.444  0.00  0.00    +0.217 C 
ATOM     30  O   UNL     1       5.619  -3.734  25.473  0.00  0.00    -0.275 OA
BRANCH  29  31
ATOM     31  C   UNL     1       4.935  -3.504  23.158  0.00  0.00    +0.075 C 
ATOM     32  C   UNL     1       4.526  -4.990  23.220  0.00  0.00    +0.018 C 
ATOM     33  C   UNL     1       5.723  -5.949  23.187  0.00  0.00    +0.076 C 
ATOM     34  C   UNL     1       6.689  -5.636  22.056  0.00  0.00    +0.249 C 
ATOM     35  F   UNL     1       6.125  -6.019  20.880  0.00  0.00    -0.206 F 
ATOM     36  F   UNL     1       7.814  -6.377  22.199  0.00  0.00    -0.206 F 
ATOM     37  C   UNL     1       7.064  -4.166  21.956  0.00  0.00    +0.076 C 
ATOM     38  C   UNL     1       5.824  -3.272  21.926  0.00  0.00    +0.018 C 
ENDBRANCH  29  31
ENDBRANCH  20  27
ENDBRANCH   1  20
TORSDOF 8
ENDMDL
MODEL 6
REMARK VINA RESULT:      -6.8      3.546      7.950
REMARK  Name = 
REMARK  11 active torsions:
REMARK  status: ('A' for Active; 'I' for Inactive)
REMARK    1  A    between atoms: C_1  and  C_2
REMARK    2  A    between atoms: C_5  and  C_35
REMARK    3  A    between atoms: N_6  and  C_7
REMARK    4  A    between atoms: N_14  and  C_15
REMARK    5  A    between atoms: C_15  and  C_16
REMARK    6  A    between atoms: C_16  and  C_17
REMARK    7  A    between atoms: C_17  and  C_18
REMARK    8  A    between atoms: C_17  and  N_24
REMARK    9  A    between atoms: C_25  and  C_27
REMARK   10  A    between atoms: C_35  and  C_36
REMARK   11  A    between atoms: C_35  and  C_37
REMARK                            x       y       z     vdW  Elec       q    Type
REMARK                         _______ _______ _______ _____ _____    ______ ____
ROOT
ATOM      1  C   UNL     1       8.691  -3.379  25.799  0.00  0.00    +0.042 C 
ENDROOT
BRANCH   1   2
ATOM      2  C   UNL     1       7.711  -2.360  26.406  0.00  0.00    +0.087 C 
BRANCH   2   6
ATOM      3  C   UNL     1       3.912  -3.828  26.176  0.00  0.00    +0.093 C 
ATOM      4  C   UNL     1       4.083  -3.093  27.522  0.00  0.00    +0.044 C 
ATOM      5  C   UNL     1       5.478  -2.369  27.587  0.00  0.00    +0.059 C 
ATOM      6  N   UNL     1       6.285  -2.762  26.405  0.00  0.00    -0.296 NA
ATOM      7  C   UNL     1       5.545  -2.084  25.308  0.00  0.00    +0.059 C 
ATOM      8  C   UNL     1       5.192  -0.701  25.885  0.00  0.00    +0.020 C 
ATOM      9  C   UNL     1       5.310  -0.864  27.399  0.00  0.00    +0.020 C 
ATOM     10  C   UNL     1       4.277  -2.921  24.990  0.00  0.00    +0.044 C 
BRANCH   3  13
ATOM     11  C   UNL     1       1.076  -2.713  26.200  0.00  0.00    +0.088 C 
ATOM     12  C   UNL     1       1.436  -4.142  26.032  0.00  0.00    +0.131 A 
ATOM     13  N   UNL     1       2.726  -4.657  26.002  0.00  0.00    -0.312 N 
ATOM     14  C   UNL     1       2.558  -6.020  25.884  0.00  0.00    +0.136 A 
ATOM     15  N   UNL     1       1.265  -6.285  25.821  0.00  0.00    -0.134 NA
ATOM     16  N   UNL     1       0.571  -5.122  25.914  0.00  0.00    -0.135 NA
BRANCH  14  17
ATOM     17  C   UNL     1       3.590  -7.111  25.839  0.00  0.00    +0.051 C 
ATOM     18  C   UNL     1       4.607  -6.915  26.973  0.00  0.00    +0.015 C 
ATOM     19  C   UNL     1       4.342  -7.064  24.500  0.00  0.00    +0.015 C 
ENDBRANCH  14  17
ENDBRANCH   3  13
ENDBRANCH   2   6
ENDBRANCH   1   2
BRANCH   1  20
ATOM     20  C   UNL     1       9.038  -3.045  24.318  0.00  0.00    +0.104 C 
BRANCH  20  21
ATOM     21  C   UNL     1       8.042  -3.625  23.330  0.00  0.00    -0.027 A 
ATOM     22  C   UNL     1       7.848  -5.016  23.281  0.00  0.00    +0.005 A 
ATOM     23  C   UNL     1       6.854  -5.570  22.474  0.00  0.00    +0.000 A 
ATOM     24  C   UNL     1       6.050  -4.743  21.692  0.00  0.00    +0.000 A 
ATOM     25  C   UNL     1       6.264  -3.367  21.693  0.00  0.00    +0.000 A 
ATOM     26  C   UNL     1       7.259  -2.809  22.500  0.00  0.00    +0.005 A 
ENDBRANCH  20  21
BRANCH  20  27
ATOM     27  N   UNL     1       9.168  -1.601  24.129  0.00  0.00    -0.308 N 
ATOM     28  H   UNL     1       8.604  -0.983  24.695  0.00  0.00    +0.149 HD
ATOM     29  C   UNL     1      10.090  -1.086  23.250  0.00  0.00    +0.217 C 
ATOM     30  O   UNL     1      10.735  -1.806  22.484  0.00  0.00    -0.275 OA
BRANCH  29  31
ATOM     31  C   UNL     1      10.295   0.430  23.313  0.00  0.00    +0.075 C 
ATOM     32  C   UNL     1       9.351   1.091  24.340  0.00  0.00    +0.018 C 
ATOM     33  C   UNL     1       7.879   1.067  23.910  0.00  0.00    +0.076 C 
ATOM     34  C   UNL     1       7.677   1.573  22.492  0.00  0.00    +0.249 C 
ATOM     35  F   UNL     1       7.841   2.923  22.481  0.00  0.00    -0.206 F 
ATOM     36  F   UNL     1       6.400   1.340  22.101  0.00  0.00    -0.206 F 
ATOM     37  C   UNL     1       8.632   0.963  21.478  0.00  0.00    +0.076 C 
ATOM     38  C   UNL     1      10.086   1.081  21.937  0.00  0.00    +0.018 C 
ENDBRANCH  29  31
ENDBRANCH  20  27
ENDBRANCH   1  20
TORSDOF 8
ENDMDL
MODEL 7
REMARK VINA RESULT:      -6.8      2.785      6.872
REMARK  Name = 
REMARK  11 active torsions:
REMARK  status: ('A' for Active; 'I' for Inactive)
REMARK    1  A    between atoms: C_1  and  C_2
REMARK    2  A    between atoms: C_5  and  C_35
REMARK    3  A    between atoms: N_6  and  C_7
REMARK    4  A    between atoms: N_14  and  C_15
REMARK    5  A    between atoms: C_15  and  C_16
REMARK    6  A    between atoms: C_16  and  C_17
REMARK    7  A    between atoms: C_17  and  C_18
REMARK    8  A    between atoms: C_17  and  N_24
REMARK    9  A    between atoms: C_25  and  C_27
REMARK   10  A    between atoms: C_35  and  C_36
REMARK   11  A    between atoms: C_35  and  C_37
REMARK                            x       y       z     vdW  Elec       q    Type
REMARK                         _______ _______ _______ _____ _____    ______ ____
ROOT
ATOM      1  C   UNL     1       8.032  -0.398  27.278  0.00  0.00    +0.042 C 
ENDROOT
BRANCH   1   2
ATOM      2  C   UNL     1       8.838  -1.139  26.197  0.00  0.00    +0.087 C 
BRANCH   2   6
ATOM      3  C   UNL     1       6.385  -3.644  24.113  0.00  0.00    +0.093 C 
ATOM      4  C   UNL     1       7.097  -2.702  23.120  0.00  0.00    +0.044 C 
ATOM      5  C   UNL     1       8.176  -1.828  23.859  0.00  0.00    +0.059 C 
ATOM      6  N   UNL     1       8.058  -2.045  25.323  0.00  0.00    -0.296 NA
ATOM      7  C   UNL     1       8.538  -3.447  25.450  0.00  0.00    +0.059 C 
ATOM      8  C   UNL     1       9.751  -3.520  24.504  0.00  0.00    +0.020 C 
ATOM      9  C   UNL     1       9.582  -2.339  23.551  0.00  0.00    +0.020 C 
ATOM     10  C   UNL     1       7.394  -4.393  24.999  0.00  0.00    +0.044 C 
BRANCH   3  13
ATOM     11  C   UNL     1       6.627  -5.609  21.796  0.00  0.00    +0.088 C 
ATOM     12  C   UNL     1       5.383  -5.315  22.546  0.00  0.00    +0.131 A 
ATOM     13  N   UNL     1       5.266  -4.434  23.614  0.00  0.00    -0.312 N 
ATOM     14  C   UNL     1       3.927  -4.453  23.941  0.00  0.00    +0.136 A 
ATOM     15  N   UNL     1       3.306  -5.303  23.143  0.00  0.00    -0.134 NA
ATOM     16  N   UNL     1       4.208  -5.835  22.278  0.00  0.00    -0.135 NA
BRANCH  14  17
ATOM     17  C   UNL     1       3.189  -3.675  24.993  0.00  0.00    +0.051 C 
ATOM     18  C   UNL     1       3.636  -4.131  26.390  0.00  0.00    +0.015 C 
ATOM     19  C   UNL     1       1.678  -3.923  24.863  0.00  0.00    +0.015 C 
ENDBRANCH  14  17
ENDBRANCH   3  13
ENDBRANCH   2   6
ENDBRANCH   1   2
BRANCH   1  20
ATOM     20  C   UNL     1       6.906   0.485  26.665  0.00  0.00    +0.104 C 
BRANCH  20  21
ATOM     21  C   UNL     1       5.908   0.977  27.698  0.00  0.00    -0.027 A 
ATOM     22  C   UNL     1       4.857   0.135  28.098  0.00  0.00    +0.005 A 
ATOM     23  C   UNL     1       3.998   0.507  29.132  0.00  0.00    +0.000 A 
ATOM     24  C   UNL     1       4.167   1.733  29.771  0.00  0.00    +0.000 A 
ATOM     25  C   UNL     1       5.174   2.600  29.352  0.00  0.00    +0.000 A 
ATOM     26  C   UNL     1       6.036   2.230  28.316  0.00  0.00    +0.005 A 
ENDBRANCH  20  21
BRANCH  20  27
ATOM     27  N   UNL     1       7.476   1.610  25.925  0.00  0.00    -0.308 N 
ATOM     28  H   UNL     1       8.151   2.204  26.384  0.00  0.00    +0.149 HD
ATOM     29  C   UNL     1       7.155   1.819  24.605  0.00  0.00    +0.217 C 
ATOM     30  O   UNL     1       6.275   1.170  24.036  0.00  0.00    -0.275 OA
BRANCH  29  31
ATOM     31  C   UNL     1       7.989   2.878  23.877  0.00  0.00    +0.075 C 
ATOM     32  C   UNL     1       7.775   2.821  22.350  0.00  0.00    +0.018 C 
ATOM     33  C   UNL     1       8.370   1.564  21.703  0.00  0.00    +0.076 C 
ATOM     34  C   UNL     1       9.810   1.319  22.121  0.00  0.00    +0.249 C 
ATOM     35  F   UNL     1      10.606   2.229  21.500  0.00  0.00    -0.206 F 
ATOM     36  F   UNL     1      10.210   0.100  21.684  0.00  0.00    -0.206 F 
ATOM     37  C   UNL     1      10.041   1.417  23.620  0.00  0.00    +0.076 C 
ATOM     38  C   UNL     1       9.485   2.723  24.188  0.00  0.00    +0.018 C 
ENDBRANCH  29  31
ENDBRANCH  20  27
ENDBRANCH   1  20
TORSDOF 8
ENDMDL
MODEL 8
REMARK VINA RESULT:      -6.7      2.212      3.422
REMARK  Name = 
REMARK  11 active torsions:
REMARK  status: ('A' for Active; 'I' for Inactive)
REMARK    1  A    between atoms: C_1  and  C_2
REMARK    2  A    between atoms: C_5  and  C_35
REMARK    3  A    between atoms: N_6  and  C_7
REMARK    4  A    between atoms: N_14  and  C_15
REMARK    5  A    between atoms: C_15  and  C_16
REMARK    6  A    between atoms: C_16  and  C_17
REMARK    7  A    between atoms: C_17  and  C_18
REMARK    8  A    between atoms: C_17  and  N_24
REMARK    9  A    between atoms: C_25  and  C_27
REMARK   10  A    between atoms: C_35  and  C_36
REMARK   11  A    between atoms: C_35  and  C_37
REMARK                            x       y       z     vdW  Elec       q    Type
REMARK                         _______ _______ _______ _____ _____    ______ ____
ROOT
ATOM      1  C   UNL     1       9.623  -1.331  24.016  0.00  0.00    +0.042 C 
ENDROOT
BRANCH   1   2
ATOM      2  C   UNL     1       8.923  -0.498  22.927  0.00  0.00    +0.087 C 
BRANCH   2   6
ATOM      3  C   UNL     1       9.269   3.483  23.742  0.00  0.00    +0.093 C 
ATOM      4  C   UNL     1       8.536   3.311  22.395  0.00  0.00    +0.044 C 
ATOM      5  C   UNL     1       8.233   1.793  22.118  0.00  0.00    +0.059 C 
ATOM      6  N   UNL     1       8.905   0.966  23.151  0.00  0.00    -0.296 NA
ATOM      7  C   UNL     1       8.109   1.307  24.360  0.00  0.00    +0.059 C 
ATOM      8  C   UNL     1       6.652   1.329  23.862  0.00  0.00    +0.020 C 
ATOM      9  C   UNL     1       6.754   1.490  22.348  0.00  0.00    +0.020 C 
ATOM     10  C   UNL     1       8.571   2.700  24.865  0.00  0.00    +0.044 C 
BRANCH   3  13
ATOM     11  C   UNL     1      12.115   4.444  23.229  0.00  0.00    +0.088 C 
ATOM     12  C   UNL     1      11.042   5.241  23.871  0.00  0.00    +0.131 A 
ATOM     13  N   UNL     1       9.737   4.818  24.093  0.00  0.00    -0.312 N 
ATOM     14  C   UNL     1       9.136   5.866  24.756  0.00  0.00    +0.136 A 
ATOM     15  N   UNL     1      10.013   6.845  24.890  0.00  0.00    -0.134 NA
ATOM     16  N   UNL     1      11.194   6.456  24.343  0.00  0.00    -0.135 NA
BRANCH  14  17
ATOM     17  C   UNL     1       7.737   5.982  25.293  0.00  0.00    +0.051 C 
ATOM     18  C   UNL     1       6.857   6.748  24.295  0.00  0.00    +0.015 C 
ATOM     19  C   UNL     1       7.749   6.754  26.621  0.00  0.00    +0.015 C 
ENDBRANCH  14  17
ENDBRANCH   3  13
ENDBRANCH   2   6
ENDBRANCH   1   2
BRANCH   1  20
ATOM     20  C   UNL     1       8.632  -2.274  24.759  0.00  0.00    +0.104 C 
BRANCH  20  21
ATOM     21  C   UNL     1       7.869  -1.577  25.870  0.00  0.00    -0.027 A 
ATOM     22  C   UNL     1       8.569  -0.788  26.799  0.00  0.00    +0.005 A 
ATOM     23  C   UNL     1       7.886  -0.036  27.755  0.00  0.00    +0.000 A 
ATOM     24  C   UNL     1       6.494  -0.074  27.807  0.00  0.00    +0.000 A 
ATOM     25  C   UNL     1       5.789  -0.890  26.925  0.00  0.00    +0.000 A 
ATOM     26  C   UNL     1       6.470  -1.644  25.966  0.00  0.00    +0.005 A 
ENDBRANCH  20  21
BRANCH  20  27
ATOM     27  N   UNL     1       7.708  -2.901  23.816  0.00  0.00    -0.308 N 
ATOM     28  H   UNL     1       6.978  -2.339  23.402  0.00  0.00    +0.149 HD
ATOM     29  C   UNL     1       7.867  -4.213  23.440  0.00  0.00    +0.217 C 
ATOM     30  O   UNL     1       8.691  -4.953  23.983  0.00  0.00    -0.275 OA
BRANCH  29  31
ATOM     31  C   UNL     1       6.988  -4.684  22.278  0.00  0.00    +0.075 C 
ATOM     32  C   UNL     1       5.783  -3.747  22.058  0.00  0.00    +0.018 C 
ATOM     33  C   UNL     1       4.746  -3.820  23.186  0.00  0.00    +0.076 C 
ATOM     34  C   UNL     1       4.347  -5.248  23.519  0.00  0.00    +0.249 C 
ATOM     35  F   UNL     1       3.556  -5.725  22.522  0.00  0.00    -0.206 F 
ATOM     36  F   UNL     1       3.592  -5.260  24.645  0.00  0.00    -0.206 F 
ATOM     37  C   UNL     1       5.526  -6.193  23.693  0.00  0.00    +0.076 C 
ATOM     38  C   UNL     1       6.484  -6.118  22.503  0.00  0.00    +0.018 C 
ENDBRANCH  29  31
ENDBRANCH  20  27
ENDBRANCH   1  20
TORSDOF 8
ENDMDL
MODEL 9
REMARK VINA RESULT:      -6.7      3.894      8.896
REMARK  Name = 
REMARK  11 active torsions:
REMARK  status: ('A' for Active; 'I' for Inactive)
REMARK    1  A    between atoms: C_1  and  C_2
REMARK    2  A    between atoms: C_5  and  C_35
REMARK    3  A    between atoms: N_6  and  C_7
REMARK    4  A    between atoms: N_14  and  C_15
REMARK    5  A    between atoms: C_15  and  C_16
REMARK    6  A    between atoms: C_16  and  C_17
REMARK    7  A    between atoms: C_17  and  C_18
REMARK    8  A    between atoms: C_17  and  N_24
REMARK    9  A    between atoms: C_25  and  C_27
REMARK   10  A    between atoms: C_35  and  C_36
REMARK   11  A    between atoms: C_35  and  C_37
REMARK                            x       y       z     vdW  Elec       q    Type
REMARK                         _______ _______ _______ _____ _____    ______ ____
ROOT
ATOM      1  C   UNL     1       8.042  -3.731  25.980  0.00  0.00    +0.042 C 
ENDROOT
BRANCH   1   2
ATOM      2  C   UNL     1       6.680  -3.320  26.567  0.00  0.00    +0.087 C 
BRANCH   2   6
ATOM      3  C   UNL     1       3.627  -6.012  26.311  0.00  0.00    +0.093 C 
ATOM      4  C   UNL     1       4.929  -6.765  26.650  0.00  0.00    +0.044 C 
ATOM      5  C   UNL     1       6.102  -5.753  26.922  0.00  0.00    +0.059 C 
ATOM      6  N   UNL     1       5.646  -4.380  26.591  0.00  0.00    -0.296 NA
ATOM      7  C   UNL     1       4.659  -4.132  27.675  0.00  0.00    +0.059 C 
ATOM      8  C   UNL     1       5.328  -4.706  28.938  0.00  0.00    +0.020 C 
ATOM      9  C   UNL     1       6.398  -5.663  28.417  0.00  0.00    +0.020 C 
ATOM     10  C   UNL     1       3.350  -4.886  27.319  0.00  0.00    +0.044 C 
BRANCH   3  13
ATOM     11  C   UNL     1       1.805  -7.441  28.293  0.00  0.00    +0.088 C 
ATOM     12  C   UNL     1       1.657  -7.466  26.818  0.00  0.00    +0.131 A 
ATOM     13  N   UNL     1       2.471  -6.804  25.908  0.00  0.00    -0.312 N 
ATOM     14  C   UNL     1       1.983  -7.167  24.671  0.00  0.00    +0.136 A 
ATOM     15  N   UNL     1       0.941  -7.960  24.841  0.00  0.00    -0.134 NA
ATOM     16  N   UNL     1       0.741  -8.147  26.171  0.00  0.00    -0.135 NA
BRANCH  14  17
ATOM     17  C   UNL     1       2.477  -6.796  23.302  0.00  0.00    +0.051 C 
ATOM     18  C   UNL     1       2.554  -5.267  23.171  0.00  0.00    +0.015 C 
ATOM     19  C   UNL     1       1.506  -7.325  22.234  0.00  0.00    +0.015 C 
ENDBRANCH  14  17
ENDBRANCH   3  13
ENDBRANCH   2   6
ENDBRANCH   1   2
BRANCH   1  20
ATOM     20  C   UNL     1       8.258  -3.159  24.548  0.00  0.00    +0.104 C 
BRANCH  20  21
ATOM     21  C   UNL     1       7.442  -3.882  23.491  0.00  0.00    -0.027 A 
ATOM     22  C   UNL     1       6.632  -3.139  22.617  0.00  0.00    +0.005 A 
ATOM     23  C   UNL     1       5.967  -3.758  21.558  0.00  0.00    +0.000 A 
ATOM     24  C   UNL     1       6.091  -5.133  21.367  0.00  0.00    +0.000 A 
ATOM     25  C   UNL     1       6.851  -5.890  22.256  0.00  0.00    +0.000 A 
ATOM     26  C   UNL     1       7.517  -5.273  23.317  0.00  0.00    +0.005 A 
ENDBRANCH  20  21
BRANCH  20  27
ATOM     27  N   UNL     1       7.984  -1.724  24.516  0.00  0.00    -0.308 N 
ATOM     28  H   UNL     1       7.024  -1.411  24.512  0.00  0.00    +0.149 HD
ATOM     29  C   UNL     1       9.010  -0.810  24.563  0.00  0.00    +0.217 C 
ATOM     30  O   UNL     1      10.192  -1.151  24.484  0.00  0.00    -0.275 OA
BRANCH  29  31
ATOM     31  C   UNL     1       8.592   0.650  24.761  0.00  0.00    +0.075 C 
ATOM     32  C   UNL     1       7.200   0.932  24.158  0.00  0.00    +0.018 C 
ATOM     33  C   UNL     1       7.185   0.886  22.625  0.00  0.00    +0.076 C 
ATOM     34  C   UNL     1       8.292   1.723  22.006  0.00  0.00    +0.249 C 
ATOM     35  F   UNL     1       7.976   3.038  22.145  0.00  0.00    -0.206 F 
ATOM     36  F   UNL     1       8.353   1.484  20.673  0.00  0.00    -0.206 F 
ATOM     37  C   UNL     1       9.661   1.487  22.623  0.00  0.00    +0.076 C 
ATOM     38  C   UNL     1       9.618   1.615  24.146  0.00  0.00    +0.018 C 
ENDBRANCH  29  31
ENDBRANCH  20  27
ENDBRANCH   1  20
TORSDOF 8
ENDMDL
