MODEL 1
REMARK VINA RESULT:      -8.2      0.000      0.000
REMARK  Name = 
REMARK  6 active torsions:
REMARK  status: ('A' for Active; 'I' for Inactive)
REMARK    1  A    between atoms: C_1  and  C_2
REMARK    2  A    between atoms: C_9  and  O_12
REMARK    3  A    between atoms: C_10  and  O_11
REMARK    4  A    between atoms: C_19  and  O_21
REMARK    5  A    between atoms: O_21  and  C_22
REMARK    6  A    between atoms: C_22  and  C_23
REMARK                            x       y       z     vdW  Elec       q    Type
REMARK                         _______ _______ _______ _____ _____    ______ ____
ROOT
ATOM      1  C   UNL     1       5.346  -6.584  23.598  0.00  0.00    +0.014 C 
ATOM      2  C   UNL     1       5.813  -5.114  23.504  0.00  0.00    -0.000 C 
ATOM      3  C   UNL     1       4.599  -4.155  23.211  0.00  0.00    +0.149 C 
ATOM      4  C   UNL     1       4.456  -3.242  24.443  0.00  0.00    +0.144 C 
ATOM      5  C   UNL     1       5.238  -3.950  25.542  0.00  0.00    +0.038 C 
ATOM      6  C   UNL     1       6.447  -4.603  24.847  0.00  0.00    +0.004 C 
ATOM      7  C   UNL     1       7.826  -3.787  24.785  0.00  0.00    +0.001 C 
ATOM      8  C   UNL     1       8.016  -2.715  25.894  0.00  0.00    +0.009 C 
ATOM      9  C   UNL     1       9.082  -1.647  25.639  0.00  0.00    +0.036 C 
ATOM     10  C   UNL     1       9.016  -1.091  24.245  0.00  0.00    -0.040 A 
ATOM     11  C   UNL     1       9.155   0.283  23.965  0.00  0.00    +0.049 A 
ATOM     12  C   UNL     1       9.184   0.740  22.639  0.00  0.00    +0.121 A 
ATOM     13  C   UNL     1       9.297  -0.176  21.608  0.00  0.00    +0.046 A 
ATOM     14  C   UNL     1       9.180  -1.525  21.889  0.00  0.00    +0.008 A 
ATOM     15  C   UNL     1       8.896  -1.983  23.184  0.00  0.00    -0.041 A 
ATOM     16  C   UNL     1       8.413  -3.410  23.380  0.00  0.00    +0.023 C 
ATOM     17  C   UNL     1       7.426  -3.703  22.248  0.00  0.00    +0.009 C 
ATOM     18  C   UNL     1       6.825  -5.075  22.370  0.00  0.00    +0.010 C 
ENDROOT
BRANCH   3  19
ATOM     19  O   UNL     1       3.392  -4.871  22.939  0.00  0.00    -0.389 OA
ATOM     20  H   UNL     1       3.554  -5.495  22.214  0.00  0.00    +0.210 HD
ENDBRANCH   3  19
BRANCH   4  21
ATOM     21  O   UNL     1       4.970  -1.947  24.153  0.00  0.00    -0.389 OA
ATOM     22  H   UNL     1       5.708  -2.004  23.530  0.00  0.00    +0.210 HD
ENDBRANCH   4  21
BRANCH  12  23
ATOM     23  O   UNL     1       9.110   2.093  22.422  0.00  0.00    -0.487 OA
BRANCH  23  24
ATOM     24  C   UNL     1       8.977   2.855  23.636  0.00  0.00    +0.264 C 
BRANCH  24  25
ATOM     25  C   UNL     1      10.042   3.917  23.718  0.00  0.00    -0.010 A 
ATOM     26  C   UNL     1       9.700   5.223  24.098  0.00  0.00    +0.007 A 
ATOM     27  C   UNL     1      10.661   6.227  24.130  0.00  0.00    +0.000 A 
ATOM     28  C   UNL     1      11.977   5.938  23.766  0.00  0.00    +0.000 A 
ATOM     29  C   UNL     1      12.329   4.645  23.373  0.00  0.00    +0.000 A 
ATOM     30  C   UNL     1      11.365   3.638  23.345  0.00  0.00    +0.007 A 
ENDBRANCH  24  25
ENDBRANCH  23  24
ENDBRANCH  12  23
TORSDOF 5
ENDMDL
MODEL 2
REMARK VINA RESULT:      -8.1      2.255      7.660
REMARK  Name = 
REMARK  6 active torsions:
REMARK  status: ('A' for Active; 'I' for Inactive)
REMARK    1  A    between atoms: C_1  and  C_2
REMARK    2  A    between atoms: C_9  and  O_12
REMARK    3  A    between atoms: C_10  and  O_11
REMARK    4  A    between atoms: C_19  and  O_21
REMARK    5  A    between atoms: O_21  and  C_22
REMARK    6  A    between atoms: C_22  and  C_23
REMARK                            x       y       z     vdW  Elec       q    Type
REMARK                         _______ _______ _______ _____ _____    ______ ____
ROOT
ATOM      1  C   UNL     1       7.986   4.892  23.391  0.00  0.00    +0.014 C 
ATOM      2  C   UNL     1       7.898   3.366  23.618  0.00  0.00    -0.000 C 
ATOM      3  C   UNL     1       6.435   2.842  23.365  0.00  0.00    +0.149 C 
ATOM      4  C   UNL     1       6.513   1.898  22.151  0.00  0.00    +0.144 C 
ATOM      5  C   UNL     1       7.841   2.233  21.485  0.00  0.00    +0.038 C 
ATOM      6  C   UNL     1       8.817   2.563  22.629  0.00  0.00    +0.004 C 
ATOM      7  C   UNL     1       9.735   1.386  23.216  0.00  0.00    +0.001 C 
ATOM      8  C   UNL     1      10.003   0.204  22.243  0.00  0.00    +0.009 C 
ATOM      9  C   UNL     1      10.495  -1.102  22.873  0.00  0.00    +0.036 C 
ATOM     10  C   UNL     1       9.718  -1.476  24.102  0.00  0.00    -0.040 A 
ATOM     11  C   UNL     1       9.303  -2.796  24.370  0.00  0.00    +0.049 A 
ATOM     12  C   UNL     1       8.666  -3.111  25.579  0.00  0.00    +0.121 A 
ATOM     13  C   UNL     1       8.642  -2.173  26.598  0.00  0.00    +0.046 A 
ATOM     14  C   UNL     1       9.068  -0.884  26.337  0.00  0.00    +0.008 A 
ATOM     15  C   UNL     1       9.473  -0.490  25.052  0.00  0.00    -0.041 A 
ATOM     16  C   UNL     1       9.573   0.990  24.725  0.00  0.00    +0.023 C 
ATOM     17  C   UNL     1       8.364   1.670  25.371  0.00  0.00    +0.009 C 
ATOM     18  C   UNL     1       8.317   3.140  25.062  0.00  0.00    +0.010 C 
ENDROOT
BRANCH   3  19
ATOM     19  O   UNL     1       5.505   3.906  23.150  0.00  0.00    -0.389 OA
ATOM     20  H   UNL     1       4.637   3.639  23.494  0.00  0.00    +0.210 HD
ENDBRANCH   3  19
BRANCH   4  21
ATOM     21  O   UNL     1       6.443   0.543  22.582  0.00  0.00    -0.389 OA
ATOM     22  H   UNL     1       6.731  -0.055  21.877  0.00  0.00    +0.210 HD
ENDBRANCH   4  21
BRANCH  12  23
ATOM     23  O   UNL     1       8.098  -4.354  25.704  0.00  0.00    -0.487 OA
BRANCH  23  24
ATOM     24  C   UNL     1       6.687  -4.362  25.419  0.00  0.00    +0.264 C 
BRANCH  24  25
ATOM     25  C   UNL     1       6.443  -4.445  23.935  0.00  0.00    -0.010 A 
ATOM     26  C   UNL     1       6.869  -5.572  23.218  0.00  0.00    +0.007 A 
ATOM     27  C   UNL     1       6.698  -5.641  21.840  0.00  0.00    +0.000 A 
ATOM     28  C   UNL     1       6.109  -4.573  21.160  0.00  0.00    +0.000 A 
ATOM     29  C   UNL     1       5.693  -3.439  21.860  0.00  0.00    +0.000 A 
ATOM     30  C   UNL     1       5.862  -3.372  23.243  0.00  0.00    +0.007 A 
ENDBRANCH  24  25
ENDBRANCH  23  24
ENDBRANCH  12  23
TORSDOF 5
ENDMDL
MODEL 3
REMARK VINA RESULT:      -8.0      1.066      1.580
REMARK  Name = 
REMARK  6 active torsions:
REMARK  status: ('A' for Active; 'I' for Inactive)
REMARK    1  A    between atoms: C_1  and  C_2
REMARK    2  A    between atoms: C_9  and  O_12
REMARK    3  A    between atoms: C_10  and  O_11
REMARK    4  A    between atoms: C_19  and  O_21
REMARK    5  A    between atoms: O_21  and  C_22
REMARK    6  A    between atoms: C_22  and  C_23
REMARK                            x       y       z     vdW  Elec       q    Type
REMARK                         _______ _______ _______ _____ _____    ______ ____
ROOT
ATOM      1  C   UNL     1       5.317  -6.479  24.051  0.00  0.00    +0.014 C 
ATOM      2  C   UNL     1       5.914  -5.059  23.923  0.00  0.00    -0.000 C 
ATOM      3  C   UNL     1       4.849  -4.049  23.354  0.00  0.00    +0.149 C 
ATOM      4  C   UNL     1       4.583  -3.020  24.468  0.00  0.00    +0.144 C 
ATOM      5  C   UNL     1       5.113  -3.678  25.736  0.00  0.00    +0.038 C 
ATOM      6  C   UNL     1       6.361  -4.473  25.310  0.00  0.00    +0.004 C 
ATOM      7  C   UNL     1       7.795  -3.764  25.420  0.00  0.00    +0.001 C 
ATOM      8  C   UNL     1       7.889  -2.612  26.459  0.00  0.00    +0.009 C 
ATOM      9  C   UNL     1       9.068  -1.647  26.305  0.00  0.00    +0.036 C 
ATOM     10  C   UNL     1       9.278  -1.217  24.882  0.00  0.00    -0.040 A 
ATOM     11  C   UNL     1       9.575   0.113  24.523  0.00  0.00    +0.049 A 
ATOM     12  C   UNL     1       9.859   0.444  23.190  0.00  0.00    +0.121 A 
ATOM     13  C   UNL     1      10.063  -0.568  22.268  0.00  0.00    +0.046 A 
ATOM     14  C   UNL     1       9.788  -1.874  22.629  0.00  0.00    +0.008 A 
ATOM     15  C   UNL     1       9.259  -2.191  23.889  0.00  0.00    -0.041 A 
ATOM     16  C   UNL     1       8.633  -3.558  24.110  0.00  0.00    +0.023 C 
ATOM     17  C   UNL     1       7.823  -3.884  22.854  0.00  0.00    +0.009 C 
ATOM     18  C   UNL     1       7.098  -5.194  22.978  0.00  0.00    +0.010 C 
ENDROOT
BRANCH   3  19
ATOM     19  O   UNL     1       3.648  -4.701  22.937  0.00  0.00    -0.389 OA
ATOM     20  H   UNL     1       3.692  -4.860  21.980  0.00  0.00    +0.210 HD
ENDBRANCH   3  19
BRANCH   4  21
ATOM     21  O   UNL     1       5.244  -1.795  24.169  0.00  0.00    -0.389 OA
ATOM     22  H   UNL     1       5.420  -1.296  24.980  0.00  0.00    +0.210 HD
ENDBRANCH   4  21
BRANCH  12  23
ATOM     23  O   UNL     1       9.935   1.774  22.859  0.00  0.00    -0.487 OA
BRANCH  23  24
ATOM     24  C   UNL     1       9.730   2.650  23.982  0.00  0.00    +0.264 C 
BRANCH  24  25
ATOM     25  C   UNL     1       9.090   3.940  23.542  0.00  0.00    -0.010 A 
ATOM     26  C   UNL     1       7.915   3.913  22.777  0.00  0.00    +0.007 A 
ATOM     27  C   UNL     1       7.339   5.092  22.318  0.00  0.00    +0.000 A 
ATOM     28  C   UNL     1       7.943   6.317  22.610  0.00  0.00    +0.000 A 
ATOM     29  C   UNL     1       9.120   6.358  23.360  0.00  0.00    +0.000 A 
ATOM     30  C   UNL     1       9.695   5.174  23.822  0.00  0.00    +0.007 A 
ENDBRANCH  24  25
ENDBRANCH  23  24
ENDBRANCH  12  23
TORSDOF 5
ENDMDL
MODEL 4
REMARK VINA RESULT:      -7.9      2.020      3.140
REMARK  Name = 
REMARK  6 active torsions:
REMARK  status: ('A' for Active; 'I' for Inactive)
REMARK    1  A    between atoms: C_1  and  C_2
REMARK    2  A    between atoms: C_9  and  O_12
REMARK    3  A    between atoms: C_10  and  O_11
REMARK    4  A    between atoms: C_19  and  O_21
REMARK    5  A    between atoms: O_21  and  C_22
REMARK    6  A    between atoms: C_22  and  C_23
REMARK                            x       y       z     vdW  Elec       q    Type
REMARK                         _______ _______ _______ _____ _____    ______ ____
ROOT
ATOM      1  C   UNL     1       3.134  -5.962  26.364  0.00  0.00    +0.014 C 
ATOM      2  C   UNL     1       4.285  -5.016  25.953  0.00  0.00    -0.000 C 
ATOM      3  C   UNL     1       4.035  -3.558  26.492  0.00  0.00    +0.149 C 
ATOM      4  C   UNL     1       5.162  -3.266  27.501  0.00  0.00    +0.144 C 
ATOM      5  C   UNL     1       5.734  -4.635  27.849  0.00  0.00    +0.038 C 
ATOM      6  C   UNL     1       5.666  -5.463  26.553  0.00  0.00    +0.004 C 
ATOM      7  C   UNL     1       6.950  -5.488  25.593  0.00  0.00    +0.001 C 
ATOM      8  C   UNL     1       8.307  -5.189  26.288  0.00  0.00    +0.009 C 
ATOM      9  C   UNL     1       9.469  -4.786  25.377  0.00  0.00    +0.036 C 
ATOM     10  C   UNL     1       9.066  -3.773  24.345  0.00  0.00    -0.040 A 
ATOM     11  C   UNL     1       9.871  -2.666  24.007  0.00  0.00    +0.049 A 
ATOM     12  C   UNL     1       9.495  -1.803  22.967  0.00  0.00    +0.121 A 
ATOM     13  C   UNL     1       8.452  -2.162  22.131  0.00  0.00    +0.046 A 
ATOM     14  C   UNL     1       7.676  -3.260  22.454  0.00  0.00    +0.008 A 
ATOM     15  C   UNL     1       7.888  -3.986  23.637  0.00  0.00    -0.041 A 
ATOM     16  C   UNL     1       6.807  -4.930  24.133  0.00  0.00    +0.023 C 
ATOM     17  C   UNL     1       5.467  -4.224  23.918  0.00  0.00    +0.009 C 
ATOM     18  C   UNL     1       4.314  -5.039  24.433  0.00  0.00    +0.010 C 
ENDROOT
BRANCH   3  19
ATOM     19  O   UNL     1       2.743  -3.410  27.084  0.00  0.00    -0.389 OA
ATOM     20  H   UNL     1       2.148  -4.082  26.714  0.00  0.00    +0.210 HD
ENDBRANCH   3  19
BRANCH   4  21
ATOM     21  O   UNL     1       6.129  -2.402  26.915  0.00  0.00    -0.389 OA
ATOM     22  H   UNL     1       6.280  -1.628  27.477  0.00  0.00    +0.210 HD
ENDBRANCH   4  21
BRANCH  12  23
ATOM     23  O   UNL     1      10.195  -0.633  22.816  0.00  0.00    -0.487 OA
BRANCH  23  24
ATOM     24  C   UNL     1       9.750   0.152  21.694  0.00  0.00    +0.264 C 
BRANCH  24  25
ATOM     25  C   UNL     1       9.222   1.486  22.153  0.00  0.00    -0.010 A 
ATOM     26  C   UNL     1       9.932   2.229  23.107  0.00  0.00    +0.007 A 
ATOM     27  C   UNL     1       9.433   3.438  23.579  0.00  0.00    +0.000 A 
ATOM     28  C   UNL     1       8.206   3.912  23.110  0.00  0.00    +0.000 A 
ATOM     29  C   UNL     1       7.483   3.176  22.169  0.00  0.00    +0.000 A 
ATOM     30  C   UNL     1       7.986   1.965  21.694  0.00  0.00    +0.007 A 
ENDBRANCH  24  25
ENDBRANCH  23  24
ENDBRANCH  12  23
TORSDOF 5
ENDMDL
MODEL 5
REMARK VINA RESULT:      -7.9      2.173      8.456
REMARK  Name = 
REMARK  6 active torsions:
REMARK  status: ('A' for Active; 'I' for Inactive)
REMARK    1  A    between atoms: C_1  and  C_2
REMARK    2  A    between atoms: C_9  and  O_12
REMARK    3  A    between atoms: C_10  and  O_11
REMARK    4  A    between atoms: C_19  and  O_21
REMARK    5  A    between atoms: O_21  and  C_22
REMARK    6  A    between atoms: C_22  and  C_23
REMARK                            x       y       z     vdW  Elec       q    Type
REMARK                         _______ _______ _______ _____ _____    ______ ____
ROOT
ATOM      1  C   UNL     1       8.397   4.672  23.486  0.00  0.00    +0.014 C 
ATOM      2  C   UNL     1       8.170   3.151  23.635  0.00  0.00    -0.000 C 
ATOM      3  C   UNL     1       6.658   2.781  23.400  0.00  0.00    +0.149 C 
ATOM      4  C   UNL     1       6.614   1.902  22.136  0.00  0.00    +0.144 C 
ATOM      5  C   UNL     1       7.950   2.148  21.448  0.00  0.00    +0.038 C 
ATOM      6  C   UNL     1       8.982   2.321  22.577  0.00  0.00    +0.004 C 
ATOM      7  C   UNL     1       9.799   1.033  23.071  0.00  0.00    +0.001 C 
ATOM      8  C   UNL     1       9.928  -0.113  22.030  0.00  0.00    +0.009 C 
ATOM      9  C   UNL     1      10.309  -1.492  22.573  0.00  0.00    +0.036 C 
ATOM     10  C   UNL     1       9.533  -1.860  23.805  0.00  0.00    -0.040 A 
ATOM     11  C   UNL     1       9.001  -3.148  24.015  0.00  0.00    +0.049 A 
ATOM     12  C   UNL     1       8.369  -3.468  25.225  0.00  0.00    +0.121 A 
ATOM     13  C   UNL     1       8.461  -2.591  26.292  0.00  0.00    +0.046 A 
ATOM     14  C   UNL     1       9.001  -1.335  26.087  0.00  0.00    +0.008 A 
ATOM     15  C   UNL     1       9.408  -0.910  24.813  0.00  0.00    -0.041 A 
ATOM     16  C   UNL     1       9.640   0.570  24.562  0.00  0.00    +0.023 C 
ATOM     17  C   UNL     1       8.518   1.324  25.280  0.00  0.00    +0.009 C 
ATOM     18  C   UNL     1       8.603   2.806  25.051  0.00  0.00    +0.010 C 
ENDROOT
BRANCH   3  19
ATOM     19  O   UNL     1       5.828   3.937  23.271  0.00  0.00    -0.389 OA
ATOM     20  H   UNL     1       6.164   4.633  23.857  0.00  0.00    +0.210 HD
ENDBRANCH   3  19
BRANCH   4  21
ATOM     21  O   UNL     1       6.426   0.538  22.496  0.00  0.00    -0.389 OA
ATOM     22  H   UNL     1       5.625   0.432  23.029  0.00  0.00    +0.210 HD
ENDBRANCH   4  21
BRANCH  12  23
ATOM     23  O   UNL     1       7.689  -4.658  25.302  0.00  0.00    -0.487 OA
BRANCH  23  24
ATOM     24  C   UNL     1       6.694  -4.808  24.273  0.00  0.00    +0.264 C 
BRANCH  24  25
ATOM     25  C   UNL     1       5.565  -5.686  24.748  0.00  0.00    -0.010 A 
ATOM     26  C   UNL     1       5.412  -5.950  26.116  0.00  0.00    +0.007 A 
ATOM     27  C   UNL     1       4.407  -6.799  26.566  0.00  0.00    +0.000 A 
ATOM     28  C   UNL     1       3.549  -7.406  25.647  0.00  0.00    +0.000 A 
ATOM     29  C   UNL     1       3.699  -7.163  24.280  0.00  0.00    +0.000 A 
ATOM     30  C   UNL     1       4.706  -6.308  23.830  0.00  0.00    +0.007 A 
ENDBRANCH  24  25
ENDBRANCH  23  24
ENDBRANCH  12  23
TORSDOF 5
ENDMDL
MODEL 6
REMARK VINA RESULT:      -7.7      2.247      8.268
REMARK  Name = 
REMARK  6 active torsions:
REMARK  status: ('A' for Active; 'I' for Inactive)
REMARK    1  A    between atoms: C_1  and  C_2
REMARK    2  A    between atoms: C_9  and  O_12
REMARK    3  A    between atoms: C_10  and  O_11
REMARK    4  A    between atoms: C_19  and  O_21
REMARK    5  A    between atoms: O_21  and  C_22
REMARK    6  A    between atoms: C_22  and  C_23
REMARK                            x       y       z     vdW  Elec       q    Type
REMARK                         _______ _______ _______ _____ _____    ______ ____
ROOT
ATOM      1  C   UNL     1       7.397   5.244  24.548  0.00  0.00    +0.014 C 
ATOM      2  C   UNL     1       7.419   3.722  24.287  0.00  0.00    -0.000 C 
ATOM      3  C   UNL     1       5.972   3.182  23.980  0.00  0.00    +0.149 C 
ATOM      4  C   UNL     1       5.995   2.670  22.529  0.00  0.00    +0.144 C 
ATOM      5  C   UNL     1       7.237   3.303  21.915  0.00  0.00    +0.038 C 
ATOM      6  C   UNL     1       8.290   3.343  23.037  0.00  0.00    +0.004 C 
ATOM      7  C   UNL     1       9.323   2.123  23.160  0.00  0.00    +0.001 C 
ATOM      8  C   UNL     1       9.571   1.326  21.849  0.00  0.00    +0.009 C 
ATOM      9  C   UNL     1      10.192  -0.065  22.000  0.00  0.00    +0.036 C 
ATOM     10  C   UNL     1       9.551  -0.864  23.098  0.00  0.00    -0.040 A 
ATOM     11  C   UNL     1       9.239  -2.232  22.963  0.00  0.00    +0.049 A 
ATOM     12  C   UNL     1       8.732  -2.957  24.051  0.00  0.00    +0.121 A 
ATOM     13  C   UNL     1       8.745  -2.386  25.313  0.00  0.00    +0.046 A 
ATOM     14  C   UNL     1       9.071  -1.049  25.443  0.00  0.00    +0.008 A 
ATOM     15  C   UNL     1       9.335  -0.245  24.325  0.00  0.00    -0.041 A 
ATOM     16  C   UNL     1       9.320   1.266  24.475  0.00  0.00    +0.023 C 
ATOM     17  C   UNL     1       8.137   1.611  25.381  0.00  0.00    +0.009 C 
ATOM     18  C   UNL     1       7.977   3.095  25.555  0.00  0.00    +0.010 C 
ENDROOT
BRANCH   3  19
ATOM     19  O   UNL     1       4.966   4.179  24.175  0.00  0.00    -0.389 OA
ATOM     20  H   UNL     1       5.384   5.054  24.164  0.00  0.00    +0.210 HD
ENDBRANCH   3  19
BRANCH   4  21
ATOM     21  O   UNL     1       6.042   1.247  22.514  0.00  0.00    -0.389 OA
ATOM     22  H   UNL     1       5.978   0.913  21.608  0.00  0.00    +0.210 HD
ENDBRANCH   4  21
BRANCH  12  23
ATOM     23  O   UNL     1       8.250  -4.220  23.816  0.00  0.00    -0.487 OA
BRANCH  23  24
ATOM     24  C   UNL     1       6.885  -4.230  23.359  0.00  0.00    +0.264 C 
BRANCH  24  25
ATOM     25  C   UNL     1       6.047  -5.154  24.203  0.00  0.00    -0.010 A 
ATOM     26  C   UNL     1       6.273  -5.239  25.584  0.00  0.00    +0.007 A 
ATOM     27  C   UNL     1       5.544  -6.125  26.369  0.00  0.00    +0.000 A 
ATOM     28  C   UNL     1       4.586  -6.949  25.776  0.00  0.00    +0.000 A 
ATOM     29  C   UNL     1       4.359  -6.884  24.399  0.00  0.00    +0.000 A 
ATOM     30  C   UNL     1       5.089  -5.993  23.613  0.00  0.00    +0.007 A 
ENDBRANCH  24  25
ENDBRANCH  23  24
ENDBRANCH  12  23
TORSDOF 5
ENDMDL
MODEL 7
REMARK VINA RESULT:      -7.7      2.285      8.061
REMARK  Name = 
REMARK  6 active torsions:
REMARK  status: ('A' for Active; 'I' for Inactive)
REMARK    1  A    between atoms: C_1  and  C_2
REMARK    2  A    between atoms: C_9  and  O_12
REMARK    3  A    between atoms: C_10  and  O_11
REMARK    4  A    between atoms: C_19  and  O_21
REMARK    5  A    between atoms: O_21  and  C_22
REMARK    6  A    between atoms: C_22  and  C_23
REMARK                            x       y       z     vdW  Elec       q    Type
REMARK                         _______ _______ _______ _____ _____    ______ ____
ROOT
ATOM      1  C   UNL     1       7.267   5.877  23.770  0.00  0.00    +0.014 C 
ATOM      2  C   UNL     1       7.347   4.336  23.839  0.00  0.00    -0.000 C 
ATOM      3  C   UNL     1       5.953   3.716  24.231  0.00  0.00    +0.149 C 
ATOM      4  C   UNL     1       5.487   2.886  23.021  0.00  0.00    +0.144 C 
ATOM      5  C   UNL     1       6.339   3.384  21.860  0.00  0.00    +0.038 C 
ATOM      6  C   UNL     1       7.725   3.696  22.455  0.00  0.00    +0.004 C 
ATOM      7  C   UNL     1       8.849   2.554  22.417  0.00  0.00    +0.001 C 
ATOM      8  C   UNL     1       8.672   1.483  21.304  0.00  0.00    +0.009 C 
ATOM      9  C   UNL     1       9.444   0.174  21.485  0.00  0.00    +0.036 C 
ATOM     10  C   UNL     1       9.344  -0.364  22.883  0.00  0.00    -0.040 A 
ATOM     11  C   UNL     1       9.147  -1.732  23.162  0.00  0.00    +0.049 A 
ATOM     12  C   UNL     1       9.159  -2.198  24.485  0.00  0.00    +0.121 A 
ATOM     13  C   UNL     1       9.582  -1.354  25.498  0.00  0.00    +0.046 A 
ATOM     14  C   UNL     1       9.793  -0.017  25.217  0.00  0.00    +0.008 A 
ATOM     15  C   UNL     1       9.538   0.515  23.944  0.00  0.00    -0.041 A 
ATOM     16  C   UNL     1       9.424   2.020  23.776  0.00  0.00    +0.023 C 
ATOM     17  C   UNL     1       8.634   2.543  24.978  0.00  0.00    +0.009 C 
ATOM     18  C   UNL     1       8.399   4.024  24.892  0.00  0.00    +0.010 C 
ENDROOT
BRANCH   3  19
ATOM     19  O   UNL     1       4.995   4.714  24.590  0.00  0.00    -0.389 OA
ATOM     20  H   UNL     1       4.103   4.359  24.450  0.00  0.00    +0.210 HD
ENDBRANCH   3  19
BRANCH   4  21
ATOM     21  O   UNL     1       5.672   1.499  23.280  0.00  0.00    -0.389 OA
ATOM     22  H   UNL     1       5.709   1.332  24.233  0.00  0.00    +0.210 HD
ENDBRANCH   4  21
BRANCH  12  23
ATOM     23  O   UNL     1       8.757  -3.489  24.717  0.00  0.00    -0.487 OA
BRANCH  23  24
ATOM     24  C   UNL     1       7.330  -3.623  24.852  0.00  0.00    +0.264 C 
BRANCH  24  25
ATOM     25  C   UNL     1       6.765  -4.461  23.735  0.00  0.00    -0.010 A 
ATOM     26  C   UNL     1       5.378  -4.621  23.613  0.00  0.00    +0.007 A 
ATOM     27  C   UNL     1       4.842  -5.433  22.619  0.00  0.00    +0.000 A 
ATOM     28  C   UNL     1       5.693  -6.107  21.742  0.00  0.00    +0.000 A 
ATOM     29  C   UNL     1       7.078  -5.967  21.860  0.00  0.00    +0.000 A 
ATOM     30  C   UNL     1       7.614  -5.150  22.855  0.00  0.00    +0.007 A 
ENDBRANCH  24  25
ENDBRANCH  23  24
ENDBRANCH  12  23
TORSDOF 5
ENDMDL
MODEL 8
REMARK VINA RESULT:      -7.7      2.133      3.078
REMARK  Name = 
REMARK  6 active torsions:
REMARK  status: ('A' for Active; 'I' for Inactive)
REMARK    1  A    between atoms: C_1  and  C_2
REMARK    2  A    between atoms: C_9  and  O_12
REMARK    3  A    between atoms: C_10  and  O_11
REMARK    4  A    between atoms: C_19  and  O_21
REMARK    5  A    between atoms: O_21  and  C_22
REMARK    6  A    between atoms: C_22  and  C_23
REMARK                            x       y       z     vdW  Elec       q    Type
REMARK                         _______ _______ _______ _____ _____    ______ ____
ROOT
ATOM      1  C   UNL     1       5.296  -6.437  26.133  0.00  0.00    +0.014 C 
ATOM      2  C   UNL     1       6.004  -5.076  25.958  0.00  0.00    -0.000 C 
ATOM      3  C   UNL     1       7.051  -4.833  27.109  0.00  0.00    +0.149 C 
ATOM      4  C   UNL     1       8.436  -4.788  26.439  0.00  0.00    +0.144 C 
ATOM      5  C   UNL     1       8.224  -5.426  25.071  0.00  0.00    +0.038 C 
ATOM      6  C   UNL     1       6.818  -4.994  24.617  0.00  0.00    +0.004 C 
ATOM      7  C   UNL     1       6.676  -3.680  23.709  0.00  0.00    +0.001 C 
ATOM      8  C   UNL     1       7.940  -3.298  22.890  0.00  0.00    +0.009 C 
ATOM      9  C   UNL     1       8.005  -1.863  22.361  0.00  0.00    +0.036 C 
ATOM     10  C   UNL     1       7.607  -0.850  23.396  0.00  0.00    -0.040 A 
ATOM     11  C   UNL     1       8.300   0.364  23.580  0.00  0.00    +0.049 A 
ATOM     12  C   UNL     1       7.830   1.320  24.492  0.00  0.00    +0.121 A 
ATOM     13  C   UNL     1       6.571   1.167  25.048  0.00  0.00    +0.046 A 
ATOM     14  C   UNL     1       5.887  -0.017  24.850  0.00  0.00    +0.008 A 
ATOM     15  C   UNL     1       6.459  -1.087  24.144  0.00  0.00    -0.041 A 
ATOM     16  C   UNL     1       5.845  -2.471  24.264  0.00  0.00    +0.023 C 
ATOM     17  C   UNL     1       5.465  -2.662  25.734  0.00  0.00    +0.009 C 
ATOM     18  C   UNL     1       4.901  -4.030  25.994  0.00  0.00    +0.010 C 
ENDROOT
BRANCH   3  19
ATOM     19  O   UNL     1       6.986  -5.836  28.125  0.00  0.00    -0.389 OA
ATOM     20  H   UNL     1       6.148  -6.317  28.039  0.00  0.00    +0.210 HD
ENDBRANCH   3  19
BRANCH   4  21
ATOM     21  O   UNL     1       8.893  -3.443  26.351  0.00  0.00    -0.389 OA
ATOM     22  H   UNL     1       8.389  -2.872  26.948  0.00  0.00    +0.210 HD
ENDBRANCH   4  21
BRANCH  12  23
ATOM     23  O   UNL     1       8.645   2.384  24.787  0.00  0.00    -0.487 OA
BRANCH  23  24
ATOM     24  C   UNL     1       8.600   3.424  23.794  0.00  0.00    +0.264 C 
BRANCH  24  25
ATOM     25  C   UNL     1       9.865   4.242  23.820  0.00  0.00    -0.010 A 
ATOM     26  C   UNL     1       9.840   5.555  24.310  0.00  0.00    +0.007 A 
ATOM     27  C   UNL     1      10.987   6.341  24.293  0.00  0.00    +0.000 A 
ATOM     28  C   UNL     1      12.174   5.823  23.771  0.00  0.00    +0.000 A 
ATOM     29  C   UNL     1      12.210   4.521  23.268  0.00  0.00    +0.000 A 
ATOM     30  C   UNL     1      11.059   3.733  23.288  0.00  0.00    +0.007 A 
ENDBRANCH  24  25
ENDBRANCH  23  24
ENDBRANCH  12  23
TORSDOF 5
ENDMDL
MODEL 9
REMARK VINA RESULT:      -7.6      1.767      2.686
REMARK  Name = 
REMARK  6 active torsions:
REMARK  status: ('A' for Active; 'I' for Inactive)
REMARK    1  A    between atoms: C_1  and  C_2
REMARK    2  A    between atoms: C_9  and  O_12
REMARK    3  A    between atoms: C_10  and  O_11
REMARK    4  A    between atoms: C_19  and  O_21
REMARK    5  A    between atoms: O_21  and  C_22
REMARK    6  A    between atoms: C_22  and  C_23
REMARK                            x       y       z     vdW  Elec       q    Type
REMARK                         _______ _______ _______ _____ _____    ______ ____
ROOT
ATOM      1  C   UNL     1       7.677  -5.279  25.330  0.00  0.00    +0.014 C 
ATOM      2  C   UNL     1       7.745  -3.801  24.884  0.00  0.00    -0.000 C 
ATOM      3  C   UNL     1       7.172  -3.625  23.428  0.00  0.00    +0.149 C 
ATOM      4  C   UNL     1       5.916  -2.744  23.556  0.00  0.00    +0.144 C 
ATOM      5  C   UNL     1       5.548  -2.808  25.033  0.00  0.00    +0.038 C 
ATOM      6  C   UNL     1       6.882  -2.862  25.800  0.00  0.00    +0.004 C 
ATOM      7  C   UNL     1       7.524  -1.485  26.314  0.00  0.00    +0.001 C 
ATOM      8  C   UNL     1       6.518  -0.320  26.526  0.00  0.00    +0.009 C 
ATOM      9  C   UNL     1       7.110   1.091  26.597  0.00  0.00    +0.036 C 
ATOM     10  C   UNL     1       8.130   1.341  25.525  0.00  0.00    -0.040 A 
ATOM     11  C   UNL     1       8.195   2.548  24.800  0.00  0.00    +0.049 A 
ATOM     12  C   UNL     1       9.228   2.770  23.877  0.00  0.00    +0.121 A 
ATOM     13  C   UNL     1      10.303   1.899  23.839  0.00  0.00    +0.046 A 
ATOM     14  C   UNL     1      10.245   0.725  24.567  0.00  0.00    +0.008 A 
ATOM     15  C   UNL     1       9.101   0.370  25.299  0.00  0.00    -0.041 A 
ATOM     16  C   UNL     1       8.933  -1.065  25.768  0.00  0.00    +0.023 C 
ATOM     17  C   UNL     1       9.396  -1.964  24.620  0.00  0.00    +0.009 C 
ATOM     18  C   UNL     1       9.216  -3.421  24.942  0.00  0.00    +0.010 C 
ENDROOT
BRANCH   3  19
ATOM     19  O   UNL     1       6.881  -4.876  22.802  0.00  0.00    -0.389 OA
ATOM     20  H   UNL     1       6.678  -4.720  21.866  0.00  0.00    +0.210 HD
ENDBRANCH   3  19
BRANCH   4  21
ATOM     21  O   UNL     1       6.202  -1.419  23.121  0.00  0.00    -0.389 OA
ATOM     22  H   UNL     1       5.392  -0.968  22.845  0.00  0.00    +0.210 HD
ENDBRANCH   4  21
BRANCH  12  23
ATOM     23  O   UNL     1       9.130   3.862  23.052  0.00  0.00    -0.487 OA
BRANCH  23  24
ATOM     24  C   UNL     1       8.786   5.071  23.751  0.00  0.00    +0.264 C 
BRANCH  24  25
ATOM     25  C   UNL     1      10.011   5.703  24.358  0.00  0.00    -0.010 A 
ATOM     26  C   UNL     1       9.896   6.475  25.524  0.00  0.00    +0.007 A 
ATOM     27  C   UNL     1      11.007   7.107  26.068  0.00  0.00    +0.000 A 
ATOM     28  C   UNL     1      12.250   6.986  25.442  0.00  0.00    +0.000 A 
ATOM     29  C   UNL     1      12.376   6.232  24.274  0.00  0.00    +0.000 A 
ATOM     30  C   UNL     1      11.260   5.595  23.730  0.00  0.00    +0.007 A 
ENDBRANCH  24  25
ENDBRANCH  23  24
ENDBRANCH  12  23
TORSDOF 5
ENDMDL
