MODEL 1
REMARK VINA RESULT:      -6.2      0.000      0.000
REMARK  Name = 
REMARK  12 active torsions:
REMARK  status: ('A' for Active; 'I' for Inactive)
REMARK    1  A    between atoms: C_1  and  C_2
REMARK    2  A    between atoms: C_2  and  C_3
REMARK    3  A    between atoms: C_3  and  C_4
REMARK    4  A    between atoms: C_3  and  C_6
REMARK    5  A    between atoms: C_4  and  C_5
REMARK    6  A    between atoms: C_6  and  C_7
REMARK    7  A    between atoms: C_6  and  N_22
REMARK    8  A    between atoms: C_9  and  N_18
REMARK    9  A    between atoms: C_11  and  C_15
REMARK   10  A    between atoms: C_13  and  O_14
REMARK   11  A    between atoms: C_15  and  O_17
REMARK   12  A    between atoms: C_23  and  C_25
REMARK                            x       y       z     vdW  Elec       q    Type
REMARK                         _______ _______ _______ _____ _____    ______ ____
ROOT
ATOM      1  C   UNL     1       7.152  -2.943  24.292  0.00  0.00    +0.079 C 
ATOM      2  C   UNL     1       7.234  -2.372  22.860  0.00  0.00    +0.137 C 
ATOM      3  C   UNL     1       8.644  -1.811  22.647  0.00  0.00    +0.130 C 
ATOM      4  C   UNL     1       9.329  -1.899  24.011  0.00  0.00    +0.062 C 
ATOM      5  C   UNL     1       8.609  -2.992  24.789  0.00  0.00    +0.196 C 
ENDROOT
BRANCH   5   6
ATOM      6  N   UNL     1       9.259  -4.287  24.563  0.00  0.00    -0.110 NA
ATOM      7  C   UNL     1       9.448  -5.055  25.583  0.00  0.00    +0.377 C 
ATOM      8  N   UNL     1       9.937  -6.303  25.397  0.00  0.00    -0.289 N 
ATOM      9  H   UNL     1       9.541  -7.029  25.977  0.00  0.00    +0.255 HD
ATOM     10  H   UNL     1       9.958  -6.572  24.421  0.00  0.00    +0.255 HD
ATOM     11  N   UNL     1       9.213  -4.837  26.897  0.00  0.00    -0.289 N 
ATOM     12  H   UNL     1       8.988  -5.629  27.483  0.00  0.00    +0.255 HD
ATOM     13  H   UNL     1       8.749  -3.987  27.183  0.00  0.00    +0.255 HD
ENDBRANCH   5   6
BRANCH   2  14
ATOM     14  O   UNL     1       6.215  -1.394  22.647  0.00  0.00    -0.391 OA
ATOM     15  H   UNL     1       5.890  -1.072  23.512  0.00  0.00    +0.210 HD
ENDBRANCH   2  14
BRANCH   3  16
ATOM     16  C   UNL     1       8.769  -0.409  22.074  0.00  0.00    +0.310 C 
ATOM     17  O   UNL     1       8.295   0.581  22.615  0.00  0.00    -0.251 OA
BRANCH  16  18
ATOM     18  O   UNL     1       9.494  -0.303  20.941  0.00  0.00    -0.480 OA
ATOM     19  H   UNL     1       9.307   0.533  20.449  0.00  0.00    +0.295 HD
ENDBRANCH  16  18
ENDBRANCH   3  16
BRANCH   1  20
ATOM     20  C   UNL     1       6.247  -4.213  24.365  0.00  0.00    +0.085 C 
BRANCH  20  21
ATOM     21  N   UNL     1       5.445  -4.216  25.589  0.00  0.00    -0.312 N 
ATOM     22  H   UNL     1       4.782  -3.451  25.694  0.00  0.00    +0.149 HD
ATOM     23  C   UNL     1       5.572  -5.180  26.562  0.00  0.00    +0.210 C 
ATOM     24  C   UNL     1       4.745  -4.940  27.796  0.00  0.00    +0.109 C 
ATOM     25  O   UNL     1       6.335  -6.141  26.474  0.00  0.00    -0.276 OA
ENDBRANCH  20  21
BRANCH  20  26
ATOM     26  C   UNL     1       5.365  -4.560  23.100  0.00  0.00    +0.009 C 
BRANCH  26  28
ATOM     27  C   UNL     1       7.234  -5.974  21.861  0.00  0.00    +0.004 C 
ATOM     28  C   UNL     1       5.830  -5.861  22.423  0.00  0.00    +0.002 C 
ENDBRANCH  26  28
BRANCH  26  29
ATOM     29  C   UNL     1       3.873  -4.532  23.502  0.00  0.00    +0.002 C 
ATOM     30  C   UNL     1       3.115  -5.837  23.326  0.00  0.00    +0.004 C 
ENDBRANCH  26  29
ENDBRANCH  20  26
ENDBRANCH   1  20
TORSDOF 9
ENDMDL
MODEL 2
REMARK VINA RESULT:      -6.1      1.686      2.938
REMARK  Name = 
REMARK  12 active torsions:
REMARK  status: ('A' for Active; 'I' for Inactive)
REMARK    1  A    between atoms: C_1  and  C_2
REMARK    2  A    between atoms: C_2  and  C_3
REMARK    3  A    between atoms: C_3  and  C_4
REMARK    4  A    between atoms: C_3  and  C_6
REMARK    5  A    between atoms: C_4  and  C_5
REMARK    6  A    between atoms: C_6  and  C_7
REMARK    7  A    between atoms: C_6  and  N_22
REMARK    8  A    between atoms: C_9  and  N_18
REMARK    9  A    between atoms: C_11  and  C_15
REMARK   10  A    between atoms: C_13  and  O_14
REMARK   11  A    between atoms: C_15  and  O_17
REMARK   12  A    between atoms: C_23  and  C_25
REMARK                            x       y       z     vdW  Elec       q    Type
REMARK                         _______ _______ _______ _____ _____    ______ ____
ROOT
ATOM      1  C   UNL     1       7.468  -2.273  24.271  0.00  0.00    +0.079 C 
ATOM      2  C   UNL     1       7.686  -1.635  22.882  0.00  0.00    +0.137 C 
ATOM      3  C   UNL     1       9.177  -1.312  22.731  0.00  0.00    +0.130 C 
ATOM      4  C   UNL     1       9.798  -1.603  24.098  0.00  0.00    +0.062 C 
ATOM      5  C   UNL     1       8.880  -2.603  24.788  0.00  0.00    +0.196 C 
ENDROOT
BRANCH   5   6
ATOM      6  N   UNL     1       9.306  -3.974  24.487  0.00  0.00    -0.110 NA
ATOM      7  C   UNL     1       9.476  -4.786  25.475  0.00  0.00    +0.377 C 
ATOM      8  N   UNL     1       9.754  -6.087  25.231  0.00  0.00    -0.289 N 
ATOM      9  H   UNL     1       9.312  -6.761  25.840  0.00  0.00    +0.255 HD
ATOM     10  H   UNL     1       9.641  -6.333  24.255  0.00  0.00    +0.255 HD
ATOM     11  N   UNL     1       9.404  -4.567  26.809  0.00  0.00    -0.289 N 
ATOM     12  H   UNL     1       9.122  -5.330  27.406  0.00  0.00    +0.255 HD
ATOM     13  H   UNL     1       9.101  -3.664  27.147  0.00  0.00    +0.255 HD
ENDBRANCH   5   6
BRANCH   2  14
ATOM     14  O   UNL     1       6.855  -0.484  22.718  0.00  0.00    -0.391 OA
ATOM     15  H   UNL     1       6.176  -0.473  23.421  0.00  0.00    +0.210 HD
ENDBRANCH   2  14
BRANCH   3  16
ATOM     16  C   UNL     1       9.555   0.080  22.255  0.00  0.00    +0.310 C 
ATOM     17  O   UNL     1      10.232   0.854  22.920  0.00  0.00    -0.251 OA
BRANCH  16  18
ATOM     18  O   UNL     1       9.145   0.405  21.012  0.00  0.00    -0.480 OA
ATOM     19  H   UNL     1       8.204   0.154  20.846  0.00  0.00    +0.295 HD
ENDBRANCH  16  18
ENDBRANCH   3  16
BRANCH   1  20
ATOM     20  C   UNL     1       6.357  -3.370  24.243  0.00  0.00    +0.085 C 
BRANCH  20  21
ATOM     21  N   UNL     1       6.698  -4.438  23.303  0.00  0.00    -0.312 N 
ATOM     22  H   UNL     1       7.463  -5.050  23.577  0.00  0.00    +0.149 HD
ATOM     23  C   UNL     1       6.044  -4.616  22.106  0.00  0.00    +0.210 C 
ATOM     24  C   UNL     1       6.621  -5.694  21.229  0.00  0.00    +0.109 C 
ATOM     25  O   UNL     1       5.093  -3.926  21.739  0.00  0.00    -0.276 OA
ENDBRANCH  20  21
BRANCH  20  26
ATOM     26  C   UNL     1       5.869  -3.957  25.627  0.00  0.00    +0.009 C 
BRANCH  26  28
ATOM     27  C   UNL     1       3.327  -3.532  25.005  0.00  0.00    +0.004 C 
ATOM     28  C   UNL     1       4.468  -3.442  26.000  0.00  0.00    +0.002 C 
ENDBRANCH  26  28
BRANCH  26  29
ATOM     29  C   UNL     1       6.012  -5.495  25.601  0.00  0.00    +0.002 C 
ATOM     30  C   UNL     1       5.301  -6.245  26.714  0.00  0.00    +0.004 C 
ENDBRANCH  26  29
ENDBRANCH  20  26
ENDBRANCH   1  20
TORSDOF 9
ENDMDL
MODEL 3
REMARK VINA RESULT:      -6.1      2.242      5.229
REMARK  Name = 
REMARK  12 active torsions:
REMARK  status: ('A' for Active; 'I' for Inactive)
REMARK    1  A    between atoms: C_1  and  C_2
REMARK    2  A    between atoms: C_2  and  C_3
REMARK    3  A    between atoms: C_3  and  C_4
REMARK    4  A    between atoms: C_3  and  C_6
REMARK    5  A    between atoms: C_4  and  C_5
REMARK    6  A    between atoms: C_6  and  C_7
REMARK    7  A    between atoms: C_6  and  N_22
REMARK    8  A    between atoms: C_9  and  N_18
REMARK    9  A    between atoms: C_11  and  C_15
REMARK   10  A    between atoms: C_13  and  O_14
REMARK   11  A    between atoms: C_15  and  O_17
REMARK   12  A    between atoms: C_23  and  C_25
REMARK                            x       y       z     vdW  Elec       q    Type
REMARK                         _______ _______ _______ _____ _____    ______ ____
ROOT
ATOM      1  C   UNL     1       7.557  -2.948  22.908  0.00  0.00    +0.079 C 
ATOM      2  C   UNL     1       6.028  -3.125  23.028  0.00  0.00    +0.137 C 
ATOM      3  C   UNL     1       5.746  -4.557  23.496  0.00  0.00    +0.130 C 
ATOM      4  C   UNL     1       7.101  -5.265  23.482  0.00  0.00    +0.062 C 
ATOM      5  C   UNL     1       8.160  -4.179  23.609  0.00  0.00    +0.196 C 
ENDROOT
BRANCH   5   6
ATOM      6  N   UNL     1       8.482  -3.947  25.021  0.00  0.00    -0.110 NA
ATOM      7  C   UNL     1       9.240  -4.804  25.617  0.00  0.00    +0.377 C 
ATOM      8  N   UNL     1       9.653  -4.564  26.883  0.00  0.00    -0.289 N 
ATOM      9  H   UNL     1      10.605  -4.824  27.100  0.00  0.00    +0.255 HD
ATOM     10  H   UNL     1       9.444  -3.622  27.189  0.00  0.00    +0.255 HD
ATOM     11  N   UNL     1       9.753  -5.976  25.174  0.00  0.00    -0.289 N 
ATOM     12  H   UNL     1      10.635  -6.288  25.553  0.00  0.00    +0.255 HD
ATOM     13  H   UNL     1       9.618  -6.242  24.209  0.00  0.00    +0.255 HD
ENDBRANCH   5   6
BRANCH   2  14
ATOM     14  O   UNL     1       5.384  -2.814  21.791  0.00  0.00    -0.391 OA
ATOM     15  H   UNL     1       5.545  -1.875  21.570  0.00  0.00    +0.210 HD
ENDBRANCH   2  14
BRANCH   3  16
ATOM     16  C   UNL     1       4.711  -5.362  22.728  0.00  0.00    +0.310 C 
ATOM     17  O   UNL     1       3.511  -5.129  22.776  0.00  0.00    -0.251 OA
BRANCH  16  18
ATOM     18  O   UNL     1       5.200  -6.333  21.928  0.00  0.00    -0.480 OA
ATOM     19  H   UNL     1       4.495  -6.935  21.589  0.00  0.00    +0.295 HD
ENDBRANCH  16  18
ENDBRANCH   3  16
BRANCH   1  20
ATOM     20  C   UNL     1       8.013  -1.508  23.303  0.00  0.00    +0.085 C 
BRANCH  20  21
ATOM     21  N   UNL     1       7.470  -1.126  24.607  0.00  0.00    -0.312 N 
ATOM     22  H   UNL     1       7.782  -1.677  25.403  0.00  0.00    +0.149 HD
ATOM     23  C   UNL     1       6.578  -0.091  24.770  0.00  0.00    +0.210 C 
ATOM     24  C   UNL     1       6.048   0.067  26.169  0.00  0.00    +0.109 C 
ATOM     25  O   UNL     1       6.191   0.627  23.849  0.00  0.00    -0.276 OA
ENDBRANCH  20  21
BRANCH  20  26
ATOM     26  C   UNL     1       9.553  -1.170  23.201  0.00  0.00    +0.009 C 
BRANCH  26  28
ATOM     27  C   UNL     1       8.846   0.778  21.548  0.00  0.00    +0.004 C 
ATOM     28  C   UNL     1       9.857  -0.258  22.000  0.00  0.00    +0.002 C 
ENDBRANCH  26  28
BRANCH  26  29
ATOM     29  C   UNL     1      10.045  -0.637  24.565  0.00  0.00    +0.002 C 
ATOM     30  C   UNL     1      10.863   0.642  24.520  0.00  0.00    +0.004 C 
ENDBRANCH  26  29
ENDBRANCH  20  26
ENDBRANCH   1  20
TORSDOF 9
ENDMDL
MODEL 4
REMARK VINA RESULT:      -5.5      2.484      5.289
REMARK  Name = 
REMARK  12 active torsions:
REMARK  status: ('A' for Active; 'I' for Inactive)
REMARK    1  A    between atoms: C_1  and  C_2
REMARK    2  A    between atoms: C_2  and  C_3
REMARK    3  A    between atoms: C_3  and  C_4
REMARK    4  A    between atoms: C_3  and  C_6
REMARK    5  A    between atoms: C_4  and  C_5
REMARK    6  A    between atoms: C_6  and  C_7
REMARK    7  A    between atoms: C_6  and  N_22
REMARK    8  A    between atoms: C_9  and  N_18
REMARK    9  A    between atoms: C_11  and  C_15
REMARK   10  A    between atoms: C_13  and  O_14
REMARK   11  A    between atoms: C_15  and  O_17
REMARK   12  A    between atoms: C_23  and  C_25
REMARK                            x       y       z     vdW  Elec       q    Type
REMARK                         _______ _______ _______ _____ _____    ______ ____
ROOT
ATOM      1  C   UNL     1       7.445  -2.794  23.135  0.00  0.00    +0.079 C 
ATOM      2  C   UNL     1       5.989  -3.290  22.995  0.00  0.00    +0.137 C 
ATOM      3  C   UNL     1       5.984  -4.815  23.149  0.00  0.00    +0.130 C 
ATOM      4  C   UNL     1       7.456  -5.224  23.207  0.00  0.00    +0.062 C 
ATOM      5  C   UNL     1       8.228  -4.001  23.683  0.00  0.00    +0.196 C 
ENDROOT
BRANCH   5   6
ATOM      6  N   UNL     1       8.339  -4.010  25.146  0.00  0.00    -0.110 NA
ATOM      7  C   UNL     1       9.154  -4.852  25.685  0.00  0.00    +0.377 C 
ATOM      8  N   UNL     1       9.370  -4.811  27.020  0.00  0.00    -0.289 N 
ATOM      9  H   UNL     1      10.320  -4.972  27.325  0.00  0.00    +0.255 HD
ATOM     10  H   UNL     1       8.973  -3.987  27.454  0.00  0.00    +0.255 HD
ATOM     11  N   UNL     1       9.903  -5.829  25.122  0.00  0.00    -0.289 N 
ATOM     12  H   UNL     1      10.774  -6.082  25.565  0.00  0.00    +0.255 HD
ATOM     13  H   UNL     1       9.928  -5.915  24.116  0.00  0.00    +0.255 HD
ENDBRANCH   5   6
BRANCH   2  14
ATOM     14  O   UNL     1       5.427  -2.861  21.753  0.00  0.00    -0.391 OA
ATOM     15  H   UNL     1       6.146  -2.587  21.150  0.00  0.00    +0.210 HD
ENDBRANCH   2  14
BRANCH   3  16
ATOM     16  C   UNL     1       5.241  -5.630  22.103  0.00  0.00    +0.310 C 
ATOM     17  O   UNL     1       5.681  -5.839  20.981  0.00  0.00    -0.251 OA
BRANCH  16  18
ATOM     18  O   UNL     1       4.071  -6.170  22.504  0.00  0.00    -0.480 OA
ATOM     19  H   UNL     1       4.180  -6.780  23.273  0.00  0.00    +0.295 HD
ENDBRANCH  16  18
ENDBRANCH   3  16
BRANCH   1  20
ATOM     20  C   UNL     1       7.524  -1.407  23.848  0.00  0.00    +0.085 C 
BRANCH  20  21
ATOM     21  N   UNL     1       8.052  -0.384  22.945  0.00  0.00    -0.312 N 
ATOM     22  H   UNL     1       7.380   0.053  22.318  0.00  0.00    +0.149 HD
ATOM     23  C   UNL     1       9.379  -0.024  22.920  0.00  0.00    +0.210 C 
ATOM     24  C   UNL     1       9.743   0.960  21.841  0.00  0.00    +0.109 C 
ATOM     25  O   UNL     1      10.228  -0.496  23.675  0.00  0.00    -0.276 OA
ENDBRANCH  20  21
BRANCH  20  26
ATOM     26  C   UNL     1       6.236  -0.896  24.606  0.00  0.00    +0.009 C 
BRANCH  26  28
ATOM     27  C   UNL     1       5.359  -2.398  26.607  0.00  0.00    +0.004 C 
ATOM     28  C   UNL     1       6.258  -1.290  26.093  0.00  0.00    +0.002 C 
ENDBRANCH  26  28
BRANCH  26  29
ATOM     29  C   UNL     1       6.057   0.615  24.335  0.00  0.00    +0.002 C 
ATOM     30  C   UNL     1       6.373   1.539  25.499  0.00  0.00    +0.004 C 
ENDBRANCH  26  29
ENDBRANCH  20  26
ENDBRANCH   1  20
TORSDOF 9
ENDMDL
MODEL 5
REMARK VINA RESULT:      -5.3      3.464      6.557
REMARK  Name = 
REMARK  12 active torsions:
REMARK  status: ('A' for Active; 'I' for Inactive)
REMARK    1  A    between atoms: C_1  and  C_2
REMARK    2  A    between atoms: C_2  and  C_3
REMARK    3  A    between atoms: C_3  and  C_4
REMARK    4  A    between atoms: C_3  and  C_6
REMARK    5  A    between atoms: C_4  and  C_5
REMARK    6  A    between atoms: C_6  and  C_7
REMARK    7  A    between atoms: C_6  and  N_22
REMARK    8  A    between atoms: C_9  and  N_18
REMARK    9  A    between atoms: C_11  and  C_15
REMARK   10  A    between atoms: C_13  and  O_14
REMARK   11  A    between atoms: C_15  and  O_17
REMARK   12  A    between atoms: C_23  and  C_25
REMARK                            x       y       z     vdW  Elec       q    Type
REMARK                         _______ _______ _______ _____ _____    ______ ____
ROOT
ATOM      1  C   UNL     1       8.909  -1.269  25.280  0.00  0.00    +0.079 C 
ATOM      2  C   UNL     1       8.886  -2.500  24.348  0.00  0.00    +0.137 C 
ATOM      3  C   UNL     1       8.061  -3.599  25.025  0.00  0.00    +0.130 C 
ATOM      4  C   UNL     1       7.748  -3.071  26.426  0.00  0.00    +0.062 C 
ATOM      5  C   UNL     1       7.835  -1.553  26.346  0.00  0.00    +0.196 C 
ENDROOT
BRANCH   5   6
ATOM      6  N   UNL     1       6.523  -0.986  26.018  0.00  0.00    -0.110 NA
ATOM      7  C   UNL     1       5.971  -0.201  26.881  0.00  0.00    +0.377 C 
ATOM      8  N   UNL     1       4.817   0.432  26.566  0.00  0.00    -0.289 N 
ATOM      9  H   UNL     1       4.729   1.385  26.887  0.00  0.00    +0.255 HD
ATOM     10  H   UNL     1       4.580   0.344  25.586  0.00  0.00    +0.255 HD
ATOM     11  N   UNL     1       6.367   0.146  28.128  0.00  0.00    -0.289 N 
ATOM     12  H   UNL     1       6.103   1.055  28.480  0.00  0.00    +0.255 HD
ATOM     13  H   UNL     1       7.267  -0.166  28.466  0.00  0.00    +0.255 HD
ENDBRANCH   5   6
BRANCH   2  14
ATOM     14  O   UNL     1      10.216  -2.923  24.037  0.00  0.00    -0.391 OA
ATOM     15  H   UNL     1      10.362  -2.847  23.073  0.00  0.00    +0.210 HD
ENDBRANCH   2  14
BRANCH   3  16
ATOM     16  C   UNL     1       8.662  -4.993  25.100  0.00  0.00    +0.310 C 
ATOM     17  O   UNL     1       9.062  -5.603  24.117  0.00  0.00    -0.251 OA
BRANCH  16  18
ATOM     18  O   UNL     1       8.787  -5.511  26.339  0.00  0.00    -0.480 OA
ATOM     19  H   UNL     1       9.218  -6.400  26.336  0.00  0.00    +0.295 HD
ENDBRANCH  16  18
ENDBRANCH   3  16
BRANCH   1  20
ATOM     20  C   UNL     1       8.897   0.071  24.479  0.00  0.00    +0.085 C 
BRANCH  20  21
ATOM     21  N   UNL     1       8.611   1.205  25.359  0.00  0.00    -0.312 N 
ATOM     22  H   UNL     1       9.106   1.220  26.248  0.00  0.00    +0.149 HD
ATOM     23  C   UNL     1       7.720   2.199  25.029  0.00  0.00    +0.210 C 
ATOM     24  C   UNL     1       7.476   3.211  26.116  0.00  0.00    +0.109 C 
ATOM     25  O   UNL     1       7.118   2.247  23.957  0.00  0.00    -0.276 OA
ENDBRANCH  20  21
BRANCH  20  26
ATOM     26  C   UNL     1      10.127   0.374  23.534  0.00  0.00    +0.009 C 
BRANCH  26  28
ATOM     27  C   UNL     1       9.313  -0.664  21.234  0.00  0.00    +0.004 C 
ATOM     28  C   UNL     1       9.689   0.545  22.069  0.00  0.00    +0.002 C 
ENDBRANCH  26  28
BRANCH  26  29
ATOM     29  C   UNL     1      10.932   1.558  24.116  0.00  0.00    +0.002 C 
ATOM     30  C   UNL     1      10.890   2.845  23.311  0.00  0.00    +0.004 C 
ENDBRANCH  26  29
ENDBRANCH  20  26
ENDBRANCH   1  20
TORSDOF 9
ENDMDL
MODEL 6
REMARK VINA RESULT:      -5.3      2.936      5.679
REMARK  Name = 
REMARK  12 active torsions:
REMARK  status: ('A' for Active; 'I' for Inactive)
REMARK    1  A    between atoms: C_1  and  C_2
REMARK    2  A    between atoms: C_2  and  C_3
REMARK    3  A    between atoms: C_3  and  C_4
REMARK    4  A    between atoms: C_3  and  C_6
REMARK    5  A    between atoms: C_4  and  C_5
REMARK    6  A    between atoms: C_6  and  C_7
REMARK    7  A    between atoms: C_6  and  N_22
REMARK    8  A    between atoms: C_9  and  N_18
REMARK    9  A    between atoms: C_11  and  C_15
REMARK   10  A    between atoms: C_13  and  O_14
REMARK   11  A    between atoms: C_15  and  O_17
REMARK   12  A    between atoms: C_23  and  C_25
REMARK                            x       y       z     vdW  Elec       q    Type
REMARK                         _______ _______ _______ _____ _____    ______ ____
ROOT
ATOM      1  C   UNL     1       6.307  -2.129  23.290  0.00  0.00    +0.079 C 
ATOM      2  C   UNL     1       5.795  -3.346  24.090  0.00  0.00    +0.137 C 
ATOM      3  C   UNL     1       6.262  -4.620  23.377  0.00  0.00    +0.130 C 
ATOM      4  C   UNL     1       6.900  -4.146  22.070  0.00  0.00    +0.062 C 
ATOM      5  C   UNL     1       7.333  -2.704  22.297  0.00  0.00    +0.196 C 
ENDROOT
BRANCH   5   6
ATOM      6  N   UNL     1       8.713  -2.662  22.792  0.00  0.00    -0.110 NA
ATOM      7  C   UNL     1       9.520  -1.806  22.262  0.00  0.00    +0.377 C 
ATOM      8  N   UNL     1      10.764  -1.657  22.771  0.00  0.00    -0.289 N 
ATOM      9  H   UNL     1      11.121  -0.713  22.812  0.00  0.00    +0.255 HD
ATOM     10  H   UNL     1      10.886  -2.141  23.652  0.00  0.00    +0.255 HD
ATOM     11  N   UNL     1       9.335  -0.953  21.227  0.00  0.00    -0.289 N 
ATOM     12  H   UNL     1       9.852  -0.086  21.222  0.00  0.00    +0.255 HD
ATOM     13  H   UNL     1       8.419  -0.874  20.809  0.00  0.00    +0.255 HD
ENDBRANCH   5   6
BRANCH   2  14
ATOM     14  O   UNL     1       4.375  -3.290  24.241  0.00  0.00    -0.391 OA
ATOM     15  H   UNL     1       4.156  -3.099  25.175  0.00  0.00    +0.210 HD
ENDBRANCH   2  14
BRANCH   3  16
ATOM     16  C   UNL     1       5.229  -5.701  23.109  0.00  0.00    +0.310 C 
ATOM     17  O   UNL     1       4.578  -6.239  23.994  0.00  0.00    -0.251 OA
BRANCH  16  18
ATOM     18  O   UNL     1       5.022  -6.005  21.811  0.00  0.00    -0.480 OA
ATOM     19  H   UNL     1       5.018  -5.205  21.231  0.00  0.00    +0.295 HD
ENDBRANCH  16  18
ENDBRANCH   3  16
BRANCH   1  20
ATOM     20  C   UNL     1       6.689  -0.935  24.222  0.00  0.00    +0.085 C 
BRANCH  20  21
ATOM     21  N   UNL     1       6.063   0.306  23.767  0.00  0.00    -0.312 N 
ATOM     22  H   UNL     1       5.068   0.405  23.959  0.00  0.00    +0.149 HD
ATOM     23  C   UNL     1       6.756   1.293  23.105  0.00  0.00    +0.210 C 
ATOM     24  C   UNL     1       5.909   2.437  22.617  0.00  0.00    +0.109 C 
ATOM     25  O   UNL     1       7.964   1.240  22.875  0.00  0.00    -0.276 OA
ENDBRANCH  20  21
BRANCH  20  26
ATOM     26  C   UNL     1       6.509  -1.133  25.780  0.00  0.00    +0.009 C 
BRANCH  26  28
ATOM     27  C   UNL     1       9.079  -0.495  25.908  0.00  0.00    +0.004 C 
ATOM     28  C   UNL     1       7.863  -1.175  26.508  0.00  0.00    +0.002 C 
ENDBRANCH  26  28
BRANCH  26  29
ATOM     29  C   UNL     1       5.516  -0.074  26.311  0.00  0.00    +0.002 C 
ATOM     30  C   UNL     1       4.215  -0.613  26.881  0.00  0.00    +0.004 C 
ENDBRANCH  26  29
ENDBRANCH  20  26
ENDBRANCH   1  20
TORSDOF 9
ENDMDL
MODEL 7
REMARK VINA RESULT:      -5.3      2.201      3.516
REMARK  Name = 
REMARK  12 active torsions:
REMARK  status: ('A' for Active; 'I' for Inactive)
REMARK    1  A    between atoms: C_1  and  C_2
REMARK    2  A    between atoms: C_2  and  C_3
REMARK    3  A    between atoms: C_3  and  C_4
REMARK    4  A    between atoms: C_3  and  C_6
REMARK    5  A    between atoms: C_4  and  C_5
REMARK    6  A    between atoms: C_6  and  C_7
REMARK    7  A    between atoms: C_6  and  N_22
REMARK    8  A    between atoms: C_9  and  N_18
REMARK    9  A    between atoms: C_11  and  C_15
REMARK   10  A    between atoms: C_13  and  O_14
REMARK   11  A    between atoms: C_15  and  O_17
REMARK   12  A    between atoms: C_23  and  C_25
REMARK                            x       y       z     vdW  Elec       q    Type
REMARK                         _______ _______ _______ _____ _____    ______ ____
ROOT
ATOM      1  C   UNL     1       7.737  -2.033  22.775  0.00  0.00    +0.079 C 
ATOM      2  C   UNL     1       9.086  -1.339  22.485  0.00  0.00    +0.137 C 
ATOM      3  C   UNL     1       8.978   0.123  22.930  0.00  0.00    +0.130 C 
ATOM      4  C   UNL     1       7.513   0.325  23.320  0.00  0.00    +0.062 C 
ATOM      5  C   UNL     1       6.965  -1.051  23.675  0.00  0.00    +0.196 C 
ENDROOT
BRANCH   5   6
ATOM      6  N   UNL     1       7.140  -1.311  25.108  0.00  0.00    -0.110 NA
ATOM      7  C   UNL     1       6.079  -1.427  25.835  0.00  0.00    +0.377 C 
ATOM      8  N   UNL     1       6.197  -1.782  27.135  0.00  0.00    -0.289 N 
ATOM      9  H   UNL     1       5.496  -2.417  27.490  0.00  0.00    +0.255 HD
ATOM     10  H   UNL     1       7.132  -2.087  27.373  0.00  0.00    +0.255 HD
ATOM     11  N   UNL     1       4.775  -1.265  25.512  0.00  0.00    -0.289 N 
ATOM     12  H   UNL     1       4.085  -1.799  26.019  0.00  0.00    +0.255 HD
ATOM     13  H   UNL     1       4.521  -1.099  24.548  0.00  0.00    +0.255 HD
ENDBRANCH   5   6
BRANCH   2  14
ATOM     14  O   UNL     1       9.434  -1.470  21.105  0.00  0.00    -0.391 OA
ATOM     15  H   UNL     1      10.180  -0.870  20.902  0.00  0.00    +0.210 HD
ENDBRANCH   2  14
BRANCH   3  16
ATOM     16  C   UNL     1       9.425   1.196  21.952  0.00  0.00    +0.310 C 
ATOM     17  O   UNL     1      10.415   1.894  22.130  0.00  0.00    -0.251 OA
BRANCH  16  18
ATOM     18  O   UNL     1       8.691   1.303  20.825  0.00  0.00    -0.480 OA
ATOM     19  H   UNL     1       9.027   0.725  20.098  0.00  0.00    +0.295 HD
ENDBRANCH  16  18
ENDBRANCH   3  16
BRANCH   1  20
ATOM     20  C   UNL     1       7.926  -3.522  23.207  0.00  0.00    +0.085 C 
BRANCH  20  21
ATOM     21  N   UNL     1       8.352  -3.613  24.603  0.00  0.00    -0.312 N 
ATOM     22  H   UNL     1       8.074  -2.844  25.209  0.00  0.00    +0.149 HD
ATOM     23  C   UNL     1       9.095  -4.664  25.090  0.00  0.00    +0.210 C 
ATOM     24  C   UNL     1       9.532  -4.514  26.523  0.00  0.00    +0.109 C 
ATOM     25  O   UNL     1       9.431  -5.634  24.412  0.00  0.00    -0.276 OA
ENDBRANCH  20  21
BRANCH  20  26
ATOM     26  C   UNL     1       6.750  -4.532  22.897  0.00  0.00    +0.009 C 
BRANCH  26  28
ATOM     27  C   UNL     1       4.178  -4.163  23.422  0.00  0.00    +0.004 C 
ATOM     28  C   UNL     1       5.424  -3.797  22.638  0.00  0.00    +0.002 C 
ENDBRANCH  26  28
BRANCH  26  29
ATOM     29  C   UNL     1       7.193  -5.492  21.770  0.00  0.00    +0.002 C 
ATOM     30  C   UNL     1       6.141  -5.816  20.724  0.00  0.00    +0.004 C 
ENDBRANCH  26  29
ENDBRANCH  20  26
ENDBRANCH   1  20
TORSDOF 9
ENDMDL
MODEL 8
REMARK VINA RESULT:      -5.3      2.905      5.855
REMARK  Name = 
REMARK  12 active torsions:
REMARK  status: ('A' for Active; 'I' for Inactive)
REMARK    1  A    between atoms: C_1  and  C_2
REMARK    2  A    between atoms: C_2  and  C_3
REMARK    3  A    between atoms: C_3  and  C_4
REMARK    4  A    between atoms: C_3  and  C_6
REMARK    5  A    between atoms: C_4  and  C_5
REMARK    6  A    between atoms: C_6  and  C_7
REMARK    7  A    between atoms: C_6  and  N_22
REMARK    8  A    between atoms: C_9  and  N_18
REMARK    9  A    between atoms: C_11  and  C_15
REMARK   10  A    between atoms: C_13  and  O_14
REMARK   11  A    between atoms: C_15  and  O_17
REMARK   12  A    between atoms: C_23  and  C_25
REMARK                            x       y       z     vdW  Elec       q    Type
REMARK                         _______ _______ _______ _____ _____    ______ ____
ROOT
ATOM      1  C   UNL     1       5.450  -5.550  24.683  0.00  0.00    +0.079 C 
ATOM      2  C   UNL     1       4.136  -5.282  23.916  0.00  0.00    +0.137 C 
ATOM      3  C   UNL     1       3.069  -6.250  24.440  0.00  0.00    +0.130 C 
ATOM      4  C   UNL     1       3.806  -7.195  25.390  0.00  0.00    +0.062 C 
ATOM      5  C   UNL     1       5.049  -6.453  25.863  0.00  0.00    +0.196 C 
ENDROOT
BRANCH   5   6
ATOM      6  N   UNL     1       4.757  -5.711  27.094  0.00  0.00    -0.110 NA
ATOM      7  C   UNL     1       5.060  -6.264  28.220  0.00  0.00    +0.377 C 
ATOM      8  N   UNL     1       4.914  -5.564  29.368  0.00  0.00    -0.289 N 
ATOM      9  H   UNL     1       5.634  -5.694  30.065  0.00  0.00    +0.255 HD
ATOM     10  H   UNL     1       4.723  -4.583  29.205  0.00  0.00    +0.255 HD
ATOM     11  N   UNL     1       5.549  -7.498  28.485  0.00  0.00    -0.289 N 
ATOM     12  H   UNL     1       6.130  -7.619  29.302  0.00  0.00    +0.255 HD
ATOM     13  H   UNL     1       5.809  -8.102  27.719  0.00  0.00    +0.255 HD
ENDBRANCH   5   6
BRANCH   2  14
ATOM     14  O   UNL     1       4.341  -5.401  22.506  0.00  0.00    -0.391 OA
ATOM     15  H   UNL     1       3.895  -6.209  22.182  0.00  0.00    +0.210 HD
ENDBRANCH   2  14
BRANCH   3  16
ATOM     16  C   UNL     1       2.263  -7.035  23.420  0.00  0.00    +0.310 C 
ATOM     17  O   UNL     1       1.535  -6.505  22.590  0.00  0.00    -0.251 OA
BRANCH  16  18
ATOM     18  O   UNL     1       2.437  -8.373  23.440  0.00  0.00    -0.480 OA
ATOM     19  H   UNL     1       2.089  -8.787  24.266  0.00  0.00    +0.295 HD
ENDBRANCH  16  18
ENDBRANCH   3  16
BRANCH   1  20
ATOM     20  C   UNL     1       6.261  -4.238  24.928  0.00  0.00    +0.085 C 
BRANCH  20  21
ATOM     21  N   UNL     1       7.699  -4.482  24.808  0.00  0.00    -0.312 N 
ATOM     22  H   UNL     1       8.083  -4.454  23.866  0.00  0.00    +0.149 HD
ATOM     23  C   UNL     1       8.504  -4.747  25.892  0.00  0.00    +0.210 C 
ATOM     24  C   UNL     1       9.929  -5.086  25.548  0.00  0.00    +0.109 C 
ATOM     25  O   UNL     1       8.099  -4.762  27.054  0.00  0.00    -0.276 OA
ENDBRANCH  20  21
BRANCH  20  26
ATOM     26  C   UNL     1       5.829  -2.946  24.128  0.00  0.00    +0.009 C 
BRANCH  26  28
ATOM     27  C   UNL     1       5.791  -1.895  26.561  0.00  0.00    +0.004 C 
ATOM     28  C   UNL     1       5.565  -1.757  25.068  0.00  0.00    +0.002 C 
ENDBRANCH  26  28
BRANCH  26  29
ATOM     29  C   UNL     1       6.860  -2.676  23.009  0.00  0.00    +0.002 C 
ATOM     30  C   UNL     1       7.456  -1.279  22.982  0.00  0.00    +0.004 C 
ENDBRANCH  26  29
ENDBRANCH  20  26
ENDBRANCH   1  20
TORSDOF 9
ENDMDL
MODEL 9
REMARK VINA RESULT:      -5.2      2.580      5.793
REMARK  Name = 
REMARK  12 active torsions:
REMARK  status: ('A' for Active; 'I' for Inactive)
REMARK    1  A    between atoms: C_1  and  C_2
REMARK    2  A    between atoms: C_2  and  C_3
REMARK    3  A    between atoms: C_3  and  C_4
REMARK    4  A    between atoms: C_3  and  C_6
REMARK    5  A    between atoms: C_4  and  C_5
REMARK    6  A    between atoms: C_6  and  C_7
REMARK    7  A    between atoms: C_6  and  N_22
REMARK    8  A    between atoms: C_9  and  N_18
REMARK    9  A    between atoms: C_11  and  C_15
REMARK   10  A    between atoms: C_13  and  O_14
REMARK   11  A    between atoms: C_15  and  O_17
REMARK   12  A    between atoms: C_23  and  C_25
REMARK                            x       y       z     vdW  Elec       q    Type
REMARK                         _______ _______ _______ _____ _____    ______ ____
ROOT
ATOM      1  C   UNL     1       5.710  -5.983  25.584  0.00  0.00    +0.079 C 
ATOM      2  C   UNL     1       5.021  -5.985  26.966  0.00  0.00    +0.137 C 
ATOM      3  C   UNL     1       6.019  -5.453  28.001  0.00  0.00    +0.130 C 
ATOM      4  C   UNL     1       7.343  -5.303  27.252  0.00  0.00    +0.062 C 
ATOM      5  C   UNL     1       6.994  -5.154  25.777  0.00  0.00    +0.196 C 
ENDROOT
BRANCH   5   6
ATOM      6  N   UNL     1       6.830  -3.737  25.436  0.00  0.00    -0.110 NA
ATOM      7  C   UNL     1       7.627  -3.232  24.555  0.00  0.00    +0.377 C 
ATOM      8  N   UNL     1       7.433  -1.962  24.130  0.00  0.00    -0.289 N 
ATOM      9  H   UNL     1       7.586  -1.792  23.146  0.00  0.00    +0.255 HD
ATOM     10  H   UNL     1       6.550  -1.577  24.443  0.00  0.00    +0.255 HD
ATOM     11  N   UNL     1       8.688  -3.780  23.918  0.00  0.00    -0.289 N 
ATOM     12  H   UNL     1       8.913  -3.450  22.991  0.00  0.00    +0.255 HD
ATOM     13  H   UNL     1       8.895  -4.759  24.054  0.00  0.00    +0.255 HD
ENDBRANCH   5   6
BRANCH   2  14
ATOM     14  O   UNL     1       4.539  -7.292  27.289  0.00  0.00    -0.391 OA
ATOM     15  H   UNL     1       4.465  -7.820  26.469  0.00  0.00    +0.210 HD
ENDBRANCH   2  14
BRANCH   3  16
ATOM     16  C   UNL     1       6.212  -6.255  29.277  0.00  0.00    +0.310 C 
ATOM     17  O   UNL     1       6.046  -5.785  30.395  0.00  0.00    -0.251 OA
BRANCH  16  18
ATOM     18  O   UNL     1       6.527  -7.556  29.108  0.00  0.00    -0.480 OA
ATOM     19  H   UNL     1       7.497  -7.724  29.186  0.00  0.00    +0.295 HD
ENDBRANCH  16  18
ENDBRANCH   3  16
BRANCH   1  20
ATOM     20  C   UNL     1       4.712  -5.643  24.433  0.00  0.00    +0.085 C 
BRANCH  20  21
ATOM     21  N   UNL     1       5.215  -6.120  23.145  0.00  0.00    -0.312 N 
ATOM     22  H   UNL     1       5.368  -7.123  23.066  0.00  0.00    +0.149 HD
ATOM     23  C   UNL     1       5.483  -5.279  22.090  0.00  0.00    +0.210 C 
ATOM     24  C   UNL     1       6.104  -5.950  20.894  0.00  0.00    +0.109 C 
ATOM     25  O   UNL     1       5.287  -4.065  22.119  0.00  0.00    -0.276 OA
ENDBRANCH  20  21
BRANCH  20  26
ATOM     26  C   UNL     1       3.194  -6.032  24.638  0.00  0.00    +0.009 C 
BRANCH  26  28
ATOM     27  C   UNL     1       1.241  -4.284  25.038  0.00  0.00    +0.004 C 
ATOM     28  C   UNL     1       2.251  -4.936  24.113  0.00  0.00    +0.002 C 
ENDBRANCH  26  28
BRANCH  26  29
ATOM     29  C   UNL     1       2.950  -7.439  24.048  0.00  0.00    +0.002 C 
ATOM     30  C   UNL     1       2.183  -8.405  24.935  0.00  0.00    +0.004 C 
ENDBRANCH  26  29
ENDBRANCH  20  26
ENDBRANCH   1  20
TORSDOF 9
ENDMDL
