MODEL 1
REMARK VINA RESULT:      -6.3      0.000      0.000
REMARK  Name = 
REMARK  13 active torsions:
REMARK  status: ('A' for Active; 'I' for Inactive)
REMARK    1  A    between atoms: C_1  and  C_2
REMARK    2  A    between atoms: C_2  and  C_3
REMARK    3  A    between atoms: C_2  and  C_4
REMARK    4  A    between atoms: C_4  and  C_5
REMARK    5  A    between atoms: C_4  and  N_26
REMARK    6  A    between atoms: C_5  and  O_7
REMARK    7  A    between atoms: O_7  and  C_8
REMARK    8  A    between atoms: C_8  and  C_9
REMARK    9  A    between atoms: C_9  and  C_11
REMARK   10  A    between atoms: C_9  and  O_13
REMARK   11  A    between atoms: C_11  and  O_12
REMARK   12  A    between atoms: O_13  and  C_14
REMARK   13  A    between atoms: C_14  and  N_15
REMARK                            x       y       z     vdW  Elec       q    Type
REMARK                         _______ _______ _______ _____ _____    ______ ____
ROOT
ATOM      1  O   UNL     1       5.040  -4.374  22.837  0.00  0.00    -0.350 OA
ENDROOT
BRANCH   1   2
ATOM      2  C   UNL     1       6.158  -3.863  22.079  0.00  0.00    +0.183 C 
BRANCH   2   3
ATOM      3  C   UNL     1       6.909  -2.739  22.811  0.00  0.00    +0.266 C 
BRANCH   3   4
ATOM      4  O   UNL     1       8.302  -2.749  22.447  0.00  0.00    -0.461 OA
BRANCH   4   5
ATOM      5  C   UNL     1       9.166  -2.243  23.369  0.00  0.00    +0.324 C 
ATOM      6  O   UNL     1       9.187  -2.554  24.555  0.00  0.00    -0.249 OA
BRANCH   5   7
ATOM      7  C   UNL     1      10.102  -1.192  22.743  0.00  0.00    +0.163 C 
BRANCH   7   9
ATOM      8  C   UNL     1      10.813   0.565  24.451  0.00  0.00    +0.009 C 
ATOM      9  C   UNL     1       9.835   0.218  23.321  0.00  0.00    +0.010 C 
ATOM     10  C   UNL     1       9.922   1.306  22.242  0.00  0.00    +0.009 C 
ENDBRANCH   7   9
BRANCH   7  11
ATOM     11  N   UNL     1       9.876  -1.193  21.273  0.00  0.00    -0.318 NA
ATOM     12  H   UNL     1      10.101  -0.268  20.903  0.00  0.00    +0.119 HD
ATOM     13  H   UNL     1      10.576  -1.811  20.852  0.00  0.00    +0.119 HD
ENDBRANCH   7  11
ENDBRANCH   5   7
ENDBRANCH   4   5
ENDBRANCH   3   4
ENDBRANCH   2   3
BRANCH   2  14
ATOM     14  C   UNL     1       7.104  -5.045  21.813  0.00  0.00    +0.190 C 
BRANCH  14  15
ATOM     15  O   UNL     1       7.656  -5.513  23.044  0.00  0.00    -0.392 OA
ATOM     16  H   UNL     1       7.261  -6.390  23.201  0.00  0.00    +0.210 HD
ENDBRANCH  14  15
ENDBRANCH   2  14
ENDBRANCH   1   2
BRANCH   1  17
ATOM     17  C   UNL     1       4.779  -3.625  24.028  0.00  0.00    +0.288 C 
BRANCH  17  18
ATOM     18  N   UNL     1       4.665  -4.526  25.159  0.00  0.00    -0.291 N 
ATOM     19  C   UNL     1       5.705  -4.964  25.930  0.00  0.00    +0.171 A 
ATOM     20  N   UNL     1       7.009  -4.612  25.813  0.00  0.00    -0.196 NA
ATOM     21  C   UNL     1       7.784  -5.216  26.676  0.00  0.00    +0.195 A 
ATOM     22  N   UNL     1       9.121  -4.980  26.675  0.00  0.00    -0.329 N 
ATOM     23  H   UNL     1       9.610  -5.049  27.557  0.00  0.00    +0.145 HD
ATOM     24  H   UNL     1       9.382  -4.167  26.129  0.00  0.00    +0.145 HD
ATOM     25  N   UNL     1       7.329  -6.107  27.625  0.00  0.00    -0.293 N 
ATOM     26  H   UNL     1       7.975  -6.569  28.243  0.00  0.00    +0.172 HD
ATOM     27  C   UNL     1       6.006  -6.507  27.765  0.00  0.00    +0.280 A 
ATOM     28  O   UNL     1       5.663  -7.324  28.610  0.00  0.00    -0.265 OA
ATOM     29  C   UNL     1       5.137  -5.854  26.811  0.00  0.00    +0.172 A 
ATOM     30  N   UNL     1       3.791  -5.997  26.589  0.00  0.00    -0.229 NA
ATOM     31  C   UNL     1       3.542  -5.193  25.573  0.00  0.00    +0.203 A 
ENDBRANCH  17  18
ENDBRANCH   1  17
TORSDOF 11
ENDMDL
MODEL 2
REMARK VINA RESULT:      -6.3      2.476      3.522
REMARK  Name = 
REMARK  13 active torsions:
REMARK  status: ('A' for Active; 'I' for Inactive)
REMARK    1  A    between atoms: C_1  and  C_2
REMARK    2  A    between atoms: C_2  and  C_3
REMARK    3  A    between atoms: C_2  and  C_4
REMARK    4  A    between atoms: C_4  and  C_5
REMARK    5  A    between atoms: C_4  and  N_26
REMARK    6  A    between atoms: C_5  and  O_7
REMARK    7  A    between atoms: O_7  and  C_8
REMARK    8  A    between atoms: C_8  and  C_9
REMARK    9  A    between atoms: C_9  and  C_11
REMARK   10  A    between atoms: C_9  and  O_13
REMARK   11  A    between atoms: C_11  and  O_12
REMARK   12  A    between atoms: O_13  and  C_14
REMARK   13  A    between atoms: C_14  and  N_15
REMARK                            x       y       z     vdW  Elec       q    Type
REMARK                         _______ _______ _______ _____ _____    ______ ____
ROOT
ATOM      1  O   UNL     1       7.975  -1.745  22.573  0.00  0.00    -0.350 OA
ENDROOT
BRANCH   1   2
ATOM      2  C   UNL     1       9.278  -1.520  21.993  0.00  0.00    +0.183 C 
BRANCH   2   3
ATOM      3  C   UNL     1       9.425  -0.113  21.390  0.00  0.00    +0.266 C 
BRANCH   3   4
ATOM      4  O   UNL     1       9.581   0.865  22.436  0.00  0.00    -0.461 OA
BRANCH   4   5
ATOM      5  C   UNL     1       8.577   1.776  22.558  0.00  0.00    +0.324 C 
ATOM      6  O   UNL     1       7.885   2.186  21.633  0.00  0.00    -0.249 OA
BRANCH   5   7
ATOM      7  C   UNL     1       8.439   2.265  24.013  0.00  0.00    +0.163 C 
BRANCH   7   9
ATOM      8  C   UNL     1       8.262   4.326  25.506  0.00  0.00    +0.009 C 
ATOM      9  C   UNL     1       8.635   3.796  24.115  0.00  0.00    +0.010 C 
ATOM     10  C   UNL     1      10.077   4.212  23.798  0.00  0.00    +0.009 C 
ENDBRANCH   7   9
BRANCH   7  11
ATOM     11  N   UNL     1       9.461   1.563  24.833  0.00  0.00    -0.318 NA
ATOM     12  H   UNL     1       9.231   1.681  25.821  0.00  0.00    +0.119 HD
ATOM     13  H   UNL     1       9.355   0.557  24.668  0.00  0.00    +0.119 HD
ENDBRANCH   7  11
ENDBRANCH   5   7
ENDBRANCH   4   5
ENDBRANCH   3   4
ENDBRANCH   2   3
BRANCH   2  14
ATOM     14  C   UNL     1      10.314  -1.728  23.108  0.00  0.00    +0.190 C 
BRANCH  14  15
ATOM     15  O   UNL     1       9.711  -1.504  24.382  0.00  0.00    -0.392 OA
ATOM     16  H   UNL     1       9.233  -0.657  24.310  0.00  0.00    +0.210 HD
ENDBRANCH  14  15
ENDBRANCH   2  14
ENDBRANCH   1   2
BRANCH   1  17
ATOM     17  C   UNL     1       7.410  -3.010  22.214  0.00  0.00    +0.288 C 
BRANCH  17  18
ATOM     18  N   UNL     1       6.803  -3.624  23.378  0.00  0.00    -0.291 N 
ATOM     19  C   UNL     1       7.472  -4.315  24.349  0.00  0.00    +0.171 A 
ATOM     20  N   UNL     1       8.811  -4.514  24.429  0.00  0.00    -0.196 NA
ATOM     21  C   UNL     1       9.161  -5.240  25.459  0.00  0.00    +0.195 A 
ATOM     22  N   UNL     1      10.469  -5.542  25.667  0.00  0.00    -0.329 N 
ATOM     23  H   UNL     1      10.774  -5.667  26.623  0.00  0.00    +0.145 HD
ATOM     24  H   UNL     1      11.101  -4.981  25.110  0.00  0.00    +0.145 HD
ATOM     25  N   UNL     1       8.270  -5.741  26.385  0.00  0.00    -0.293 N 
ATOM     26  H   UNL     1       8.593  -6.323  27.140  0.00  0.00    +0.172 HD
ATOM     27  C   UNL     1       6.893  -5.574  26.328  0.00  0.00    +0.280 A 
ATOM     28  O   UNL     1       6.147  -6.065  27.166  0.00  0.00    -0.265 OA
ATOM     29  C   UNL     1       6.488  -4.780  25.190  0.00  0.00    +0.172 A 
ATOM     30  N   UNL     1       5.238  -4.422  24.752  0.00  0.00    -0.229 NA
ATOM     31  C   UNL     1       5.464  -3.739  23.646  0.00  0.00    +0.203 A 
ENDBRANCH  17  18
ENDBRANCH   1  17
TORSDOF 11
ENDMDL
MODEL 3
REMARK VINA RESULT:      -6.1      1.980      2.403
REMARK  Name = 
REMARK  13 active torsions:
REMARK  status: ('A' for Active; 'I' for Inactive)
REMARK    1  A    between atoms: C_1  and  C_2
REMARK    2  A    between atoms: C_2  and  C_3
REMARK    3  A    between atoms: C_2  and  C_4
REMARK    4  A    between atoms: C_4  and  C_5
REMARK    5  A    between atoms: C_4  and  N_26
REMARK    6  A    between atoms: C_5  and  O_7
REMARK    7  A    between atoms: O_7  and  C_8
REMARK    8  A    between atoms: C_8  and  C_9
REMARK    9  A    between atoms: C_9  and  C_11
REMARK   10  A    between atoms: C_9  and  O_13
REMARK   11  A    between atoms: C_11  and  O_12
REMARK   12  A    between atoms: O_13  and  C_14
REMARK   13  A    between atoms: C_14  and  N_15
REMARK                            x       y       z     vdW  Elec       q    Type
REMARK                         _______ _______ _______ _____ _____    ______ ____
ROOT
ATOM      1  O   UNL     1       5.600  -1.626  24.485  0.00  0.00    -0.350 OA
ENDROOT
BRANCH   1   2
ATOM      2  C   UNL     1       6.460  -1.525  23.329  0.00  0.00    +0.183 C 
BRANCH   2   3
ATOM      3  C   UNL     1       7.780  -0.796  23.631  0.00  0.00    +0.266 C 
BRANCH   3   4
ATOM      4  O   UNL     1       8.203  -0.035  22.485  0.00  0.00    -0.461 OA
BRANCH   4   5
ATOM      5  C   UNL     1       9.536  -0.062  22.208  0.00  0.00    +0.324 C 
ATOM      6  O   UNL     1      10.200  -1.081  22.054  0.00  0.00    -0.249 OA
BRANCH   5   7
ATOM      7  C   UNL     1      10.124   1.361  22.146  0.00  0.00    +0.163 C 
BRANCH   7   9
ATOM      8  C   UNL     1       9.298   2.579  24.231  0.00  0.00    +0.009 C 
ATOM      9  C   UNL     1      10.488   1.884  23.556  0.00  0.00    +0.010 C 
ATOM     10  C   UNL     1      10.988   0.761  24.473  0.00  0.00    +0.009 C 
ENDBRANCH   7   9
BRANCH   7  11
ATOM     11  N   UNL     1       9.112   2.250  21.517  0.00  0.00    -0.318 NA
ATOM     12  H   UNL     1       8.326   2.364  22.160  0.00  0.00    +0.119 HD
ATOM     13  H   UNL     1       9.521   3.186  21.448  0.00  0.00    +0.119 HD
ENDBRANCH   7  11
ENDBRANCH   5   7
ENDBRANCH   4   5
ENDBRANCH   3   4
ENDBRANCH   2   3
BRANCH   2  14
ATOM     14  C   UNL     1       6.745  -2.956  22.849  0.00  0.00    +0.190 C 
BRANCH  14  15
ATOM     15  O   UNL     1       8.150  -3.207  22.871  0.00  0.00    -0.392 OA
ATOM     16  H   UNL     1       8.387  -3.335  23.809  0.00  0.00    +0.210 HD
ENDBRANCH  14  15
ENDBRANCH   2  14
ENDBRANCH   1   2
BRANCH   1  17
ATOM     17  C   UNL     1       6.293  -1.423  25.721  0.00  0.00    +0.288 C 
BRANCH  17  18
ATOM     18  N   UNL     1       6.093  -2.567  26.589  0.00  0.00    -0.291 N 
ATOM     19  C   UNL     1       6.912  -3.658  26.660  0.00  0.00    +0.171 A 
ATOM     20  N   UNL     1       8.068  -3.855  25.979  0.00  0.00    -0.196 NA
ATOM     21  C   UNL     1       8.623  -5.012  26.231  0.00  0.00    +0.195 A 
ATOM     22  N   UNL     1       9.779  -5.363  25.611  0.00  0.00    -0.329 N 
ATOM     23  H   UNL     1      10.413  -5.971  26.112  0.00  0.00    +0.145 HD
ATOM     24  H   UNL     1      10.239  -4.585  25.155  0.00  0.00    +0.145 HD
ATOM     25  N   UNL     1       8.105  -5.937  27.114  0.00  0.00    -0.293 N 
ATOM     26  H   UNL     1       8.557  -6.826  27.244  0.00  0.00    +0.172 HD
ATOM     27  C   UNL     1       6.918  -5.780  27.817  0.00  0.00    +0.280 A 
ATOM     28  O   UNL     1       6.492  -6.649  28.568  0.00  0.00    -0.265 OA
ATOM     29  C   UNL     1       6.286  -4.509  27.541  0.00  0.00    +0.172 A 
ATOM     30  N   UNL     1       5.099  -3.988  27.990  0.00  0.00    -0.229 NA
ATOM     31  C   UNL     1       5.006  -2.821  27.382  0.00  0.00    +0.203 A 
ENDBRANCH  17  18
ENDBRANCH   1  17
TORSDOF 11
ENDMDL
MODEL 4
REMARK VINA RESULT:      -6.1      2.373      3.602
REMARK  Name = 
REMARK  13 active torsions:
REMARK  status: ('A' for Active; 'I' for Inactive)
REMARK    1  A    between atoms: C_1  and  C_2
REMARK    2  A    between atoms: C_2  and  C_3
REMARK    3  A    between atoms: C_2  and  C_4
REMARK    4  A    between atoms: C_4  and  C_5
REMARK    5  A    between atoms: C_4  and  N_26
REMARK    6  A    between atoms: C_5  and  O_7
REMARK    7  A    between atoms: O_7  and  C_8
REMARK    8  A    between atoms: C_8  and  C_9
REMARK    9  A    between atoms: C_9  and  C_11
REMARK   10  A    between atoms: C_9  and  O_13
REMARK   11  A    between atoms: C_11  and  O_12
REMARK   12  A    between atoms: O_13  and  C_14
REMARK   13  A    between atoms: C_14  and  N_15
REMARK                            x       y       z     vdW  Elec       q    Type
REMARK                         _______ _______ _______ _____ _____    ______ ____
ROOT
ATOM      1  O   UNL     1       7.412  -1.973  23.145  0.00  0.00    -0.350 OA
ENDROOT
BRANCH   1   2
ATOM      2  C   UNL     1       8.462  -0.983  23.110  0.00  0.00    +0.183 C 
BRANCH   2   3
ATOM      3  C   UNL     1       8.958  -0.593  24.512  0.00  0.00    +0.266 C 
BRANCH   3   4
ATOM      4  O   UNL     1       9.055   0.839  24.627  0.00  0.00    -0.461 OA
BRANCH   4   5
ATOM      5  C   UNL     1      10.161   1.410  24.075  0.00  0.00    +0.324 C 
ATOM      6  O   UNL     1      11.317   1.097  24.336  0.00  0.00    -0.249 OA
BRANCH   5   7
ATOM      7  C   UNL     1       9.780   2.538  23.097  0.00  0.00    +0.163 C 
BRANCH   7   9
ATOM      8  C   UNL     1       8.007   4.344  23.420  0.00  0.00    +0.009 C 
ATOM      9  C   UNL     1       8.267   2.854  23.161  0.00  0.00    +0.010 C 
ATOM     10  C   UNL     1       7.539   2.443  21.875  0.00  0.00    +0.009 C 
ENDBRANCH   7   9
BRANCH   7  11
ATOM     11  N   UNL     1      10.153   2.102  21.725  0.00  0.00    -0.318 NA
ATOM     12  H   UNL     1       9.437   2.421  21.070  0.00  0.00    +0.119 HD
ATOM     13  H   UNL     1      10.994   2.620  21.452  0.00  0.00    +0.119 HD
ENDBRANCH   7  11
ENDBRANCH   5   7
ENDBRANCH   4   5
ENDBRANCH   3   4
ENDBRANCH   2   3
BRANCH   2  14
ATOM     14  C   UNL     1       9.617  -1.574  22.287  0.00  0.00    +0.190 C 
BRANCH  14  15
ATOM     15  O   UNL     1       9.787  -0.828  21.081  0.00  0.00    -0.392 OA
ATOM     16  H   UNL     1      10.533  -1.243  20.609  0.00  0.00    +0.210 HD
ENDBRANCH  14  15
ENDBRANCH   2  14
ENDBRANCH   1   2
BRANCH   1  17
ATOM     17  C   UNL     1       7.842  -3.266  22.707  0.00  0.00    +0.288 C 
BRANCH  17  18
ATOM     18  N   UNL     1       6.757  -4.217  22.840  0.00  0.00    -0.291 N 
ATOM     19  C   UNL     1       6.459  -4.924  23.971  0.00  0.00    +0.171 A 
ATOM     20  N   UNL     1       7.084  -4.840  25.172  0.00  0.00    -0.196 NA
ATOM     21  C   UNL     1       6.596  -5.663  26.063  0.00  0.00    +0.195 A 
ATOM     22  N   UNL     1       7.128  -5.709  27.312  0.00  0.00    -0.329 N 
ATOM     23  H   UNL     1       6.511  -5.953  28.075  0.00  0.00    +0.145 HD
ATOM     24  H   UNL     1       7.735  -4.924  27.516  0.00  0.00    +0.145 HD
ATOM     25  N   UNL     1       5.541  -6.519  25.824  0.00  0.00    -0.293 N 
ATOM     26  H   UNL     1       5.229  -7.156  26.538  0.00  0.00    +0.172 HD
ATOM     27  C   UNL     1       4.888  -6.647  24.605  0.00  0.00    +0.280 A 
ATOM     28  O   UNL     1       3.973  -7.445  24.443  0.00  0.00    -0.265 OA
ATOM     29  C   UNL     1       5.422  -5.750  23.605  0.00  0.00    +0.172 A 
ATOM     30  N   UNL     1       5.092  -5.592  22.282  0.00  0.00    -0.229 NA
ATOM     31  C   UNL     1       5.929  -4.670  21.847  0.00  0.00    +0.203 A 
ENDBRANCH  17  18
ENDBRANCH   1  17
TORSDOF 11
ENDMDL
MODEL 5
REMARK VINA RESULT:      -6.0      2.174      3.709
REMARK  Name = 
REMARK  13 active torsions:
REMARK  status: ('A' for Active; 'I' for Inactive)
REMARK    1  A    between atoms: C_1  and  C_2
REMARK    2  A    between atoms: C_2  and  C_3
REMARK    3  A    between atoms: C_2  and  C_4
REMARK    4  A    between atoms: C_4  and  C_5
REMARK    5  A    between atoms: C_4  and  N_26
REMARK    6  A    between atoms: C_5  and  O_7
REMARK    7  A    between atoms: O_7  and  C_8
REMARK    8  A    between atoms: C_8  and  C_9
REMARK    9  A    between atoms: C_9  and  C_11
REMARK   10  A    between atoms: C_9  and  O_13
REMARK   11  A    between atoms: C_11  and  O_12
REMARK   12  A    between atoms: O_13  and  C_14
REMARK   13  A    between atoms: C_14  and  N_15
REMARK                            x       y       z     vdW  Elec       q    Type
REMARK                         _______ _______ _______ _____ _____    ______ ____
ROOT
ATOM      1  O   UNL     1       7.636  -2.335  23.635  0.00  0.00    -0.350 OA
ENDROOT
BRANCH   1   2
ATOM      2  C   UNL     1       8.484  -1.202  23.354  0.00  0.00    +0.183 C 
BRANCH   2   3
ATOM      3  C   UNL     1       9.131  -0.614  24.619  0.00  0.00    +0.266 C 
BRANCH   3   4
ATOM      4  O   UNL     1       9.063   0.824  24.592  0.00  0.00    -0.461 OA
BRANCH   4   5
ATOM      5  C   UNL     1      10.134   1.464  24.048  0.00  0.00    +0.324 C 
ATOM      6  O   UNL     1      11.305   1.247  24.341  0.00  0.00    -0.249 OA
BRANCH   5   7
ATOM      7  C   UNL     1       9.690   2.535  23.033  0.00  0.00    +0.163 C 
BRANCH   7   9
ATOM      8  C   UNL     1       7.719   4.151  23.145  0.00  0.00    +0.009 C 
ATOM      9  C   UNL     1       8.151   2.686  23.007  0.00  0.00    +0.010 C 
ATOM     10  C   UNL     1       7.539   2.110  21.724  0.00  0.00    +0.009 C 
ENDBRANCH   7   9
BRANCH   7  11
ATOM     11  N   UNL     1      10.187   2.131  21.692  0.00  0.00    -0.318 NA
ATOM     12  H   UNL     1       9.615   1.358  21.346  0.00  0.00    +0.119 HD
ATOM     13  H   UNL     1       9.992   2.900  21.044  0.00  0.00    +0.119 HD
ENDBRANCH   7  11
ENDBRANCH   5   7
ENDBRANCH   4   5
ENDBRANCH   3   4
ENDBRANCH   2   3
BRANCH   2  14
ATOM     14  C   UNL     1       9.571  -1.679  22.378  0.00  0.00    +0.190 C 
BRANCH  14  15
ATOM     15  O   UNL     1       9.675  -0.770  21.282  0.00  0.00    -0.392 OA
ATOM     16  H   UNL     1       8.789  -0.734  20.875  0.00  0.00    +0.210 HD
ENDBRANCH  14  15
ENDBRANCH   2  14
ENDBRANCH   1   2
BRANCH   1  17
ATOM     17  C   UNL     1       8.360  -3.562  23.767  0.00  0.00    +0.288 C 
BRANCH  17  18
ATOM     18  N   UNL     1       7.905  -4.278  24.942  0.00  0.00    -0.291 N 
ATOM     19  C   UNL     1       6.827  -5.116  24.989  0.00  0.00    +0.171 A 
ATOM     20  N   UNL     1       6.021  -5.466  23.956  0.00  0.00    -0.196 NA
ATOM     21  C   UNL     1       5.049  -6.266  24.309  0.00  0.00    +0.195 A 
ATOM     22  N   UNL     1       4.147  -6.692  23.388  0.00  0.00    -0.329 N 
ATOM     23  H   UNL     1       3.732  -7.603  23.525  0.00  0.00    +0.145 HD
ATOM     24  H   UNL     1       4.440  -6.520  22.434  0.00  0.00    +0.145 HD
ATOM     25  N   UNL     1       4.864  -6.729  25.595  0.00  0.00    -0.293 N 
ATOM     26  H   UNL     1       4.078  -7.317  25.817  0.00  0.00    +0.172 HD
ATOM     27  C   UNL     1       5.655  -6.382  26.682  0.00  0.00    +0.280 A 
ATOM     28  O   UNL     1       5.427  -6.804  27.809  0.00  0.00    -0.265 OA
ATOM     29  C   UNL     1       6.730  -5.489  26.310  0.00  0.00    +0.172 A 
ATOM     30  N   UNL     1       7.695  -4.886  27.077  0.00  0.00    -0.229 NA
ATOM     31  C   UNL     1       8.376  -4.148  26.222  0.00  0.00    +0.203 A 
ENDBRANCH  17  18
ENDBRANCH   1  17
TORSDOF 11
ENDMDL
MODEL 6
REMARK VINA RESULT:      -6.0      2.248      3.585
REMARK  Name = 
REMARK  13 active torsions:
REMARK  status: ('A' for Active; 'I' for Inactive)
REMARK    1  A    between atoms: C_1  and  C_2
REMARK    2  A    between atoms: C_2  and  C_3
REMARK    3  A    between atoms: C_2  and  C_4
REMARK    4  A    between atoms: C_4  and  C_5
REMARK    5  A    between atoms: C_4  and  N_26
REMARK    6  A    between atoms: C_5  and  O_7
REMARK    7  A    between atoms: O_7  and  C_8
REMARK    8  A    between atoms: C_8  and  C_9
REMARK    9  A    between atoms: C_9  and  C_11
REMARK   10  A    between atoms: C_9  and  O_13
REMARK   11  A    between atoms: C_11  and  O_12
REMARK   12  A    between atoms: O_13  and  C_14
REMARK   13  A    between atoms: C_14  and  N_15
REMARK                            x       y       z     vdW  Elec       q    Type
REMARK                         _______ _______ _______ _____ _____    ______ ____
ROOT
ATOM      1  O   UNL     1       8.077  -2.601  25.954  0.00  0.00    -0.350 OA
ENDROOT
BRANCH   1   2
ATOM      2  C   UNL     1       8.294  -1.617  24.921  0.00  0.00    +0.183 C 
BRANCH   2   3
ATOM      3  C   UNL     1       9.502  -1.948  24.028  0.00  0.00    +0.266 C 
BRANCH   3   4
ATOM      4  O   UNL     1      10.285  -0.764  23.787  0.00  0.00    -0.461 OA
BRANCH   4   5
ATOM      5  C   UNL     1       9.971  -0.056  22.668  0.00  0.00    +0.324 C 
ATOM      6  O   UNL     1       9.672  -0.549  21.586  0.00  0.00    -0.249 OA
BRANCH   5   7
ATOM      7  C   UNL     1      10.073   1.461  22.918  0.00  0.00    +0.163 C 
BRANCH   7   9
ATOM      8  C   UNL     1       9.173   3.390  24.325  0.00  0.00    +0.009 C 
ATOM      9  C   UNL     1       8.919   1.965  23.818  0.00  0.00    +0.010 C 
ATOM     10  C   UNL     1       7.568   1.932  23.092  0.00  0.00    +0.009 C 
ENDBRANCH   7   9
BRANCH   7  11
ATOM     11  N   UNL     1      10.030   2.148  21.601  0.00  0.00    -0.318 NA
ATOM     12  H   UNL     1       9.176   2.707  21.546  0.00  0.00    +0.119 HD
ATOM     13  H   UNL     1      10.786   2.840  21.586  0.00  0.00    +0.119 HD
ENDBRANCH   7  11
ENDBRANCH   5   7
ENDBRANCH   4   5
ENDBRANCH   3   4
ENDBRANCH   2   3
BRANCH   2  14
ATOM     14  C   UNL     1       7.013  -1.555  24.075  0.00  0.00    +0.190 C 
BRANCH  14  15
ATOM     15  O   UNL     1       7.255  -2.110  22.782  0.00  0.00    -0.392 OA
ATOM     16  H   UNL     1       7.764  -1.438  22.290  0.00  0.00    +0.210 HD
ENDBRANCH  14  15
ENDBRANCH   2  14
ENDBRANCH   1   2
BRANCH   1  17
ATOM     17  C   UNL     1       8.553  -3.903  25.599  0.00  0.00    +0.288 C 
BRANCH  17  18
ATOM     18  N   UNL     1       7.465  -4.859  25.665  0.00  0.00    -0.291 N 
ATOM     19  C   UNL     1       6.761  -5.331  24.593  0.00  0.00    +0.171 A 
ATOM     20  N   UNL     1       6.971  -5.035  23.287  0.00  0.00    -0.196 NA
ATOM     21  C   UNL     1       6.119  -5.617  22.484  0.00  0.00    +0.195 A 
ATOM     22  N   UNL     1       6.189  -5.406  21.144  0.00  0.00    -0.329 N 
ATOM     23  H   UNL     1       5.888  -6.155  20.535  0.00  0.00    +0.145 HD
ATOM     24  H   UNL     1       7.058  -4.972  20.855  0.00  0.00    +0.145 HD
ATOM     25  N   UNL     1       5.116  -6.463  22.910  0.00  0.00    -0.293 N 
ATOM     26  H   UNL     1       4.467  -6.857  22.250  0.00  0.00    +0.172 HD
ATOM     27  C   UNL     1       4.857  -6.777  24.238  0.00  0.00    +0.280 A 
ATOM     28  O   UNL     1       3.934  -7.514  24.560  0.00  0.00    -0.265 OA
ATOM     29  C   UNL     1       5.787  -6.133  25.140  0.00  0.00    +0.172 A 
ATOM     30  N   UNL     1       5.852  -6.147  26.510  0.00  0.00    -0.229 NA
ATOM     31  C   UNL     1       6.867  -5.353  26.794  0.00  0.00    +0.203 A 
ENDBRANCH  17  18
ENDBRANCH   1  17
TORSDOF 11
ENDMDL
MODEL 7
REMARK VINA RESULT:      -5.9      3.937      8.664
REMARK  Name = 
REMARK  13 active torsions:
REMARK  status: ('A' for Active; 'I' for Inactive)
REMARK    1  A    between atoms: C_1  and  C_2
REMARK    2  A    between atoms: C_2  and  C_3
REMARK    3  A    between atoms: C_2  and  C_4
REMARK    4  A    between atoms: C_4  and  C_5
REMARK    5  A    between atoms: C_4  and  N_26
REMARK    6  A    between atoms: C_5  and  O_7
REMARK    7  A    between atoms: O_7  and  C_8
REMARK    8  A    between atoms: C_8  and  C_9
REMARK    9  A    between atoms: C_9  and  C_11
REMARK   10  A    between atoms: C_9  and  O_13
REMARK   11  A    between atoms: C_11  and  O_12
REMARK   12  A    between atoms: O_13  and  C_14
REMARK   13  A    between atoms: C_14  and  N_15
REMARK                            x       y       z     vdW  Elec       q    Type
REMARK                         _______ _______ _______ _____ _____    ______ ____
ROOT
ATOM      1  O   UNL     1       9.728   0.007  24.688  0.00  0.00    -0.350 OA
ENDROOT
BRANCH   1   2
ATOM      2  C   UNL     1       9.506  -1.182  23.900  0.00  0.00    +0.183 C 
BRANCH   2   3
ATOM      3  C   UNL     1       8.041  -1.340  23.461  0.00  0.00    +0.266 C 
BRANCH   3   4
ATOM      4  O   UNL     1       7.472  -2.530  24.039  0.00  0.00    -0.461 OA
BRANCH   4   5
ATOM      5  C   UNL     1       7.681  -3.687  23.353  0.00  0.00    +0.324 C 
ATOM      6  O   UNL     1       7.595  -3.807  22.136  0.00  0.00    -0.249 OA
BRANCH   5   7
ATOM      7  C   UNL     1       8.007  -4.852  24.307  0.00  0.00    +0.163 C 
BRANCH   7   9
ATOM      8  C   UNL     1       5.899  -5.651  25.502  0.00  0.00    +0.009 C 
ATOM      9  C   UNL     1       7.158  -4.780  25.598  0.00  0.00    +0.010 C 
ATOM     10  C   UNL     1       7.958  -5.204  26.836  0.00  0.00    +0.009 C 
ENDBRANCH   7   9
BRANCH   7  11
ATOM     11  N   UNL     1       9.454  -4.781  24.642  0.00  0.00    -0.318 NA
ATOM     12  H   UNL     1       9.861  -3.966  24.180  0.00  0.00    +0.119 HD
ATOM     13  H   UNL     1       9.531  -4.570  25.641  0.00  0.00    +0.119 HD
ENDBRANCH   7  11
ENDBRANCH   5   7
ENDBRANCH   4   5
ENDBRANCH   3   4
ENDBRANCH   2   3
BRANCH   2  14
ATOM     14  C   UNL     1      10.419  -1.087  22.668  0.00  0.00    +0.190 C 
BRANCH  14  15
ATOM     15  O   UNL     1       9.783  -1.694  21.543  0.00  0.00    -0.392 OA
ATOM     16  H   UNL     1       9.501  -0.961  20.964  0.00  0.00    +0.210 HD
ENDBRANCH  14  15
ENDBRANCH   2  14
ENDBRANCH   1   2
BRANCH   1  17
ATOM     17  C   UNL     1      10.567   0.966  24.036  0.00  0.00    +0.288 C 
BRANCH  17  18
ATOM     18  N   UNL     1       9.879   2.239  23.945  0.00  0.00    -0.291 N 
ATOM     19  C   UNL     1      10.473   3.443  23.692  0.00  0.00    +0.171 A 
ATOM     20  N   UNL     1      11.786   3.666  23.438  0.00  0.00    -0.196 NA
ATOM     21  C   UNL     1      12.068   4.930  23.260  0.00  0.00    +0.195 A 
ATOM     22  N   UNL     1      13.346   5.316  23.013  0.00  0.00    -0.329 N 
ATOM     23  H   UNL     1      13.486   6.139  22.443  0.00  0.00    +0.145 HD
ATOM     24  H   UNL     1      13.955   4.544  22.767  0.00  0.00    +0.145 HD
ATOM     25  N   UNL     1      11.130   5.940  23.304  0.00  0.00    -0.293 N 
ATOM     26  H   UNL     1      11.409   6.901  23.193  0.00  0.00    +0.172 HD
ATOM     27  C   UNL     1       9.781   5.756  23.577  0.00  0.00    +0.280 A 
ATOM     28  O   UNL     1       8.997   6.695  23.630  0.00  0.00    -0.265 OA
ATOM     29  C   UNL     1       9.454   4.362  23.786  0.00  0.00    +0.172 A 
ATOM     30  N   UNL     1       8.263   3.766  24.115  0.00  0.00    -0.229 NA
ATOM     31  C   UNL     1       8.560   2.485  24.221  0.00  0.00    +0.203 A 
ENDBRANCH  17  18
ENDBRANCH   1  17
TORSDOF 11
ENDMDL
MODEL 8
REMARK VINA RESULT:      -5.8      3.975      8.624
REMARK  Name = 
REMARK  13 active torsions:
REMARK  status: ('A' for Active; 'I' for Inactive)
REMARK    1  A    between atoms: C_1  and  C_2
REMARK    2  A    between atoms: C_2  and  C_3
REMARK    3  A    between atoms: C_2  and  C_4
REMARK    4  A    between atoms: C_4  and  C_5
REMARK    5  A    between atoms: C_4  and  N_26
REMARK    6  A    between atoms: C_5  and  O_7
REMARK    7  A    between atoms: O_7  and  C_8
REMARK    8  A    between atoms: C_8  and  C_9
REMARK    9  A    between atoms: C_9  and  C_11
REMARK   10  A    between atoms: C_9  and  O_13
REMARK   11  A    between atoms: C_11  and  O_12
REMARK   12  A    between atoms: O_13  and  C_14
REMARK   13  A    between atoms: C_14  and  N_15
REMARK                            x       y       z     vdW  Elec       q    Type
REMARK                         _______ _______ _______ _____ _____    ______ ____
ROOT
ATOM      1  O   UNL     1       9.382  -0.036  24.094  0.00  0.00    -0.350 OA
ENDROOT
BRANCH   1   2
ATOM      2  C   UNL     1       9.744  -1.308  23.517  0.00  0.00    +0.183 C 
BRANCH   2   3
ATOM      3  C   UNL     1       9.388  -2.497  24.425  0.00  0.00    +0.266 C 
BRANCH   3   4
ATOM      4  O   UNL     1       9.062  -3.653  23.631  0.00  0.00    -0.461 OA
BRANCH   4   5
ATOM      5  C   UNL     1       8.477  -4.688  24.292  0.00  0.00    +0.324 C 
ATOM      6  O   UNL     1       9.003  -5.334  25.192  0.00  0.00    -0.249 OA
BRANCH   5   7
ATOM      7  C   UNL     1       7.068  -4.980  23.741  0.00  0.00    +0.163 C 
BRANCH   7   9
ATOM      8  C   UNL     1       6.660  -5.781  21.352  0.00  0.00    +0.009 C 
ATOM      9  C   UNL     1       6.948  -4.572  22.253  0.00  0.00    +0.010 C 
ATOM     10  C   UNL     1       5.853  -3.521  22.033  0.00  0.00    +0.009 C 
ENDBRANCH   7   9
BRANCH   7  11
ATOM     11  N   UNL     1       6.087  -4.220  24.559  0.00  0.00    -0.318 NA
ATOM     12  H   UNL     1       6.546  -3.904  25.416  0.00  0.00    +0.119 HD
ATOM     13  H   UNL     1       5.866  -3.356  24.057  0.00  0.00    +0.119 HD
ENDBRANCH   7  11
ENDBRANCH   5   7
ENDBRANCH   4   5
ENDBRANCH   3   4
ENDBRANCH   2   3
BRANCH   2  14
ATOM     14  C   UNL     1       9.003  -1.427  22.176  0.00  0.00    +0.190 C 
BRANCH  14  15
ATOM     15  O   UNL     1       9.860  -1.022  21.109  0.00  0.00    -0.392 OA
ATOM     16  H   UNL     1       9.349  -0.382  20.579  0.00  0.00    +0.210 HD
ENDBRANCH  14  15
ENDBRANCH   2  14
ENDBRANCH   1   2
BRANCH   1  17
ATOM     17  C   UNL     1      10.375   0.975  23.896  0.00  0.00    +0.288 C 
BRANCH  17  18
ATOM     18  N   UNL     1       9.743   2.278  23.831  0.00  0.00    -0.291 N 
ATOM     19  C   UNL     1      10.393   3.464  23.633  0.00  0.00    +0.171 A 
ATOM     20  N   UNL     1      11.720   3.639  23.421  0.00  0.00    -0.196 NA
ATOM     21  C   UNL     1      12.059   4.895  23.293  0.00  0.00    +0.195 A 
ATOM     22  N   UNL     1      13.359   5.235  23.092  0.00  0.00    -0.329 N 
ATOM     23  H   UNL     1      13.548   6.069  22.553  0.00  0.00    +0.145 HD
ATOM     24  H   UNL     1      13.941   4.446  22.835  0.00  0.00    +0.145 HD
ATOM     25  N   UNL     1      11.163   5.943  23.346  0.00  0.00    -0.293 N 
ATOM     26  H   UNL     1      11.485   6.893  23.275  0.00  0.00    +0.172 HD
ATOM     27  C   UNL     1       9.801   5.806  23.579  0.00  0.00    +0.280 A 
ATOM     28  O   UNL     1       9.055   6.776  23.643  0.00  0.00    -0.265 OA
ATOM     29  C   UNL     1       9.411   4.422  23.732  0.00  0.00    +0.172 A 
ATOM     30  N   UNL     1       8.188   3.866  24.011  0.00  0.00    -0.229 NA
ATOM     31  C   UNL     1       8.428   2.571  24.080  0.00  0.00    +0.203 A 
ENDBRANCH  17  18
ENDBRANCH   1  17
TORSDOF 11
ENDMDL
MODEL 9
REMARK VINA RESULT:      -5.7      2.329      3.616
REMARK  Name = 
REMARK  13 active torsions:
REMARK  status: ('A' for Active; 'I' for Inactive)
REMARK    1  A    between atoms: C_1  and  C_2
REMARK    2  A    between atoms: C_2  and  C_3
REMARK    3  A    between atoms: C_2  and  C_4
REMARK    4  A    between atoms: C_4  and  C_5
REMARK    5  A    between atoms: C_4  and  N_26
REMARK    6  A    between atoms: C_5  and  O_7
REMARK    7  A    between atoms: O_7  and  C_8
REMARK    8  A    between atoms: C_8  and  C_9
REMARK    9  A    between atoms: C_9  and  C_11
REMARK   10  A    between atoms: C_9  and  O_13
REMARK   11  A    between atoms: C_11  and  O_12
REMARK   12  A    between atoms: O_13  and  C_14
REMARK   13  A    between atoms: C_14  and  N_15
REMARK                            x       y       z     vdW  Elec       q    Type
REMARK                         _______ _______ _______ _____ _____    ______ ____
ROOT
ATOM      1  O   UNL     1       6.982  -2.864  26.229  0.00  0.00    -0.350 OA
ENDROOT
BRANCH   1   2
ATOM      2  C   UNL     1       8.006  -1.917  25.857  0.00  0.00    +0.183 C 
BRANCH   2   3
ATOM      3  C   UNL     1       7.816  -1.363  24.435  0.00  0.00    +0.266 C 
BRANCH   3   4
ATOM      4  O   UNL     1       8.676  -2.056  23.511  0.00  0.00    -0.461 OA
BRANCH   4   5
ATOM      5  C   UNL     1       9.792  -1.385  23.115  0.00  0.00    +0.324 C 
ATOM      6  O   UNL     1      10.731  -1.884  22.504  0.00  0.00    -0.249 OA
BRANCH   5   7
ATOM      7  C   UNL     1       9.751   0.088  23.566  0.00  0.00    +0.163 C 
BRANCH   7   9
ATOM      8  C   UNL     1       8.792   1.107  21.431  0.00  0.00    +0.009 C 
ATOM      9  C   UNL     1       9.998   1.049  22.379  0.00  0.00    +0.010 C 
ATOM     10  C   UNL     1      10.322   2.472  22.851  0.00  0.00    +0.009 C 
ENDBRANCH   7   9
BRANCH   7  11
ATOM     11  N   UNL     1      10.796   0.280  24.605  0.00  0.00    -0.318 NA
ATOM     12  H   UNL     1      11.244  -0.619  24.794  0.00  0.00    +0.119 HD
ATOM     13  H   UNL     1      11.540   0.852  24.195  0.00  0.00    +0.119 HD
ENDBRANCH   7  11
ENDBRANCH   5   7
ENDBRANCH   4   5
ENDBRANCH   3   4
ENDBRANCH   2   3
BRANCH   2  14
ATOM     14  C   UNL     1       7.959  -0.772  26.881  0.00  0.00    +0.190 C 
BRANCH  14  15
ATOM     15  O   UNL     1       9.286  -0.371  27.224  0.00  0.00    -0.392 OA
ATOM     16  H   UNL     1       9.693  -0.047  26.399  0.00  0.00    +0.210 HD
ENDBRANCH  14  15
ENDBRANCH   2  14
ENDBRANCH   1   2
BRANCH   1  17
ATOM     17  C   UNL     1       7.510  -4.122  26.661  0.00  0.00    +0.288 C 
BRANCH  17  18
ATOM     18  N   UNL     1       6.504  -5.155  26.509  0.00  0.00    -0.291 N 
ATOM     19  C   UNL     1       6.010  -5.609  25.319  0.00  0.00    +0.171 A 
ATOM     20  N   UNL     1       6.391  -5.219  24.077  0.00  0.00    -0.196 NA
ATOM     21  C   UNL     1       5.719  -5.809  23.124  0.00  0.00    +0.195 A 
ATOM     22  N   UNL     1       5.974  -5.511  21.823  0.00  0.00    -0.329 N 
ATOM     23  H   UNL     1       5.828  -6.240  21.138  0.00  0.00    +0.145 HD
ATOM     24  H   UNL     1       6.838  -4.999  21.694  0.00  0.00    +0.145 HD
ATOM     25  N   UNL     1       4.734  -6.749  23.346  0.00  0.00    -0.293 N 
ATOM     26  H   UNL     1       4.225  -7.147  22.574  0.00  0.00    +0.172 HD
ATOM     27  C   UNL     1       4.304  -7.162  24.600  0.00  0.00    +0.280 A 
ATOM     28  O   UNL     1       3.405  -7.982  24.738  0.00  0.00    -0.265 OA
ATOM     29  C   UNL     1       5.032  -6.511  25.667  0.00  0.00    +0.172 A 
ATOM     30  N   UNL     1       4.891  -6.605  27.028  0.00  0.00    -0.229 NA
ATOM     31  C   UNL     1       5.784  -5.759  27.505  0.00  0.00    +0.203 A 
ENDBRANCH  17  18
ENDBRANCH   1  17
TORSDOF 11
ENDMDL
