MODEL 1
REMARK VINA RESULT:      -6.3      0.000      0.000
REMARK  Name = 
REMARK  37 active torsions:
REMARK  status: ('A' for Active; 'I' for Inactive)
REMARK    1  A    between atoms: C_1  and  C_2
REMARK    2  A    between atoms: C_2  and  C_4
REMARK    3  A    between atoms: C_2  and  N_33
REMARK    4  A    between atoms: N_6  and  C_7
REMARK    5  A    between atoms: C_7  and  C_9
REMARK    6  A    between atoms: C_7  and  C_30
REMARK    7  A    between atoms: C_9  and  C_10
REMARK    8  A    between atoms: C_10  and  C_11
REMARK    9  A    between atoms: N_13  and  CA_14
REMARK   10  A    between atoms: CA_14  and  CB_16
REMARK   11  A    between atoms: CA_14  and  C_21
REMARK   12  A    between atoms: CB_16  and  CG_17
REMARK   13  A    between atoms: CG_17  and  CD_18
REMARK   14  A    between atoms: CD_18  and  CE_19
REMARK   15  A    between atoms: CE_19  and  NZ_20
REMARK   16  A    between atoms: N_23  and  CA_24
REMARK   17  A    between atoms: CA_24  and  CB_26
REMARK   18  A    between atoms: CA_24  and  C_27
REMARK   19  A    between atoms: C_27  and  OXT_29
REMARK   20  A    between atoms: C_34  and  C_36
REMARK   21  A    between atoms: C_36  and  C_37
REMARK   22  A    between atoms: C_36  and  O_38
REMARK   23  A    between atoms: O_38  and  C_39
REMARK   24  A    between atoms: C_41  and  O_56
REMARK   25  A    between atoms: C_43  and  C_54
REMARK   26  A    between atoms: C_46  and  O_53
REMARK   27  A    between atoms: C_47  and  N_49
REMARK   28  A    between atoms: C_50  and  O_52
REMARK   29  A    between atoms: C_54  and  O_55
REMARK   30  A    between atoms: O_56  and  C_57
REMARK   31  A    between atoms: C_59  and  C_72
REMARK   32  A    between atoms: C_61  and  O_71
REMARK   33  A    between atoms: C_63  and  O_70
REMARK   34  A    between atoms: C_65  and  C_68
REMARK   35  A    between atoms: C_68  and  O_69
REMARK   36  A    between atoms: C_72  and  C_73
REMARK   37  A    between atoms: C_73  and  C_75
REMARK                            x       y       z     vdW  Elec       q    Type
REMARK                         _______ _______ _______ _____ _____    ______ ____
ROOT
ATOM      1  N   UNK A   0       3.839   3.397  26.618  0.00  0.00    -0.302 N 
ATOM      2  H   UNK A   0       3.669   3.782  25.697  0.00  0.00    +0.150 HD
ATOM      3  C   UNK A   0       4.839   3.908  27.400  0.00  0.00    +0.242 C 
ATOM      4  O   UNK A   0       4.985   3.615  28.583  0.00  0.00    -0.273 OA
ENDROOT
BRANCH   1   6
ATOM      5  C   UNK A   0       1.435   2.671  26.565  0.00  0.00    +0.038 C 
ATOM      6  C   UNK A   0       2.829   2.452  27.117  0.00  0.00    +0.156 C 
BRANCH   6   7
ATOM      7  C   UNK A   0       3.232   0.991  26.913  0.00  0.00    +0.234 C 
ATOM      8  N   UNK A   0       2.577   0.090  27.723  0.00  0.00    -0.302 N 
ATOM      9  H   UNK A   0       1.978   0.462  28.465  0.00  0.00    +0.150 HD
ATOM     10  O   UNK A   0       4.073   0.676  26.079  0.00  0.00    -0.274 OA
BRANCH   8  11
ATOM     11  C   UNK A   0       2.862  -1.343  27.756  0.00  0.00    +0.159 C 
BRANCH  11  12
ATOM     12  C   UNK A   0       3.670  -1.725  29.026  0.00  0.00    +0.231 C 
ATOM     13  N   UNK A   0       3.653  -3.058  29.354  0.00  0.00    -0.328 N 
ATOM     14  H   UNK A   0       4.313  -3.320  30.074  0.00  0.00    +0.145 HD
ATOM     15  H   UNK A   0       3.487  -3.725  28.615  0.00  0.00    +0.145 HD
ATOM     16  O   UNK A   0       4.196  -0.914  29.785  0.00  0.00    -0.274 OA
ENDBRANCH  11  12
BRANCH  11  17
ATOM     17  C   UNK A   0       1.637  -2.254  27.584  0.00  0.00    +0.041 C 
BRANCH  17  18
ATOM     18  C   UNK A   0       1.141  -2.521  26.159  0.00  0.00    +0.098 C 
BRANCH  18  19
ATOM     19  C   UNK A   0       1.860  -3.597  25.363  0.00  0.00    +0.214 C 
ATOM     20  N   LYS A   1       3.221  -3.330  25.226  0.00  0.00    -0.304 N 
ATOM     21  H   LYS A   1       3.506  -2.363  25.335  0.00  0.00    +0.149 HD
ATOM     22  O   UNK A   0       1.321  -4.602  24.920  0.00  0.00    -0.276 OA
BRANCH  20  23
ATOM     23  CA  LYS A   1       4.109  -4.185  24.410  0.00  0.00    +0.159 C 
BRANCH  23  24
ATOM     24  C   LYS A   1       4.738  -5.334  25.245  0.00  0.00    +0.234 C 
ATOM     25  N   ALA A   2       4.702  -5.212  26.616  0.00  0.00    -0.301 N 
ATOM     26  H   ALA A   2       3.903  -4.689  26.957  0.00  0.00    +0.150 HD
ATOM     27  O   LYS A   1       5.354  -6.274  24.736  0.00  0.00    -0.274 OA
BRANCH  25  28
ATOM     28  CA  ALA A   2       5.213  -6.294  27.487  0.00  0.00    +0.179 C 
ATOM     29  CB  ALA A   2       4.113  -6.771  28.430  0.00  0.00    +0.040 C 
BRANCH  28  30
ATOM     30  C   ALA A   2       6.462  -5.891  28.322  0.00  0.00    +0.325 C 
ATOM     31  O   ALA A   2       6.465  -5.732  29.532  0.00  0.00    -0.249 OA
BRANCH  30  32
ATOM     32  OXT ALA A   2       7.616  -5.816  27.610  0.00  0.00    -0.479 OA
ATOM     33  HXT ALA A   2       7.499  -5.325  26.749  0.00  0.00    +0.295 HD
ENDBRANCH  30  32
ENDBRANCH  28  30
ENDBRANCH  25  28
ENDBRANCH  23  24
BRANCH  23  34
ATOM     34  CB  LYS A   1       5.203  -3.312  23.762  0.00  0.00    +0.032 C 
BRANCH  34  35
ATOM     35  CG  LYS A   1       5.458  -3.530  22.263  0.00  0.00    +0.003 C 
BRANCH  35  36
ATOM     36  CD  LYS A   1       6.742  -4.300  21.949  0.00  0.00    +0.015 C 
BRANCH  36  37
ATOM     37  CE  LYS A   1       6.433  -5.561  21.143  0.00  0.00    +0.077 C 
BRANCH  37  38
ATOM     38  NZ  LYS A   1       6.070  -6.658  22.031  0.00  0.00    -0.330 NA
ATOM     39  HZ1 LYS A   1       6.653  -7.468  21.819  0.00  0.00    +0.118 HD
ATOM     40  HZ2 LYS A   1       6.288  -6.403  22.994  0.00  0.00    +0.118 HD
ENDBRANCH  37  38
ENDBRANCH  36  37
ENDBRANCH  35  36
ENDBRANCH  34  35
ENDBRANCH  23  34
ENDBRANCH  20  23
ENDBRANCH  18  19
ENDBRANCH  17  18
ENDBRANCH  11  17
ENDBRANCH   8  11
ENDBRANCH   6   7
ENDBRANCH   1   6
BRANCH   3  41
ATOM     41  C   UNK A   0       5.792   4.883  26.682  0.00  0.00    +0.201 C 
ATOM     42  C   UNK A   0       7.192   4.675  27.250  0.00  0.00    +0.048 C 
BRANCH  41  43
ATOM     43  O   UNK A   0       5.839   4.727  25.261  0.00  0.00    -0.360 OA
BRANCH  43  44
ATOM     44  C   UNK A   0       7.025   4.101  24.730  0.00  0.00    +0.176 C 
ATOM     45  C   UNK A   0       7.720   5.062  23.724  0.00  0.00    +0.163 C 
ATOM     46  C   UNK A   0       6.899   5.152  22.408  0.00  0.00    +0.271 C 
ATOM     47  O   UNK A   0       6.572   3.878  21.865  0.00  0.00    -0.341 OA
ATOM     48  C   UNK A   0       5.870   3.001  22.753  0.00  0.00    +0.178 C 
ATOM     49  C   UNK A   0       6.706   2.758  24.038  0.00  0.00    +0.183 C 
BRANCH  45  50
ATOM     50  N   UNK A   0       9.120   4.652  23.471  0.00  0.00    -0.271 N 
ATOM     51  H   UNK A   0       9.256   3.824  22.902  0.00  0.00    +0.153 HD
ATOM     52  C   UNK A   0      10.152   5.528  23.639  0.00  0.00    +0.398 C 
ATOM     53  O   UNK A   0      10.064   6.667  24.059  0.00  0.00    -0.227 OA
BRANCH  52  54
ATOM     54  O   UNK A   0      11.325   4.970  23.303  0.00  0.00    -0.466 OA
ATOM     55  H   UNK A   0      11.912   5.591  22.838  0.00  0.00    +0.297 HD
ENDBRANCH  52  54
ENDBRANCH  45  50
BRANCH  46  56
ATOM     56  O   UNK A   0       7.616   5.835  21.393  0.00  0.00    -0.365 OA
ATOM     57  H   UNK A   0       7.183   5.575  20.563  0.00  0.00    +0.213 HD
ENDBRANCH  46  56
BRANCH  48  58
ATOM     58  C   UNK A   0       4.414   3.449  23.010  0.00  0.00    +0.190 C 
BRANCH  58  59
ATOM     59  O   UNK A   0       3.630   2.458  23.667  0.00  0.00    -0.392 OA
ATOM     60  H   UNK A   0       3.768   1.600  23.229  0.00  0.00    +0.210 HD
ENDBRANCH  58  59
ENDBRANCH  48  58
BRANCH  49  61
ATOM     61  O   UNK A   0       7.882   2.022  23.635  0.00  0.00    -0.342 OA
BRANCH  61  62
ATOM     62  C   UNK A   0       8.561   1.225  24.604  0.00  0.00    +0.257 C 
ATOM     63  O   UNK A   0       9.918   1.047  24.191  0.00  0.00    -0.343 OA
ATOM     64  C   UNK A   0      10.135   0.225  23.020  0.00  0.00    +0.177 C 
ATOM     65  C   UNK A   0       9.375  -1.123  23.048  0.00  0.00    +0.174 C 
ATOM     66  C   UNK A   0       7.944  -0.971  23.586  0.00  0.00    +0.154 C 
ATOM     67  C   UNK A   0       7.915  -0.136  24.878  0.00  0.00    +0.083 C 
BRANCH  66  68
ATOM     68  O   UNK A   0       7.078  -0.413  22.596  0.00  0.00    -0.389 OA
ATOM     69  H   UNK A   0       6.317  -1.009  22.480  0.00  0.00    +0.210 HD
ENDBRANCH  66  68
BRANCH  65  70
ATOM     70  O   UNK A   0      10.093  -2.050  23.883  0.00  0.00    -0.387 OA
ATOM     71  H   UNK A   0      10.915  -2.292  23.418  0.00  0.00    +0.210 HD
ENDBRANCH  65  70
BRANCH  67  72
ATOM     72  C   UNK A   0       8.658  -0.819  26.047  0.00  0.00    +0.085 C 
BRANCH  72  73
ATOM     73  C   UNK A   0       7.995  -2.125  26.462  0.00  0.00    +0.131 C 
ATOM     74  C   UNK A   0       6.555  -2.066  26.889  0.00  0.00    +0.086 C 
ATOM     75  O   UNK A   0       8.584  -3.199  26.406  0.00  0.00    -0.298 OA
ENDBRANCH  72  73
ENDBRANCH  67  72
BRANCH  64  76
ATOM     76  C   UNK A   0       9.889   1.001  21.712  0.00  0.00    +0.190 C 
BRANCH  76  77
ATOM     77  O   UNK A   0      10.265   2.370  21.847  0.00  0.00    -0.392 OA
ATOM     78  H   UNK A   0      11.164   2.462  21.487  0.00  0.00    +0.210 HD
ENDBRANCH  76  77
ENDBRANCH  64  76
ENDBRANCH  61  62
ENDBRANCH  49  61
ENDBRANCH  43  44
ENDBRANCH  41  43
ENDBRANCH   3  41
TORSDOF 33
ENDMDL
MODEL 2
REMARK VINA RESULT:      -6.2      2.588      9.364
REMARK  Name = 
REMARK  37 active torsions:
REMARK  status: ('A' for Active; 'I' for Inactive)
REMARK    1  A    between atoms: C_1  and  C_2
REMARK    2  A    between atoms: C_2  and  C_4
REMARK    3  A    between atoms: C_2  and  N_33
REMARK    4  A    between atoms: N_6  and  C_7
REMARK    5  A    between atoms: C_7  and  C_9
REMARK    6  A    between atoms: C_7  and  C_30
REMARK    7  A    between atoms: C_9  and  C_10
REMARK    8  A    between atoms: C_10  and  C_11
REMARK    9  A    between atoms: N_13  and  CA_14
REMARK   10  A    between atoms: CA_14  and  CB_16
REMARK   11  A    between atoms: CA_14  and  C_21
REMARK   12  A    between atoms: CB_16  and  CG_17
REMARK   13  A    between atoms: CG_17  and  CD_18
REMARK   14  A    between atoms: CD_18  and  CE_19
REMARK   15  A    between atoms: CE_19  and  NZ_20
REMARK   16  A    between atoms: N_23  and  CA_24
REMARK   17  A    between atoms: CA_24  and  CB_26
REMARK   18  A    between atoms: CA_24  and  C_27
REMARK   19  A    between atoms: C_27  and  OXT_29
REMARK   20  A    between atoms: C_34  and  C_36
REMARK   21  A    between atoms: C_36  and  C_37
REMARK   22  A    between atoms: C_36  and  O_38
REMARK   23  A    between atoms: O_38  and  C_39
REMARK   24  A    between atoms: C_41  and  O_56
REMARK   25  A    between atoms: C_43  and  C_54
REMARK   26  A    between atoms: C_46  and  O_53
REMARK   27  A    between atoms: C_47  and  N_49
REMARK   28  A    between atoms: C_50  and  O_52
REMARK   29  A    between atoms: C_54  and  O_55
REMARK   30  A    between atoms: O_56  and  C_57
REMARK   31  A    between atoms: C_59  and  C_72
REMARK   32  A    between atoms: C_61  and  O_71
REMARK   33  A    between atoms: C_63  and  O_70
REMARK   34  A    between atoms: C_65  and  C_68
REMARK   35  A    between atoms: C_68  and  O_69
REMARK   36  A    between atoms: C_72  and  C_73
REMARK   37  A    between atoms: C_73  and  C_75
REMARK                            x       y       z     vdW  Elec       q    Type
REMARK                         _______ _______ _______ _____ _____    ______ ____
ROOT
ATOM      1  N   UNK A   0       8.895   0.570  23.361  0.00  0.00    -0.302 N 
ATOM      2  H   UNK A   0       8.086   0.602  23.969  0.00  0.00    +0.150 HD
ATOM      3  C   UNK A   0       9.506  -0.625  23.094  0.00  0.00    +0.242 C 
ATOM      4  O   UNK A   0      10.371  -0.762  22.236  0.00  0.00    -0.273 OA
ENDROOT
BRANCH   1   6
ATOM      5  C   UNK A   0       8.208   2.184  21.564  0.00  0.00    +0.038 C 
ATOM      6  C   UNK A   0       9.207   1.813  22.640  0.00  0.00    +0.156 C 
BRANCH   6   7
ATOM      7  C   UNK A   0       9.413   3.006  23.576  0.00  0.00    +0.234 C 
ATOM      8  N   UNK A   0      10.250   3.986  23.090  0.00  0.00    -0.302 N 
ATOM      9  H   UNK A   0      10.756   3.795  22.221  0.00  0.00    +0.150 HD
ATOM     10  O   UNK A   0       8.855   3.059  24.666  0.00  0.00    -0.274 OA
BRANCH   8  11
ATOM     11  C   UNK A   0      10.651   5.170  23.846  0.00  0.00    +0.159 C 
BRANCH  11  12
ATOM     12  C   UNK A   0      12.107   5.589  23.502  0.00  0.00    +0.231 C 
ATOM     13  N   UNK A   0      12.699   6.445  24.396  0.00  0.00    -0.328 N 
ATOM     14  H   UNK A   0      13.692   6.575  24.257  0.00  0.00    +0.145 HD
ATOM     15  H   UNK A   0      12.362   6.442  25.348  0.00  0.00    +0.145 HD
ATOM     16  O   UNK A   0      12.684   5.301  22.456  0.00  0.00    -0.274 OA
ENDBRANCH  11  12
BRANCH  11  17
ATOM     17  C   UNK A   0       9.692   6.367  23.738  0.00  0.00    +0.041 C 
BRANCH  17  18
ATOM     18  C   UNK A   0       9.050   6.882  25.031  0.00  0.00    +0.098 C 
BRANCH  18  19
ATOM     19  C   UNK A   0       7.578   6.573  25.247  0.00  0.00    +0.214 C 
ATOM     20  N   LYS A   1       7.118   5.577  24.387  0.00  0.00    -0.304 N 
ATOM     21  H   LYS A   1       7.651   5.431  23.537  0.00  0.00    +0.149 HD
ATOM     22  O   UNK A   0       6.879   7.108  26.097  0.00  0.00    -0.276 OA
BRANCH  20  23
ATOM     23  CA  LYS A   1       5.696   5.175  24.344  0.00  0.00    +0.159 C 
BRANCH  23  24
ATOM     24  C   LYS A   1       5.395   3.997  25.311  0.00  0.00    +0.234 C 
ATOM     25  N   ALA A   2       5.913   2.764  24.985  0.00  0.00    -0.301 N 
ATOM     26  H   ALA A   2       6.784   2.812  24.467  0.00  0.00    +0.150 HD
ATOM     27  O   LYS A   1       4.634   4.099  26.277  0.00  0.00    -0.274 OA
BRANCH  25  28
ATOM     28  CA  ALA A   2       5.736   1.604  25.888  0.00  0.00    +0.179 C 
ATOM     29  CB  ALA A   2       6.946   1.466  26.806  0.00  0.00    +0.040 C 
BRANCH  28  30
ATOM     30  C   ALA A   2       5.502   0.258  25.144  0.00  0.00    +0.325 C 
ATOM     31  O   ALA A   2       4.829  -0.664  25.573  0.00  0.00    -0.249 OA
BRANCH  30  32
ATOM     32  OXT ALA A   2       6.038   0.204  23.897  0.00  0.00    -0.479 OA
ATOM     33  HXT ALA A   2       5.377   0.445  23.190  0.00  0.00    +0.295 HD
ENDBRANCH  30  32
ENDBRANCH  28  30
ENDBRANCH  25  28
ENDBRANCH  23  24
BRANCH  23  34
ATOM     34  CB  LYS A   1       5.313   4.810  22.895  0.00  0.00    +0.032 C 
BRANCH  34  35
ATOM     35  CG  LYS A   1       3.812   4.711  22.586  0.00  0.00    +0.003 C 
BRANCH  35  36
ATOM     36  CD  LYS A   1       3.354   3.323  22.132  0.00  0.00    +0.015 C 
BRANCH  36  37
ATOM     37  CE  LYS A   1       2.320   3.433  21.012  0.00  0.00    +0.077 C 
BRANCH  37  38
ATOM     38  NZ  LYS A   1       1.793   2.117  20.673  0.00  0.00    -0.330 NA
ATOM     39  HZ1 LYS A   1       1.203   2.196  19.845  0.00  0.00    +0.118 HD
ATOM     40  HZ2 LYS A   1       2.562   1.501  20.408  0.00  0.00    +0.118 HD
ENDBRANCH  37  38
ENDBRANCH  36  37
ENDBRANCH  35  36
ENDBRANCH  34  35
ENDBRANCH  23  34
ENDBRANCH  20  23
ENDBRANCH  18  19
ENDBRANCH  17  18
ENDBRANCH  11  17
ENDBRANCH   8  11
ENDBRANCH   6   7
ENDBRANCH   1   6
BRANCH   3  41
ATOM     41  C   UNK A   0       9.032  -1.805  23.964  0.00  0.00    +0.201 C 
ATOM     42  C   UNK A   0       9.070  -1.358  25.422  0.00  0.00    +0.048 C 
BRANCH  41  43
ATOM     43  O   UNK A   0       7.718  -2.278  23.658  0.00  0.00    -0.360 OA
BRANCH  43  44
ATOM     44  C   UNK A   0       7.189  -3.297  24.531  0.00  0.00    +0.176 C 
ATOM     45  C   UNK A   0       8.031  -4.597  24.391  0.00  0.00    +0.163 C 
ATOM     46  C   UNK A   0       7.737  -5.287  23.031  0.00  0.00    +0.271 C 
ATOM     47  O   UNK A   0       6.346  -5.464  22.783  0.00  0.00    -0.341 OA
ATOM     48  C   UNK A   0       5.562  -4.268  22.839  0.00  0.00    +0.178 C 
ATOM     49  C   UNK A   0       5.704  -3.598  24.233  0.00  0.00    +0.183 C 
BRANCH  45  50
ATOM     50  N   UNK A   0       7.799  -5.511  25.533  0.00  0.00    -0.271 N 
ATOM     51  H   UNK A   0       7.617  -6.483  25.308  0.00  0.00    +0.153 HD
ATOM     52  C   UNK A   0       8.195  -5.177  26.795  0.00  0.00    +0.398 C 
ATOM     53  O   UNK A   0       8.695  -4.121  27.133  0.00  0.00    -0.227 OA
BRANCH  52  54
ATOM     54  O   UNK A   0       7.941  -6.168  27.664  0.00  0.00    -0.466 OA
ATOM     55  H   UNK A   0       8.320  -5.998  28.542  0.00  0.00    +0.297 HD
ENDBRANCH  52  54
ENDBRANCH  45  50
BRANCH  46  56
ATOM     56  O   UNK A   0       8.310  -6.583  22.969  0.00  0.00    -0.365 OA
ATOM     57  H   UNK A   0       7.683  -7.156  23.440  0.00  0.00    +0.213 HD
ENDBRANCH  46  56
BRANCH  48  58
ATOM     58  C   UNK A   0       5.823  -3.323  21.645  0.00  0.00    +0.190 C 
BRANCH  58  59
ATOM     59  O   UNK A   0       5.627  -1.949  21.963  0.00  0.00    -0.392 OA
ATOM     60  H   UNK A   0       6.265  -1.412  21.461  0.00  0.00    +0.210 HD
ENDBRANCH  58  59
ENDBRANCH  48  58
BRANCH  49  61
ATOM     61  O   UNK A   0       5.093  -4.493  25.188  0.00  0.00    -0.342 OA
BRANCH  61  62
ATOM     62  C   UNK A   0       3.688  -4.728  25.111  0.00  0.00    +0.257 C 
ATOM     63  O   UNK A   0       3.048  -4.087  26.216  0.00  0.00    -0.343 OA
ATOM     64  C   UNK A   0       3.305  -4.647  27.525  0.00  0.00    +0.177 C 
ATOM     65  C   UNK A   0       3.142  -6.184  27.596  0.00  0.00    +0.174 C 
ATOM     66  C   UNK A   0       3.734  -6.887  26.365  0.00  0.00    +0.154 C 
ATOM     67  C   UNK A   0       3.289  -6.205  25.060  0.00  0.00    +0.083 C 
BRANCH  66  68
ATOM     68  O   UNK A   0       5.159  -6.956  26.446  0.00  0.00    -0.389 OA
ATOM     69  H   UNK A   0       5.472  -7.621  25.808  0.00  0.00    +0.210 HD
ENDBRANCH  66  68
BRANCH  65  70
ATOM     70  O   UNK A   0       1.742  -6.504  27.689  0.00  0.00    -0.387 OA
ATOM     71  H   UNK A   0       1.444  -6.272  28.588  0.00  0.00    +0.210 HD
ENDBRANCH  65  70
BRANCH  67  72
ATOM     72  C   UNK A   0       1.766  -6.306  24.822  0.00  0.00    +0.085 C 
BRANCH  72  73
ATOM     73  C   UNK A   0       1.437  -6.827  23.430  0.00  0.00    +0.131 C 
ATOM     74  C   UNK A   0       1.449  -8.317  23.226  0.00  0.00    +0.086 C 
ATOM     75  O   UNK A   0       1.119  -6.077  22.514  0.00  0.00    -0.298 OA
ENDBRANCH  72  73
ENDBRANCH  67  72
BRANCH  64  76
ATOM     76  C   UNK A   0       4.657  -4.182  28.099  0.00  0.00    +0.190 C 
BRANCH  76  77
ATOM     77  O   UNK A   0       5.283  -5.219  28.850  0.00  0.00    -0.392 OA
ATOM     78  H   UNK A   0       6.245  -5.100  28.768  0.00  0.00    +0.210 HD
ENDBRANCH  76  77
ENDBRANCH  64  76
ENDBRANCH  61  62
ENDBRANCH  49  61
ENDBRANCH  43  44
ENDBRANCH  41  43
ENDBRANCH   3  41
TORSDOF 33
ENDMDL
MODEL 3
REMARK VINA RESULT:      -5.8      2.335      9.113
REMARK  Name = 
REMARK  37 active torsions:
REMARK  status: ('A' for Active; 'I' for Inactive)
REMARK    1  A    between atoms: C_1  and  C_2
REMARK    2  A    between atoms: C_2  and  C_4
REMARK    3  A    between atoms: C_2  and  N_33
REMARK    4  A    between atoms: N_6  and  C_7
REMARK    5  A    between atoms: C_7  and  C_9
REMARK    6  A    between atoms: C_7  and  C_30
REMARK    7  A    between atoms: C_9  and  C_10
REMARK    8  A    between atoms: C_10  and  C_11
REMARK    9  A    between atoms: N_13  and  CA_14
REMARK   10  A    between atoms: CA_14  and  CB_16
REMARK   11  A    between atoms: CA_14  and  C_21
REMARK   12  A    between atoms: CB_16  and  CG_17
REMARK   13  A    between atoms: CG_17  and  CD_18
REMARK   14  A    between atoms: CD_18  and  CE_19
REMARK   15  A    between atoms: CE_19  and  NZ_20
REMARK   16  A    between atoms: N_23  and  CA_24
REMARK   17  A    between atoms: CA_24  and  CB_26
REMARK   18  A    between atoms: CA_24  and  C_27
REMARK   19  A    between atoms: C_27  and  OXT_29
REMARK   20  A    between atoms: C_34  and  C_36
REMARK   21  A    between atoms: C_36  and  C_37
REMARK   22  A    between atoms: C_36  and  O_38
REMARK   23  A    between atoms: O_38  and  C_39
REMARK   24  A    between atoms: C_41  and  O_56
REMARK   25  A    between atoms: C_43  and  C_54
REMARK   26  A    between atoms: C_46  and  O_53
REMARK   27  A    between atoms: C_47  and  N_49
REMARK   28  A    between atoms: C_50  and  O_52
REMARK   29  A    between atoms: C_54  and  O_55
REMARK   30  A    between atoms: O_56  and  C_57
REMARK   31  A    between atoms: C_59  and  C_72
REMARK   32  A    between atoms: C_61  and  O_71
REMARK   33  A    between atoms: C_63  and  O_70
REMARK   34  A    between atoms: C_65  and  C_68
REMARK   35  A    between atoms: C_68  and  O_69
REMARK   36  A    between atoms: C_72  and  C_73
REMARK   37  A    between atoms: C_73  and  C_75
REMARK                            x       y       z     vdW  Elec       q    Type
REMARK                         _______ _______ _______ _____ _____    ______ ____
ROOT
ATOM      1  N   UNK A   0       8.642   0.500  24.157  0.00  0.00    -0.302 N 
ATOM      2  H   UNK A   0       7.653   0.614  24.347  0.00  0.00    +0.150 HD
ATOM      3  C   UNK A   0       9.273  -0.667  24.491  0.00  0.00    +0.242 C 
ATOM      4  O   UNK A   0      10.414  -0.941  24.132  0.00  0.00    -0.273 OA
ENDROOT
BRANCH   1   6
ATOM      5  C   UNK A   0       8.623   1.726  21.965  0.00  0.00    +0.038 C 
ATOM      6  C   UNK A   0       9.261   1.543  23.327  0.00  0.00    +0.156 C 
BRANCH   6   7
ATOM      7  C   UNK A   0       9.342   2.896  24.036  0.00  0.00    +0.234 C 
ATOM      8  N   UNK A   0      10.040   3.868  23.354  0.00  0.00    -0.302 N 
ATOM      9  H   UNK A   0      10.545   3.588  22.508  0.00  0.00    +0.150 HD
ATOM     10  O   UNK A   0       8.809   3.072  25.126  0.00  0.00    -0.274 OA
BRANCH   8  11
ATOM     11  C   UNK A   0      10.312   5.204  23.879  0.00  0.00    +0.159 C 
BRANCH  11  12
ATOM     12  C   UNK A   0      11.809   5.582  23.705  0.00  0.00    +0.231 C 
ATOM     13  N   UNK A   0      12.304   6.463  24.633  0.00  0.00    -0.328 N 
ATOM     14  H   UNK A   0      13.309   6.569  24.615  0.00  0.00    +0.145 HD
ATOM     15  H   UNK A   0      11.852   6.504  25.535  0.00  0.00    +0.145 HD
ATOM     16  O   UNK A   0      12.504   5.242  22.751  0.00  0.00    -0.274 OA
ENDBRANCH  11  12
BRANCH  11  17
ATOM     17  C   UNK A   0       9.395   6.313  23.341  0.00  0.00    +0.041 C 
BRANCH  17  18
ATOM     18  C   UNK A   0       8.073   5.892  22.691  0.00  0.00    +0.098 C 
BRANCH  18  19
ATOM     19  C   UNK A   0       6.955   5.444  23.617  0.00  0.00    +0.214 C 
ATOM     20  N   LYS A   1       6.320   4.291  23.157  0.00  0.00    -0.304 N 
ATOM     21  H   LYS A   1       6.404   4.093  22.166  0.00  0.00    +0.149 HD
ATOM     22  O   UNK A   0       6.662   6.004  24.664  0.00  0.00    -0.276 OA
BRANCH  20  23
ATOM     23  CA  LYS A   1       5.139   3.722  23.840  0.00  0.00    +0.159 C 
BRANCH  23  24
ATOM     24  C   LYS A   1       5.500   2.461  24.672  0.00  0.00    +0.234 C 
ATOM     25  N   ALA A   2       5.703   2.633  26.023  0.00  0.00    -0.301 N 
ATOM     26  H   ALA A   2       5.161   3.392  26.423  0.00  0.00    +0.150 HD
ATOM     27  O   LYS A   1       5.716   1.359  24.161  0.00  0.00    -0.274 OA
BRANCH  25  28
ATOM     28  CA  ALA A   2       5.978   1.474  26.901  0.00  0.00    +0.179 C 
ATOM     29  CB  ALA A   2       4.668   0.855  27.378  0.00  0.00    +0.040 C 
BRANCH  28  30
ATOM     30  C   ALA A   2       6.859   1.817  28.136  0.00  0.00    +0.325 C 
ATOM     31  O   ALA A   2       7.013   1.087  29.102  0.00  0.00    -0.249 OA
BRANCH  30  32
ATOM     32  OXT ALA A   2       7.549   2.982  28.030  0.00  0.00    -0.479 OA
ATOM     33  HXT ALA A   2       7.299   3.498  27.214  0.00  0.00    +0.295 HD
ENDBRANCH  30  32
ENDBRANCH  28  30
ENDBRANCH  25  28
ENDBRANCH  23  24
BRANCH  23  34
ATOM     34  CB  LYS A   1       4.052   3.400  22.794  0.00  0.00    +0.032 C 
BRANCH  34  35
ATOM     35  CG  LYS A   1       3.112   4.550  22.402  0.00  0.00    +0.003 C 
BRANCH  35  36
ATOM     36  CD  LYS A   1       2.414   4.359  21.054  0.00  0.00    +0.015 C 
BRANCH  36  37
ATOM     37  CE  LYS A   1       1.936   5.700  20.497  0.00  0.00    +0.077 C 
BRANCH  37  38
ATOM     38  NZ  LYS A   1       2.277   5.817  19.085  0.00  0.00    -0.330 NA
ATOM     39  HZ1 LYS A   1       3.230   6.171  19.000  0.00  0.00    +0.118 HD
ATOM     40  HZ2 LYS A   1       2.285   4.891  18.659  0.00  0.00    +0.118 HD
ENDBRANCH  37  38
ENDBRANCH  36  37
ENDBRANCH  35  36
ENDBRANCH  34  35
ENDBRANCH  23  34
ENDBRANCH  20  23
ENDBRANCH  18  19
ENDBRANCH  17  18
ENDBRANCH  11  17
ENDBRANCH   8  11
ENDBRANCH   6   7
ENDBRANCH   1   6
BRANCH   3  41
ATOM     41  C   UNK A   0       8.446  -1.626  25.368  0.00  0.00    +0.201 C 
ATOM     42  C   UNK A   0       8.673  -1.242  26.826  0.00  0.00    +0.048 C 
BRANCH  41  43
ATOM     43  O   UNK A   0       7.042  -1.615  25.098  0.00  0.00    -0.360 OA
BRANCH  43  44
ATOM     44  C   UNK A   0       6.338  -2.852  25.333  0.00  0.00    +0.176 C 
ATOM     45  C   UNK A   0       7.350  -4.032  25.369  0.00  0.00    +0.163 C 
ATOM     46  C   UNK A   0       7.876  -4.336  23.938  0.00  0.00    +0.271 C 
ATOM     47  O   UNK A   0       6.833  -4.491  22.982  0.00  0.00    -0.341 OA
ATOM     48  C   UNK A   0       5.929  -3.385  22.885  0.00  0.00    +0.178 C 
ATOM     49  C   UNK A   0       5.261  -3.116  24.260  0.00  0.00    +0.183 C 
BRANCH  45  50
ATOM     50  N   UNK A   0       6.755  -5.231  26.002  0.00  0.00    -0.271 N 
ATOM     51  H   UNK A   0       6.739  -6.078  25.446  0.00  0.00    +0.153 HD
ATOM     52  C   UNK A   0       6.606  -5.312  27.356  0.00  0.00    +0.398 C 
ATOM     53  O   UNK A   0       6.865  -4.436  28.159  0.00  0.00    -0.227 OA
BRANCH  52  54
ATOM     54  O   UNK A   0       6.101  -6.501  27.720  0.00  0.00    -0.466 OA
ATOM     55  H   UNK A   0       5.970  -6.570  28.680  0.00  0.00    +0.297 HD
ENDBRANCH  52  54
ENDBRANCH  45  50
BRANCH  46  56
ATOM     56  O   UNK A   0       8.619  -5.543  23.902  0.00  0.00    -0.365 OA
ATOM     57  H   UNK A   0       8.627  -5.858  24.821  0.00  0.00    +0.213 HD
ENDBRANCH  46  56
BRANCH  48  58
ATOM     58  C   UNK A   0       6.569  -2.142  22.229  0.00  0.00    +0.190 C 
BRANCH  58  59
ATOM     59  O   UNK A   0       6.073  -0.913  22.749  0.00  0.00    -0.392 OA
ATOM     60  H   UNK A   0       6.713  -0.556  23.389  0.00  0.00    +0.210 HD
ENDBRANCH  58  59
ENDBRANCH  48  58
BRANCH  49  61
ATOM     61  O   UNK A   0       4.427  -4.260  24.547  0.00  0.00    -0.342 OA
BRANCH  61  62
ATOM     62  C   UNK A   0       3.426  -4.146  25.558  0.00  0.00    +0.257 C 
ATOM     63  O   UNK A   0       3.449  -5.323  26.369  0.00  0.00    -0.343 OA
ATOM     64  C   UNK A   0       3.005  -6.549  25.741  0.00  0.00    +0.177 C 
ATOM     65  C   UNK A   0       1.665  -6.417  24.978  0.00  0.00    +0.174 C 
ATOM     66  C   UNK A   0       1.579  -5.108  24.179  0.00  0.00    +0.154 C 
ATOM     67  C   UNK A   0       2.010  -3.901  25.031  0.00  0.00    +0.083 C 
BRANCH  66  68
ATOM     68  O   UNK A   0       2.346  -5.186  22.977  0.00  0.00    -0.389 OA
ATOM     69  H   UNK A   0       3.212  -5.579  23.187  0.00  0.00    +0.210 HD
ENDBRANCH  66  68
BRANCH  65  70
ATOM     70  O   UNK A   0       0.581  -6.461  25.923  0.00  0.00    -0.387 OA
ATOM     71  H   UNK A   0       0.964  -6.387  26.817  0.00  0.00    +0.210 HD
ENDBRANCH  65  70
BRANCH  67  72
ATOM     72  C   UNK A   0       1.066  -3.645  26.225  0.00  0.00    +0.085 C 
BRANCH  72  73
ATOM     73  C   UNK A   0       1.401  -2.351  26.954  0.00  0.00    +0.131 C 
ATOM     74  C   UNK A   0       1.754  -2.447  28.412  0.00  0.00    +0.086 C 
ATOM     75  O   UNK A   0       1.439  -1.270  26.375  0.00  0.00    -0.298 OA
ENDBRANCH  72  73
ENDBRANCH  67  72
BRANCH  64  76
ATOM     76  C   UNK A   0       4.106  -7.185  24.870  0.00  0.00    +0.190 C 
BRANCH  76  77
ATOM     77  O   UNK A   0       3.547  -7.881  23.758  0.00  0.00    -0.392 OA
ATOM     78  H   UNK A   0       3.777  -7.381  22.956  0.00  0.00    +0.210 HD
ENDBRANCH  76  77
ENDBRANCH  64  76
ENDBRANCH  61  62
ENDBRANCH  49  61
ENDBRANCH  43  44
ENDBRANCH  41  43
ENDBRANCH   3  41
TORSDOF 33
ENDMDL
MODEL 4
REMARK VINA RESULT:      -5.3      1.968      9.018
REMARK  Name = 
REMARK  37 active torsions:
REMARK  status: ('A' for Active; 'I' for Inactive)
REMARK    1  A    between atoms: C_1  and  C_2
REMARK    2  A    between atoms: C_2  and  C_4
REMARK    3  A    between atoms: C_2  and  N_33
REMARK    4  A    between atoms: N_6  and  C_7
REMARK    5  A    between atoms: C_7  and  C_9
REMARK    6  A    between atoms: C_7  and  C_30
REMARK    7  A    between atoms: C_9  and  C_10
REMARK    8  A    between atoms: C_10  and  C_11
REMARK    9  A    between atoms: N_13  and  CA_14
REMARK   10  A    between atoms: CA_14  and  CB_16
REMARK   11  A    between atoms: CA_14  and  C_21
REMARK   12  A    between atoms: CB_16  and  CG_17
REMARK   13  A    between atoms: CG_17  and  CD_18
REMARK   14  A    between atoms: CD_18  and  CE_19
REMARK   15  A    between atoms: CE_19  and  NZ_20
REMARK   16  A    between atoms: N_23  and  CA_24
REMARK   17  A    between atoms: CA_24  and  CB_26
REMARK   18  A    between atoms: CA_24  and  C_27
REMARK   19  A    between atoms: C_27  and  OXT_29
REMARK   20  A    between atoms: C_34  and  C_36
REMARK   21  A    between atoms: C_36  and  C_37
REMARK   22  A    between atoms: C_36  and  O_38
REMARK   23  A    between atoms: O_38  and  C_39
REMARK   24  A    between atoms: C_41  and  O_56
REMARK   25  A    between atoms: C_43  and  C_54
REMARK   26  A    between atoms: C_46  and  O_53
REMARK   27  A    between atoms: C_47  and  N_49
REMARK   28  A    between atoms: C_50  and  O_52
REMARK   29  A    between atoms: C_54  and  O_55
REMARK   30  A    between atoms: O_56  and  C_57
REMARK   31  A    between atoms: C_59  and  C_72
REMARK   32  A    between atoms: C_61  and  O_71
REMARK   33  A    between atoms: C_63  and  O_70
REMARK   34  A    between atoms: C_65  and  C_68
REMARK   35  A    between atoms: C_68  and  O_69
REMARK   36  A    between atoms: C_72  and  C_73
REMARK   37  A    between atoms: C_73  and  C_75
REMARK                            x       y       z     vdW  Elec       q    Type
REMARK                         _______ _______ _______ _____ _____    ______ ____
ROOT
ATOM      1  N   UNK A   0       3.556  -1.362  28.212  0.00  0.00    -0.302 N 
ATOM      2  H   UNK A   0       3.101  -1.476  27.314  0.00  0.00    +0.150 HD
ATOM      3  C   UNK A   0       3.524  -2.377  29.129  0.00  0.00    +0.242 C 
ATOM      4  O   UNK A   0       4.198  -2.378  30.155  0.00  0.00    -0.273 OA
ENDROOT
BRANCH   1   6
ATOM      5  C   UNK A   0       5.855  -0.383  27.965  0.00  0.00    +0.038 C 
ATOM      6  C   UNK A   0       4.407  -0.172  28.355  0.00  0.00    +0.156 C 
BRANCH   6   7
ATOM      7  C   UNK A   0       3.853   1.046  27.613  0.00  0.00    +0.234 C 
ATOM      8  N   UNK A   0       4.384   2.255  28.005  0.00  0.00    -0.302 N 
ATOM      9  H   UNK A   0       4.998   2.263  28.824  0.00  0.00    +0.150 HD
ATOM     10  O   UNK A   0       3.006   0.922  26.735  0.00  0.00    -0.274 OA
BRANCH   8  11
ATOM     11  C   UNK A   0       3.944   3.550  27.492  0.00  0.00    +0.159 C 
BRANCH  11  12
ATOM     12  C   UNK A   0       2.589   3.973  28.123  0.00  0.00    +0.231 C 
ATOM     13  N   UNK A   0       1.570   4.199  27.232  0.00  0.00    -0.328 N 
ATOM     14  H   UNK A   0       0.659   4.306  27.656  0.00  0.00    +0.145 HD
ATOM     15  H   UNK A   0       1.611   3.731  26.339  0.00  0.00    +0.145 HD
ATOM     16  O   UNK A   0       2.427   4.224  29.315  0.00  0.00    -0.274 OA
ENDBRANCH  11  12
BRANCH  11  17
ATOM     17  C   UNK A   0       4.980   4.679  27.598  0.00  0.00    +0.041 C 
BRANCH  17  18
ATOM     18  C   UNK A   0       5.262   5.508  26.340  0.00  0.00    +0.098 C 
BRANCH  18  19
ATOM     19  C   UNK A   0       6.365   5.018  25.418  0.00  0.00    +0.214 C 
ATOM     20  N   LYS A   1       6.900   6.047  24.644  0.00  0.00    -0.304 N 
ATOM     21  H   LYS A   1       6.314   6.864  24.511  0.00  0.00    +0.149 HD
ATOM     22  O   UNK A   0       6.767   3.864  25.376  0.00  0.00    -0.276 OA
BRANCH  20  23
ATOM     23  CA  LYS A   1       7.919   5.796  23.603  0.00  0.00    +0.159 C 
BRANCH  23  24
ATOM     24  C   LYS A   1       7.530   4.608  22.682  0.00  0.00    +0.234 C 
ATOM     25  N   ALA A   2       8.335   3.491  22.718  0.00  0.00    -0.301 N 
ATOM     26  H   ALA A   2       8.779   3.338  23.617  0.00  0.00    +0.150 HD
ATOM     27  O   LYS A   1       6.614   4.670  21.857  0.00  0.00    -0.274 OA
BRANCH  25  28
ATOM     28  CA  ALA A   2       7.995   2.287  21.927  0.00  0.00    +0.179 C 
ATOM     29  CB  ALA A   2       6.985   1.430  22.685  0.00  0.00    +0.040 C 
BRANCH  28  30
ATOM     30  C   ALA A   2       9.227   1.414  21.553  0.00  0.00    +0.325 C 
ATOM     31  O   ALA A   2       9.168   0.245  21.206  0.00  0.00    -0.249 OA
BRANCH  30  32
ATOM     32  OXT ALA A   2      10.409   2.081  21.545  0.00  0.00    -0.479 OA
ATOM     33  HXT ALA A   2      10.785   2.176  20.626  0.00  0.00    +0.295 HD
ENDBRANCH  30  32
ENDBRANCH  28  30
ENDBRANCH  25  28
ENDBRANCH  23  24
BRANCH  23  34
ATOM     34  CB  LYS A   1       9.284   5.547  24.277  0.00  0.00    +0.032 C 
BRANCH  34  35
ATOM     35  CG  LYS A   1      10.476   6.346  23.730  0.00  0.00    +0.003 C 
BRANCH  35  36
ATOM     36  CD  LYS A   1      11.843   5.763  24.092  0.00  0.00    +0.015 C 
BRANCH  36  37
ATOM     37  CE  LYS A   1      12.712   5.603  22.845  0.00  0.00    +0.077 C 
BRANCH  37  38
ATOM     38  NZ  LYS A   1      14.003   5.023  23.193  0.00  0.00    -0.330 NA
ATOM     39  HZ1 LYS A   1      13.855   4.222  23.807  0.00  0.00    +0.118 HD
ATOM     40  HZ2 LYS A   1      14.446   4.650  22.353  0.00  0.00    +0.118 HD
ENDBRANCH  37  38
ENDBRANCH  36  37
ENDBRANCH  35  36
ENDBRANCH  34  35
ENDBRANCH  23  34
ENDBRANCH  20  23
ENDBRANCH  18  19
ENDBRANCH  17  18
ENDBRANCH  11  17
ENDBRANCH   8  11
ENDBRANCH   6   7
ENDBRANCH   1   6
BRANCH   3  41
ATOM     41  C   UNK A   0       2.564  -3.533  28.788  0.00  0.00    +0.201 C 
ATOM     42  C   UNK A   0       1.514  -2.999  27.819  0.00  0.00    +0.048 C 
BRANCH  41  43
ATOM     43  O   UNK A   0       3.196  -4.675  28.205  0.00  0.00    -0.360 OA
BRANCH  43  44
ATOM     44  C   UNK A   0       3.530  -4.572  26.805  0.00  0.00    +0.176 C 
ATOM     45  C   UNK A   0       2.950  -5.793  26.036  0.00  0.00    +0.163 C 
ATOM     46  C   UNK A   0       3.760  -7.076  26.371  0.00  0.00    +0.271 C 
ATOM     47  O   UNK A   0       5.165  -6.906  26.219  0.00  0.00    -0.341 OA
ATOM     48  C   UNK A   0       5.731  -5.828  26.973  0.00  0.00    +0.178 C 
ATOM     49  C   UNK A   0       5.055  -4.487  26.581  0.00  0.00    +0.183 C 
BRANCH  45  50
ATOM     50  N   UNK A   0       2.905  -5.537  24.579  0.00  0.00    -0.271 N 
ATOM     51  H   UNK A   0       3.780  -5.619  24.075  0.00  0.00    +0.153 HD
ATOM     52  C   UNK A   0       1.727  -5.585  23.891  0.00  0.00    +0.398 C 
ATOM     53  O   UNK A   0       0.624  -5.764  24.371  0.00  0.00    -0.227 OA
BRANCH  52  54
ATOM     54  O   UNK A   0       1.920  -5.379  22.579  0.00  0.00    -0.466 OA
ATOM     55  H   UNK A   0       2.244  -6.173  22.122  0.00  0.00    +0.297 HD
ENDBRANCH  52  54
ENDBRANCH  45  50
BRANCH  46  56
ATOM     56  O   UNK A   0       3.405  -8.153  25.519  0.00  0.00    -0.365 OA
ATOM     57  H   UNK A   0       2.481  -8.354  25.743  0.00  0.00    +0.213 HD
ENDBRANCH  46  56
BRANCH  48  58
ATOM     58  C   UNK A   0       5.763  -6.111  28.491  0.00  0.00    +0.190 C 
BRANCH  58  59
ATOM     59  O   UNK A   0       5.942  -4.937  29.277  0.00  0.00    -0.392 OA
ATOM     60  H   UNK A   0       5.227  -4.881  29.934  0.00  0.00    +0.210 HD
ENDBRANCH  58  59
ENDBRANCH  48  58
BRANCH  49  61
ATOM     61  O   UNK A   0       5.424  -4.221  25.210  0.00  0.00    -0.342 OA
BRANCH  61  62
ATOM     62  C   UNK A   0       5.905  -2.922  24.865  0.00  0.00    +0.257 C 
ATOM     63  O   UNK A   0       5.742  -2.724  23.460  0.00  0.00    -0.343 OA
ATOM     64  C   UNK A   0       6.584  -3.521  22.593  0.00  0.00    +0.177 C 
ATOM     65  C   UNK A   0       8.080  -3.518  22.992  0.00  0.00    +0.174 C 
ATOM     66  C   UNK A   0       8.274  -3.628  24.512  0.00  0.00    +0.154 C 
ATOM     67  C   UNK A   0       7.357  -2.651  25.268  0.00  0.00    +0.083 C 
BRANCH  66  68
ATOM     68  O   UNK A   0       8.076  -4.969  24.962  0.00  0.00    -0.389 OA
ATOM     69  H   UNK A   0       8.939  -5.419  24.985  0.00  0.00    +0.210 HD
ENDBRANCH  66  68
BRANCH  65  70
ATOM     70  O   UNK A   0       8.687  -2.299  22.530  0.00  0.00    -0.387 OA
ATOM     71  H   UNK A   0       9.275  -1.975  23.237  0.00  0.00    +0.210 HD
ENDBRANCH  65  70
BRANCH  67  72
ATOM     72  C   UNK A   0       7.691  -1.172  24.978  0.00  0.00    +0.085 C 
BRANCH  72  73
ATOM     73  C   UNK A   0       8.926  -0.704  25.736  0.00  0.00    +0.131 C 
ATOM     74  C   UNK A   0       9.949   0.090  24.973  0.00  0.00    +0.086 C 
ATOM     75  O   UNK A   0       9.069  -0.913  26.936  0.00  0.00    -0.298 OA
ENDBRANCH  72  73
ENDBRANCH  67  72
BRANCH  64  76
ATOM     76  C   UNK A   0       6.037  -4.949  22.407  0.00  0.00    +0.190 C 
BRANCH  76  77
ATOM     77  O   UNK A   0       4.619  -4.943  22.256  0.00  0.00    -0.392 OA
ATOM     78  H   UNK A   0       4.396  -5.595  21.570  0.00  0.00    +0.210 HD
ENDBRANCH  76  77
ENDBRANCH  64  76
ENDBRANCH  61  62
ENDBRANCH  49  61
ENDBRANCH  43  44
ENDBRANCH  41  43
ENDBRANCH   3  41
TORSDOF 33
ENDMDL
MODEL 5
REMARK VINA RESULT:      -5.3      1.410      2.357
REMARK  Name = 
REMARK  37 active torsions:
REMARK  status: ('A' for Active; 'I' for Inactive)
REMARK    1  A    between atoms: C_1  and  C_2
REMARK    2  A    between atoms: C_2  and  C_4
REMARK    3  A    between atoms: C_2  and  N_33
REMARK    4  A    between atoms: N_6  and  C_7
REMARK    5  A    between atoms: C_7  and  C_9
REMARK    6  A    between atoms: C_7  and  C_30
REMARK    7  A    between atoms: C_9  and  C_10
REMARK    8  A    between atoms: C_10  and  C_11
REMARK    9  A    between atoms: N_13  and  CA_14
REMARK   10  A    between atoms: CA_14  and  CB_16
REMARK   11  A    between atoms: CA_14  and  C_21
REMARK   12  A    between atoms: CB_16  and  CG_17
REMARK   13  A    between atoms: CG_17  and  CD_18
REMARK   14  A    between atoms: CD_18  and  CE_19
REMARK   15  A    between atoms: CE_19  and  NZ_20
REMARK   16  A    between atoms: N_23  and  CA_24
REMARK   17  A    between atoms: CA_24  and  CB_26
REMARK   18  A    between atoms: CA_24  and  C_27
REMARK   19  A    between atoms: C_27  and  OXT_29
REMARK   20  A    between atoms: C_34  and  C_36
REMARK   21  A    between atoms: C_36  and  C_37
REMARK   22  A    between atoms: C_36  and  O_38
REMARK   23  A    between atoms: O_38  and  C_39
REMARK   24  A    between atoms: C_41  and  O_56
REMARK   25  A    between atoms: C_43  and  C_54
REMARK   26  A    between atoms: C_46  and  O_53
REMARK   27  A    between atoms: C_47  and  N_49
REMARK   28  A    between atoms: C_50  and  O_52
REMARK   29  A    between atoms: C_54  and  O_55
REMARK   30  A    between atoms: O_56  and  C_57
REMARK   31  A    between atoms: C_59  and  C_72
REMARK   32  A    between atoms: C_61  and  O_71
REMARK   33  A    between atoms: C_63  and  O_70
REMARK   34  A    between atoms: C_65  and  C_68
REMARK   35  A    between atoms: C_68  and  O_69
REMARK   36  A    between atoms: C_72  and  C_73
REMARK   37  A    between atoms: C_73  and  C_75
REMARK                            x       y       z     vdW  Elec       q    Type
REMARK                         _______ _______ _______ _____ _____    ______ ____
ROOT
ATOM      1  N   UNK A   0       2.455   3.775  26.859  0.00  0.00    -0.302 N 
ATOM      2  H   UNK A   0       1.836   4.128  26.138  0.00  0.00    +0.150 HD
ATOM      3  C   UNK A   0       3.583   4.473  27.195  0.00  0.00    +0.242 C 
ATOM      4  O   UNK A   0       4.276   4.202  28.171  0.00  0.00    -0.273 OA
ENDROOT
BRANCH   1   6
ATOM      5  C   UNK A   0       0.444   2.574  27.765  0.00  0.00    +0.038 C 
ATOM      6  C   UNK A   0       1.952   2.633  27.636  0.00  0.00    +0.156 C 
BRANCH   6   7
ATOM      7  C   UNK A   0       2.470   1.290  27.119  0.00  0.00    +0.234 C 
ATOM      8  N   UNK A   0       1.990   0.186  27.789  0.00  0.00    -0.302 N 
ATOM      9  H   UNK A   0       1.438   0.345  28.636  0.00  0.00    +0.150 HD
ATOM     10  O   UNK A   0       3.247   1.232  26.173  0.00  0.00    -0.274 OA
BRANCH   8  11
ATOM     11  C   UNK A   0       2.412  -1.186  27.519  0.00  0.00    +0.159 C 
BRANCH  11  12
ATOM     12  C   UNK A   0       3.518  -1.639  28.512  0.00  0.00    +0.231 C 
ATOM     13  N   UNK A   0       3.118  -2.545  29.462  0.00  0.00    -0.328 N 
ATOM     14  H   UNK A   0       3.875  -2.958  29.991  0.00  0.00    +0.145 HD
ATOM     15  H   UNK A   0       2.327  -3.134  29.251  0.00  0.00    +0.145 HD
ATOM     16  O   UNK A   0       4.646  -1.156  28.562  0.00  0.00    -0.274 OA
ENDBRANCH  11  12
BRANCH  11  17
ATOM     17  C   UNK A   0       1.274  -2.216  27.451  0.00  0.00    +0.041 C 
BRANCH  17  18
ATOM     18  C   UNK A   0       0.793  -2.655  26.063  0.00  0.00    +0.098 C 
BRANCH  18  19
ATOM     19  C   UNK A   0       1.269  -4.006  25.558  0.00  0.00    +0.214 C 
ATOM     20  N   LYS A   1       2.602  -3.976  25.151  0.00  0.00    -0.304 N 
ATOM     21  H   LYS A   1       2.980  -3.069  24.904  0.00  0.00    +0.149 HD
ATOM     22  O   UNK A   0       0.580  -5.017  25.539  0.00  0.00    -0.276 OA
BRANCH  20  23
ATOM     23  CA  LYS A   1       3.259  -5.147  24.532  0.00  0.00    +0.159 C 
BRANCH  23  24
ATOM     24  C   LYS A   1       4.401  -5.711  25.421  0.00  0.00    +0.234 C 
ATOM     25  N   ALA A   2       4.704  -5.021  26.573  0.00  0.00    -0.301 N 
ATOM     26  H   ALA A   2       3.910  -4.537  26.979  0.00  0.00    +0.150 HD
ATOM     27  O   LYS A   1       5.104  -6.667  25.084  0.00  0.00    -0.274 OA
BRANCH  25  28
ATOM     28  CA  ALA A   2       5.728  -5.529  27.514  0.00  0.00    +0.179 C 
ATOM     29  CB  ALA A   2       5.386  -5.107  28.939  0.00  0.00    +0.040 C 
BRANCH  28  30
ATOM     30  C   ALA A   2       7.174  -5.066  27.178  0.00  0.00    +0.325 C 
ATOM     31  O   ALA A   2       7.510  -3.905  27.011  0.00  0.00    -0.249 OA
BRANCH  30  32
ATOM     32  OXT ALA A   2       8.097  -6.062  27.173  0.00  0.00    -0.479 OA
ATOM     33  HXT ALA A   2       8.933  -5.807  27.653  0.00  0.00    +0.295 HD
ENDBRANCH  30  32
ENDBRANCH  28  30
ENDBRANCH  25  28
ENDBRANCH  23  24
BRANCH  23  34
ATOM     34  CB  LYS A   1       3.788  -4.757  23.137  0.00  0.00    +0.032 C 
BRANCH  34  35
ATOM     35  CG  LYS A   1       4.973  -3.780  23.100  0.00  0.00    +0.003 C 
BRANCH  35  36
ATOM     36  CD  LYS A   1       5.995  -4.073  21.999  0.00  0.00    +0.015 C 
BRANCH  36  37
ATOM     37  CE  LYS A   1       7.037  -5.082  22.482  0.00  0.00    +0.077 C 
BRANCH  37  38
ATOM     38  NZ  LYS A   1       7.496  -4.739  23.822  0.00  0.00    -0.330 NA
ATOM     39  HZ1 LYS A   1       6.914  -5.219  24.508  0.00  0.00    +0.118 HD
ATOM     40  HZ2 LYS A   1       8.441  -5.098  23.960  0.00  0.00    +0.118 HD
ENDBRANCH  37  38
ENDBRANCH  36  37
ENDBRANCH  35  36
ENDBRANCH  34  35
ENDBRANCH  23  34
ENDBRANCH  20  23
ENDBRANCH  18  19
ENDBRANCH  17  18
ENDBRANCH  11  17
ENDBRANCH   8  11
ENDBRANCH   6   7
ENDBRANCH   1   6
BRANCH   3  41
ATOM     41  C   UNK A   0       3.934   5.636  26.248  0.00  0.00    +0.201 C 
ATOM     42  C   UNK A   0       4.978   6.506  26.940  0.00  0.00    +0.048 C 
BRANCH  41  43
ATOM     43  O   UNK A   0       4.440   5.230  24.973  0.00  0.00    -0.360 OA
BRANCH  43  44
ATOM     44  C   UNK A   0       5.686   4.505  24.985  0.00  0.00    +0.176 C 
ATOM     45  C   UNK A   0       6.687   5.164  23.994  0.00  0.00    +0.163 C 
ATOM     46  C   UNK A   0       6.265   4.872  22.527  0.00  0.00    +0.271 C 
ATOM     47  O   UNK A   0       6.025   3.491  22.280  0.00  0.00    -0.341 OA
ATOM     48  C   UNK A   0       5.056   2.880  23.138  0.00  0.00    +0.178 C 
ATOM     49  C   UNK A   0       5.491   3.017  24.621  0.00  0.00    +0.183 C 
BRANCH  45  50
ATOM     50  N   UNK A   0       8.076   4.729  24.264  0.00  0.00    -0.271 N 
ATOM     51  H   UNK A   0       8.215   3.742  24.450  0.00  0.00    +0.153 HD
ATOM     52  C   UNK A   0       9.140   5.500  23.898  0.00  0.00    +0.398 C 
ATOM     53  O   UNK A   0       9.084   6.607  23.397  0.00  0.00    -0.227 OA
BRANCH  52  54
ATOM     54  O   UNK A   0      10.303   4.894  24.185  0.00  0.00    -0.466 OA
ATOM     55  H   UNK A   0      10.197   3.940  24.338  0.00  0.00    +0.297 HD
ENDBRANCH  52  54
ENDBRANCH  45  50
BRANCH  46  56
ATOM     56  O   UNK A   0       7.273   5.262  21.609  0.00  0.00    -0.365 OA
ATOM     57  H   UNK A   0       6.891   5.092  20.732  0.00  0.00    +0.213 HD
ENDBRANCH  46  56
BRANCH  48  58
ATOM     58  C   UNK A   0       3.614   3.352  22.846  0.00  0.00    +0.190 C 
BRANCH  58  59
ATOM     59  O   UNK A   0       2.685   2.979  23.859  0.00  0.00    -0.392 OA
ATOM     60  H   UNK A   0       1.815   3.360  23.649  0.00  0.00    +0.210 HD
ENDBRANCH  58  59
ENDBRANCH  48  58
BRANCH  49  61
ATOM     61  O   UNK A   0       6.687   2.222  24.779  0.00  0.00    -0.342 OA
BRANCH  61  62
ATOM     62  C   UNK A   0       6.662   0.853  24.377  0.00  0.00    +0.257 C 
ATOM     63  O   UNK A   0       6.263   0.049  25.489  0.00  0.00    -0.343 OA
ATOM     64  C   UNK A   0       7.202  -0.048  26.586  0.00  0.00    +0.177 C 
ATOM     65  C   UNK A   0       8.651  -0.373  26.149  0.00  0.00    +0.174 C 
ATOM     66  C   UNK A   0       9.065   0.406  24.892  0.00  0.00    +0.154 C 
ATOM     67  C   UNK A   0       7.982   0.333  23.801  0.00  0.00    +0.083 C 
BRANCH  66  68
ATOM     68  O   UNK A   0       9.381   1.764  25.207  0.00  0.00    -0.389 OA
ATOM     69  H   UNK A   0       9.196   1.912  26.151  0.00  0.00    +0.210 HD
ENDBRANCH  66  68
BRANCH  65  70
ATOM     70  O   UNK A   0       8.755  -1.783  25.880  0.00  0.00    -0.387 OA
ATOM     71  H   UNK A   0       8.132  -2.244  26.472  0.00  0.00    +0.210 HD
ENDBRANCH  65  70
BRANCH  67  72
ATOM     72  C   UNK A   0       7.767  -1.101  23.269  0.00  0.00    +0.085 C 
BRANCH  72  73
ATOM     73  C   UNK A   0       9.009  -1.648  22.579  0.00  0.00    +0.131 C 
ATOM     74  C   UNK A   0       9.522  -0.899  21.381  0.00  0.00    +0.086 C 
ATOM     75  O   UNK A   0       9.610  -2.629  23.003  0.00  0.00    -0.298 OA
ENDBRANCH  72  73
ENDBRANCH  67  72
BRANCH  64  76
ATOM     76  C   UNK A   0       7.140   1.181  27.513  0.00  0.00    +0.190 C 
BRANCH  76  77
ATOM     77  O   UNK A   0       5.791   1.580  27.751  0.00  0.00    -0.392 OA
ATOM     78  H   UNK A   0       5.457   1.982  26.931  0.00  0.00    +0.210 HD
ENDBRANCH  76  77
ENDBRANCH  64  76
ENDBRANCH  61  62
ENDBRANCH  49  61
ENDBRANCH  43  44
ENDBRANCH  41  43
ENDBRANCH   3  41
TORSDOF 33
ENDMDL
MODEL 6
REMARK VINA RESULT:      -5.3      2.334      9.597
REMARK  Name = 
REMARK  37 active torsions:
REMARK  status: ('A' for Active; 'I' for Inactive)
REMARK    1  A    between atoms: C_1  and  C_2
REMARK    2  A    between atoms: C_2  and  C_4
REMARK    3  A    between atoms: C_2  and  N_33
REMARK    4  A    between atoms: N_6  and  C_7
REMARK    5  A    between atoms: C_7  and  C_9
REMARK    6  A    between atoms: C_7  and  C_30
REMARK    7  A    between atoms: C_9  and  C_10
REMARK    8  A    between atoms: C_10  and  C_11
REMARK    9  A    between atoms: N_13  and  CA_14
REMARK   10  A    between atoms: CA_14  and  CB_16
REMARK   11  A    between atoms: CA_14  and  C_21
REMARK   12  A    between atoms: CB_16  and  CG_17
REMARK   13  A    between atoms: CG_17  and  CD_18
REMARK   14  A    between atoms: CD_18  and  CE_19
REMARK   15  A    between atoms: CE_19  and  NZ_20
REMARK   16  A    between atoms: N_23  and  CA_24
REMARK   17  A    between atoms: CA_24  and  CB_26
REMARK   18  A    between atoms: CA_24  and  C_27
REMARK   19  A    between atoms: C_27  and  OXT_29
REMARK   20  A    between atoms: C_34  and  C_36
REMARK   21  A    between atoms: C_36  and  C_37
REMARK   22  A    between atoms: C_36  and  O_38
REMARK   23  A    between atoms: O_38  and  C_39
REMARK   24  A    between atoms: C_41  and  O_56
REMARK   25  A    between atoms: C_43  and  C_54
REMARK   26  A    between atoms: C_46  and  O_53
REMARK   27  A    between atoms: C_47  and  N_49
REMARK   28  A    between atoms: C_50  and  O_52
REMARK   29  A    between atoms: C_54  and  O_55
REMARK   30  A    between atoms: O_56  and  C_57
REMARK   31  A    between atoms: C_59  and  C_72
REMARK   32  A    between atoms: C_61  and  O_71
REMARK   33  A    between atoms: C_63  and  O_70
REMARK   34  A    between atoms: C_65  and  C_68
REMARK   35  A    between atoms: C_68  and  O_69
REMARK   36  A    between atoms: C_72  and  C_73
REMARK   37  A    between atoms: C_73  and  C_75
REMARK                            x       y       z     vdW  Elec       q    Type
REMARK                         _______ _______ _______ _____ _____    ______ ____
ROOT
ATOM      1  N   UNK A   0       5.667  -6.102  23.489  0.00  0.00    -0.302 N 
ATOM      2  H   UNK A   0       6.155  -6.310  24.353  0.00  0.00    +0.150 HD
ATOM      3  C   UNK A   0       4.302  -6.175  23.439  0.00  0.00    +0.242 C 
ATOM      4  O   UNK A   0       3.641  -5.768  22.489  0.00  0.00    -0.273 OA
ENDROOT
BRANCH   1   6
ATOM      5  C   UNK A   0       5.993  -5.829  21.014  0.00  0.00    +0.038 C 
ATOM      6  C   UNK A   0       6.484  -5.522  22.414  0.00  0.00    +0.156 C 
BRANCH   6   7
ATOM      7  C   UNK A   0       6.676  -4.011  22.564  0.00  0.00    +0.234 C 
ATOM      8  N   UNK A   0       7.984  -3.604  22.707  0.00  0.00    -0.302 N 
ATOM      9  H   UNK A   0       8.699  -4.328  22.825  0.00  0.00    +0.150 HD
ATOM     10  O   UNK A   0       5.719  -3.246  22.546  0.00  0.00    -0.274 OA
BRANCH   8  11
ATOM     11  C   UNK A   0       8.392  -2.222  22.946  0.00  0.00    +0.159 C 
BRANCH  11  12
ATOM     12  C   UNK A   0       9.394  -2.129  24.129  0.00  0.00    +0.231 C 
ATOM     13  N   UNK A   0      10.125  -3.265  24.372  0.00  0.00    -0.328 N 
ATOM     14  H   UNK A   0      10.886  -3.142  25.025  0.00  0.00    +0.145 HD
ATOM     15  H   UNK A   0      10.274  -3.904  23.605  0.00  0.00    +0.145 HD
ATOM     16  O   UNK A   0       9.473  -1.175  24.899  0.00  0.00    -0.274 OA
ENDBRANCH  11  12
BRANCH  11  17
ATOM     17  C   UNK A   0       8.924  -1.478  21.711  0.00  0.00    +0.041 C 
BRANCH  17  18
ATOM     18  C   UNK A   0      10.078  -0.491  21.918  0.00  0.00    +0.098 C 
BRANCH  18  19
ATOM     19  C   UNK A   0       9.715   0.929  22.318  0.00  0.00    +0.214 C 
ATOM     20  N   LYS A   1      10.331   1.314  23.508  0.00  0.00    -0.304 N 
ATOM     21  H   LYS A   1      10.632   0.568  24.124  0.00  0.00    +0.149 HD
ATOM     22  O   UNK A   0       8.995   1.668  21.661  0.00  0.00    -0.276 OA
BRANCH  20  23
ATOM     23  CA  LYS A   1      10.053   2.618  24.148  0.00  0.00    +0.159 C 
BRANCH  23  24
ATOM     24  C   LYS A   1       8.548   2.788  24.491  0.00  0.00    +0.234 C 
ATOM     25  N   ALA A   2       7.762   3.450  23.575  0.00  0.00    -0.301 N 
ATOM     26  H   ALA A   2       8.075   3.342  22.616  0.00  0.00    +0.150 HD
ATOM     27  O   LYS A   1       8.067   2.460  25.579  0.00  0.00    -0.274 OA
BRANCH  25  28
ATOM     28  CA  ALA A   2       6.304   3.593  23.790  0.00  0.00    +0.179 C 
ATOM     29  CB  ALA A   2       5.560   3.406  22.471  0.00  0.00    +0.040 C 
BRANCH  28  30
ATOM     30  C   ALA A   2       5.892   4.953  24.421  0.00  0.00    +0.325 C 
ATOM     31  O   ALA A   2       5.184   5.784  23.876  0.00  0.00    -0.249 OA
BRANCH  30  32
ATOM     32  OXT ALA A   2       6.306   5.128  25.702  0.00  0.00    -0.479 OA
ATOM     33  HXT ALA A   2       5.861   4.498  26.334  0.00  0.00    +0.295 HD
ENDBRANCH  30  32
ENDBRANCH  28  30
ENDBRANCH  25  28
ENDBRANCH  23  24
BRANCH  23  34
ATOM     34  CB  LYS A   1      10.539   3.753  23.223  0.00  0.00    +0.032 C 
BRANCH  34  35
ATOM     35  CG  LYS A   1      10.625   5.155  23.843  0.00  0.00    +0.003 C 
BRANCH  35  36
ATOM     36  CD  LYS A   1      12.028   5.765  23.827  0.00  0.00    +0.015 C 
BRANCH  36  37
ATOM     37  CE  LYS A   1      12.848   5.206  22.664  0.00  0.00    +0.077 C 
BRANCH  37  38
ATOM     38  NZ  LYS A   1      14.260   5.142  23.019  0.00  0.00    -0.330 NA
ATOM     39  HZ1 LYS A   1      14.351   5.161  24.035  0.00  0.00    +0.118 HD
ATOM     40  HZ2 LYS A   1      14.646   4.246  22.722  0.00  0.00    +0.118 HD
ENDBRANCH  37  38
ENDBRANCH  36  37
ENDBRANCH  35  36
ENDBRANCH  34  35
ENDBRANCH  23  34
ENDBRANCH  20  23
ENDBRANCH  18  19
ENDBRANCH  17  18
ENDBRANCH  11  17
ENDBRANCH   8  11
ENDBRANCH   6   7
ENDBRANCH   1   6
BRANCH   3  41
ATOM     41  C   UNK A   0       3.639  -6.819  24.672  0.00  0.00    +0.201 C 
ATOM     42  C   UNK A   0       4.738  -7.150  25.676  0.00  0.00    +0.048 C 
BRANCH  41  43
ATOM     43  O   UNK A   0       2.656  -6.002  25.312  0.00  0.00    -0.360 OA
BRANCH  43  44
ATOM     44  C   UNK A   0       3.158  -4.972  26.189  0.00  0.00    +0.176 C 
ATOM     45  C   UNK A   0       2.512  -5.121  27.596  0.00  0.00    +0.163 C 
ATOM     46  C   UNK A   0       1.023  -4.680  27.555  0.00  0.00    +0.271 C 
ATOM     47  O   UNK A   0       0.835  -3.401  26.959  0.00  0.00    -0.341 OA
ATOM     48  C   UNK A   0       1.363  -3.264  25.636  0.00  0.00    +0.178 C 
ATOM     49  C   UNK A   0       2.887  -3.558  25.633  0.00  0.00    +0.183 C 
BRANCH  45  50
ATOM     50  N   UNK A   0       3.278  -4.374  28.620  0.00  0.00    -0.271 N 
ATOM     51  H   UNK A   0       3.006  -3.411  28.779  0.00  0.00    +0.153 HD
ATOM     52  C   UNK A   0       4.018  -5.027  29.561  0.00  0.00    +0.398 C 
ATOM     53  O   UNK A   0       4.188  -6.230  29.632  0.00  0.00    -0.227 OA
BRANCH  52  54
ATOM     54  O   UNK A   0       4.584  -4.166  30.421  0.00  0.00    -0.466 OA
ATOM     55  H   UNK A   0       4.037  -3.376  30.569  0.00  0.00    +0.297 HD
ENDBRANCH  52  54
ENDBRANCH  45  50
BRANCH  46  56
ATOM     56  O   UNK A   0       0.472  -4.587  28.858  0.00  0.00    -0.365 OA
ATOM     57  H   UNK A   0      -0.491  -4.609  28.725  0.00  0.00    +0.213 HD
ENDBRANCH  46  56
BRANCH  48  58
ATOM     58  C   UNK A   0       0.555  -4.055  24.583  0.00  0.00    +0.190 C 
BRANCH  58  59
ATOM     59  O   UNK A   0       1.329  -4.433  23.449  0.00  0.00    -0.392 OA
ATOM     60  H   UNK A   0       2.274  -4.369  23.672  0.00  0.00    +0.210 HD
ENDBRANCH  58  59
ENDBRANCH  48  58
BRANCH  49  61
ATOM     61  O   UNK A   0       3.514  -2.506  26.399  0.00  0.00    -0.342 OA
BRANCH  61  62
ATOM     62  C   UNK A   0       4.789  -2.750  26.991  0.00  0.00    +0.257 C 
ATOM     63  O   UNK A   0       5.000  -1.810  28.046  0.00  0.00    -0.343 OA
ATOM     64  C   UNK A   0       5.187  -0.430  27.654  0.00  0.00    +0.177 C 
ATOM     65  C   UNK A   0       6.214  -0.232  26.513  0.00  0.00    +0.174 C 
ATOM     66  C   UNK A   0       6.070  -1.297  25.414  0.00  0.00    +0.154 C 
ATOM     67  C   UNK A   0       5.966  -2.711  26.012  0.00  0.00    +0.083 C 
BRANCH  66  68
ATOM     68  O   UNK A   0       4.955  -1.016  24.566  0.00  0.00    -0.389 OA
ATOM     69  H   UNK A   0       4.184  -0.816  25.126  0.00  0.00    +0.210 HD
ENDBRANCH  66  68
BRANCH  65  70
ATOM     70  O   UNK A   0       7.542  -0.301  27.060  0.00  0.00    -0.387 OA
ATOM     71  H   UNK A   0       7.768   0.584  27.401  0.00  0.00    +0.210 HD
ENDBRANCH  65  70
BRANCH  67  72
ATOM     72  C   UNK A   0       7.250  -3.143  26.753  0.00  0.00    +0.085 C 
BRANCH  72  73
ATOM     73  C   UNK A   0       7.532  -4.630  26.592  0.00  0.00    +0.131 C 
ATOM     74  C   UNK A   0       7.171  -5.533  27.739  0.00  0.00    +0.086 C 
ATOM     75  O   UNK A   0       7.986  -5.097  25.552  0.00  0.00    -0.298 OA
ENDBRANCH  72  73
ENDBRANCH  67  72
BRANCH  64  76
ATOM     76  C   UNK A   0       3.849   0.275  27.358  0.00  0.00    +0.190 C 
BRANCH  76  77
ATOM     77  O   UNK A   0       2.998   0.267  28.501  0.00  0.00    -0.392 OA
ATOM     78  H   UNK A   0       3.189   1.071  29.014  0.00  0.00    +0.210 HD
ENDBRANCH  76  77
ENDBRANCH  64  76
ENDBRANCH  61  62
ENDBRANCH  49  61
ENDBRANCH  43  44
ENDBRANCH  41  43
ENDBRANCH   3  41
TORSDOF 33
ENDMDL
MODEL 7
REMARK VINA RESULT:      -5.2      2.031      8.535
REMARK  Name = 
REMARK  37 active torsions:
REMARK  status: ('A' for Active; 'I' for Inactive)
REMARK    1  A    between atoms: C_1  and  C_2
REMARK    2  A    between atoms: C_2  and  C_4
REMARK    3  A    between atoms: C_2  and  N_33
REMARK    4  A    between atoms: N_6  and  C_7
REMARK    5  A    between atoms: C_7  and  C_9
REMARK    6  A    between atoms: C_7  and  C_30
REMARK    7  A    between atoms: C_9  and  C_10
REMARK    8  A    between atoms: C_10  and  C_11
REMARK    9  A    between atoms: N_13  and  CA_14
REMARK   10  A    between atoms: CA_14  and  CB_16
REMARK   11  A    between atoms: CA_14  and  C_21
REMARK   12  A    between atoms: CB_16  and  CG_17
REMARK   13  A    between atoms: CG_17  and  CD_18
REMARK   14  A    between atoms: CD_18  and  CE_19
REMARK   15  A    between atoms: CE_19  and  NZ_20
REMARK   16  A    between atoms: N_23  and  CA_24
REMARK   17  A    between atoms: CA_24  and  CB_26
REMARK   18  A    between atoms: CA_24  and  C_27
REMARK   19  A    between atoms: C_27  and  OXT_29
REMARK   20  A    between atoms: C_34  and  C_36
REMARK   21  A    between atoms: C_36  and  C_37
REMARK   22  A    between atoms: C_36  and  O_38
REMARK   23  A    between atoms: O_38  and  C_39
REMARK   24  A    between atoms: C_41  and  O_56
REMARK   25  A    between atoms: C_43  and  C_54
REMARK   26  A    between atoms: C_46  and  O_53
REMARK   27  A    between atoms: C_47  and  N_49
REMARK   28  A    between atoms: C_50  and  O_52
REMARK   29  A    between atoms: C_54  and  O_55
REMARK   30  A    between atoms: O_56  and  C_57
REMARK   31  A    between atoms: C_59  and  C_72
REMARK   32  A    between atoms: C_61  and  O_71
REMARK   33  A    between atoms: C_63  and  O_70
REMARK   34  A    between atoms: C_65  and  C_68
REMARK   35  A    between atoms: C_68  and  O_69
REMARK   36  A    between atoms: C_72  and  C_73
REMARK   37  A    between atoms: C_73  and  C_75
REMARK                            x       y       z     vdW  Elec       q    Type
REMARK                         _______ _______ _______ _____ _____    ______ ____
ROOT
ATOM      1  N   UNK A   0       3.068  -0.897  28.159  0.00  0.00    -0.302 N 
ATOM      2  H   UNK A   0       3.167  -0.807  27.155  0.00  0.00    +0.150 HD
ATOM      3  C   UNK A   0       2.650  -2.081  28.703  0.00  0.00    +0.242 C 
ATOM      4  O   UNK A   0       2.679  -2.315  29.907  0.00  0.00    -0.273 OA
ENDROOT
BRANCH   1   6
ATOM      5  C   UNK A   0       5.091   0.135  29.232  0.00  0.00    +0.038 C 
ATOM      6  C   UNK A   0       3.603   0.214  28.959  0.00  0.00    +0.156 C 
BRANCH   6   7
ATOM      7  C   UNK A   0       3.266   1.585  28.371  0.00  0.00    +0.234 C 
ATOM      8  N   UNK A   0       3.061   1.598  27.009  0.00  0.00    -0.302 N 
ATOM      9  H   UNK A   0       3.264   0.741  26.487  0.00  0.00    +0.150 HD
ATOM     10  O   UNK A   0       3.186   2.579  29.085  0.00  0.00    -0.274 OA
BRANCH   8  11
ATOM     11  C   UNK A   0       2.810   2.807  26.228  0.00  0.00    +0.159 C 
BRANCH  11  12
ATOM     12  C   UNK A   0       1.294   3.148  26.193  0.00  0.00    +0.231 C 
ATOM     13  N   UNK A   0       0.661   3.135  27.410  0.00  0.00    -0.328 N 
ATOM     14  H   UNK A   0      -0.274   3.521  27.400  0.00  0.00    +0.145 HD
ATOM     15  H   UNK A   0       1.219   3.299  28.236  0.00  0.00    +0.145 HD
ATOM     16  O   UNK A   0       0.640   3.301  25.164  0.00  0.00    -0.274 OA
ENDBRANCH  11  12
BRANCH  11  17
ATOM     17  C   UNK A   0       3.643   4.031  26.637  0.00  0.00    +0.041 C 
BRANCH  17  18
ATOM     18  C   UNK A   0       3.865   5.124  25.586  0.00  0.00    +0.098 C 
BRANCH  18  19
ATOM     19  C   UNK A   0       4.247   4.675  24.186  0.00  0.00    +0.214 C 
ATOM     20  N   LYS A   1       5.628   4.620  24.009  0.00  0.00    -0.304 N 
ATOM     21  H   LYS A   1       6.188   5.181  24.640  0.00  0.00    +0.149 HD
ATOM     22  O   UNK A   0       3.442   4.363  23.319  0.00  0.00    -0.276 OA
BRANCH  20  23
ATOM     23  CA  LYS A   1       6.239   4.302  22.701  0.00  0.00    +0.159 C 
BRANCH  23  24
ATOM     24  C   LYS A   1       6.985   2.940  22.722  0.00  0.00    +0.234 C 
ATOM     25  N   ALA A   2       8.297   2.945  23.140  0.00  0.00    -0.301 N 
ATOM     26  H   ALA A   2       8.506   3.672  23.816  0.00  0.00    +0.150 HD
ATOM     27  O   LYS A   1       6.493   1.898  22.282  0.00  0.00    -0.274 OA
BRANCH  25  28
ATOM     28  CA  ALA A   2       9.059   1.682  23.260  0.00  0.00    +0.179 C 
ATOM     29  CB  ALA A   2      10.029   1.764  24.435  0.00  0.00    +0.040 C 
BRANCH  28  30
ATOM     30  C   ALA A   2       9.847   1.299  21.974  0.00  0.00    +0.325 C 
ATOM     31  O   ALA A   2       9.828   0.197  21.452  0.00  0.00    -0.249 OA
BRANCH  30  32
ATOM     32  OXT ALA A   2      10.510   2.331  21.391  0.00  0.00    -0.479 OA
ATOM     33  HXT ALA A   2      10.000   2.729  20.632  0.00  0.00    +0.295 HD
ENDBRANCH  30  32
ENDBRANCH  28  30
ENDBRANCH  25  28
ENDBRANCH  23  24
BRANCH  23  34
ATOM     34  CB  LYS A   1       7.190   5.445  22.291  0.00  0.00    +0.032 C 
BRANCH  34  35
ATOM     35  CG  LYS A   1       7.566   6.453  23.387  0.00  0.00    +0.003 C 
BRANCH  35  36
ATOM     36  CD  LYS A   1       9.051   6.454  23.757  0.00  0.00    +0.015 C 
BRANCH  36  37
ATOM     37  CE  LYS A   1       9.275   5.758  25.100  0.00  0.00    +0.077 C 
BRANCH  37  38
ATOM     38  NZ  LYS A   1       8.004   5.523  25.772  0.00  0.00    -0.330 NA
ATOM     39  HZ1 LYS A   1       8.180   5.284  26.747  0.00  0.00    +0.118 HD
ATOM     40  HZ2 LYS A   1       7.464   6.389  25.790  0.00  0.00    +0.118 HD
ENDBRANCH  37  38
ENDBRANCH  36  37
ENDBRANCH  35  36
ENDBRANCH  34  35
ENDBRANCH  23  34
ENDBRANCH  20  23
ENDBRANCH  18  19
ENDBRANCH  17  18
ENDBRANCH  11  17
ENDBRANCH   8  11
ENDBRANCH   6   7
ENDBRANCH   1   6
BRANCH   3  41
ATOM     41  C   UNK A   0       2.124  -3.113  27.688  0.00  0.00    +0.201 C 
ATOM     42  C   UNK A   0       2.078  -2.443  26.319  0.00  0.00    +0.048 C 
BRANCH  41  43
ATOM     43  O   UNK A   0       2.908  -4.306  27.595  0.00  0.00    -0.360 OA
BRANCH  43  44
ATOM     44  C   UNK A   0       3.928  -4.318  26.575  0.00  0.00    +0.176 C 
ATOM     45  C   UNK A   0       3.728  -5.552  25.649  0.00  0.00    +0.163 C 
ATOM     46  C   UNK A   0       4.131  -6.855  26.392  0.00  0.00    +0.271 C 
ATOM     47  O   UNK A   0       5.419  -6.781  26.993  0.00  0.00    -0.341 OA
ATOM     48  C   UNK A   0       5.602  -5.690  27.903  0.00  0.00    +0.178 C 
ATOM     49  C   UNK A   0       5.348  -4.341  27.180  0.00  0.00    +0.183 C 
BRANCH  45  50
ATOM     50  N   UNK A   0       4.469  -5.392  24.377  0.00  0.00    -0.271 N 
ATOM     51  H   UNK A   0       5.435  -5.699  24.372  0.00  0.00    +0.153 HD
ATOM     52  C   UNK A   0       3.810  -5.228  23.193  0.00  0.00    +0.398 C 
ATOM     53  O   UNK A   0       2.606  -5.128  23.051  0.00  0.00    -0.227 OA
BRANCH  52  54
ATOM     54  O   UNK A   0       4.668  -5.161  22.163  0.00  0.00    -0.466 OA
ATOM     55  H   UNK A   0       4.369  -5.677  21.396  0.00  0.00    +0.297 HD
ENDBRANCH  52  54
ENDBRANCH  45  50
BRANCH  46  56
ATOM     56  O   UNK A   0       4.178  -7.964  25.509  0.00  0.00    -0.365 OA
ATOM     57  H   UNK A   0       5.122  -8.181  25.431  0.00  0.00    +0.213 HD
ENDBRANCH  46  56
BRANCH  48  58
ATOM     58  C   UNK A   0       4.816  -5.870  29.220  0.00  0.00    +0.190 C 
BRANCH  58  59
ATOM     59  O   UNK A   0       4.682  -4.663  29.964  0.00  0.00    -0.392 OA
ATOM     60  H   UNK A   0       3.798  -4.289  29.808  0.00  0.00    +0.210 HD
ENDBRANCH  58  59
ENDBRANCH  48  58
BRANCH  49  61
ATOM     61  O   UNK A   0       6.397  -4.191  26.198  0.00  0.00    -0.342 OA
BRANCH  61  62
ATOM     62  C   UNK A   0       6.379  -3.052  25.339  0.00  0.00    +0.257 C 
ATOM     63  O   UNK A   0       6.680  -3.470  24.006  0.00  0.00    -0.343 OA
ATOM     64  C   UNK A   0       8.032  -3.925  23.761  0.00  0.00    +0.177 C 
ATOM     65  C   UNK A   0       9.125  -2.978  24.313  0.00  0.00    +0.174 C 
ATOM     66  C   UNK A   0       8.772  -2.436  25.706  0.00  0.00    +0.154 C 
ATOM     67  C   UNK A   0       7.323  -1.921  25.759  0.00  0.00    +0.083 C 
BRANCH  66  68
ATOM     68  O   UNK A   0       9.003  -3.419  26.716  0.00  0.00    -0.389 OA
ATOM     69  H   UNK A   0       9.033  -4.296  26.293  0.00  0.00    +0.210 HD
ENDBRANCH  66  68
BRANCH  65  70
ATOM     70  O   UNK A   0       9.289  -1.872  23.408  0.00  0.00    -0.387 OA
ATOM     71  H   UNK A   0       9.343  -1.058  23.943  0.00  0.00    +0.210 HD
ENDBRANCH  65  70
BRANCH  67  72
ATOM     72  C   UNK A   0       7.088  -0.703  24.839  0.00  0.00    +0.085 C 
BRANCH  72  73
ATOM     73  C   UNK A   0       6.100   0.287  25.440  0.00  0.00    +0.131 C 
ATOM     74  C   UNK A   0       6.663   1.490  26.142  0.00  0.00    +0.086 C 
ATOM     75  O   UNK A   0       4.887   0.150  25.317  0.00  0.00    -0.298 OA
ENDBRANCH  72  73
ENDBRANCH  67  72
BRANCH  64  76
ATOM     76  C   UNK A   0       8.244  -5.382  24.215  0.00  0.00    +0.190 C 
BRANCH  76  77
ATOM     77  O   UNK A   0       9.599  -5.611  24.596  0.00  0.00    -0.392 OA
ATOM     78  H   UNK A   0      10.163  -5.112  23.980  0.00  0.00    +0.210 HD
ENDBRANCH  76  77
ENDBRANCH  64  76
ENDBRANCH  61  62
ENDBRANCH  49  61
ENDBRANCH  43  44
ENDBRANCH  41  43
ENDBRANCH   3  41
TORSDOF 33
ENDMDL
MODEL 8
REMARK VINA RESULT:      -5.2      1.991      3.759
REMARK  Name = 
REMARK  37 active torsions:
REMARK  status: ('A' for Active; 'I' for Inactive)
REMARK    1  A    between atoms: C_1  and  C_2
REMARK    2  A    between atoms: C_2  and  C_4
REMARK    3  A    between atoms: C_2  and  N_33
REMARK    4  A    between atoms: N_6  and  C_7
REMARK    5  A    between atoms: C_7  and  C_9
REMARK    6  A    between atoms: C_7  and  C_30
REMARK    7  A    between atoms: C_9  and  C_10
REMARK    8  A    between atoms: C_10  and  C_11
REMARK    9  A    between atoms: N_13  and  CA_14
REMARK   10  A    between atoms: CA_14  and  CB_16
REMARK   11  A    between atoms: CA_14  and  C_21
REMARK   12  A    between atoms: CB_16  and  CG_17
REMARK   13  A    between atoms: CG_17  and  CD_18
REMARK   14  A    between atoms: CD_18  and  CE_19
REMARK   15  A    between atoms: CE_19  and  NZ_20
REMARK   16  A    between atoms: N_23  and  CA_24
REMARK   17  A    between atoms: CA_24  and  CB_26
REMARK   18  A    between atoms: CA_24  and  C_27
REMARK   19  A    between atoms: C_27  and  OXT_29
REMARK   20  A    between atoms: C_34  and  C_36
REMARK   21  A    between atoms: C_36  and  C_37
REMARK   22  A    between atoms: C_36  and  O_38
REMARK   23  A    between atoms: O_38  and  C_39
REMARK   24  A    between atoms: C_41  and  O_56
REMARK   25  A    between atoms: C_43  and  C_54
REMARK   26  A    between atoms: C_46  and  O_53
REMARK   27  A    between atoms: C_47  and  N_49
REMARK   28  A    between atoms: C_50  and  O_52
REMARK   29  A    between atoms: C_54  and  O_55
REMARK   30  A    between atoms: O_56  and  C_57
REMARK   31  A    between atoms: C_59  and  C_72
REMARK   32  A    between atoms: C_61  and  O_71
REMARK   33  A    between atoms: C_63  and  O_70
REMARK   34  A    between atoms: C_65  and  C_68
REMARK   35  A    between atoms: C_68  and  O_69
REMARK   36  A    between atoms: C_72  and  C_73
REMARK   37  A    between atoms: C_73  and  C_75
REMARK                            x       y       z     vdW  Elec       q    Type
REMARK                         _______ _______ _______ _____ _____    ______ ____
ROOT
ATOM      1  N   UNK A   0       4.396  -0.797  28.342  0.00  0.00    -0.302 N 
ATOM      2  H   UNK A   0       4.633  -0.597  27.378  0.00  0.00    +0.150 HD
ATOM      3  C   UNK A   0       4.748   0.082  29.330  0.00  0.00    +0.242 C 
ATOM      4  O   UNK A   0       4.342  -0.005  30.485  0.00  0.00    -0.273 OA
ENDROOT
BRANCH   1   6
ATOM      5  C   UNK A   0       2.017  -1.571  28.565  0.00  0.00    +0.038 C 
ATOM      6  C   UNK A   0       3.488  -1.932  28.560  0.00  0.00    +0.156 C 
BRANCH   6   7
ATOM      7  C   UNK A   0       3.726  -3.079  27.576  0.00  0.00    +0.234 C 
ATOM      8  N   UNK A   0       2.773  -4.073  27.602  0.00  0.00    -0.302 N 
ATOM      9  H   UNK A   0       2.065  -4.037  28.341  0.00  0.00    +0.150 HD
ATOM     10  O   UNK A   0       4.697  -3.081  26.828  0.00  0.00    -0.274 OA
BRANCH   8  11
ATOM     11  C   UNK A   0       2.843  -5.298  26.809  0.00  0.00    +0.159 C 
BRANCH  11  12
ATOM     12  C   UNK A   0       2.885  -6.556  27.720  0.00  0.00    +0.231 C 
ATOM     13  N   UNK A   0       2.455  -7.720  27.135  0.00  0.00    -0.328 N 
ATOM     14  H   UNK A   0       2.645  -8.554  27.674  0.00  0.00    +0.145 HD
ATOM     15  H   UNK A   0       2.517  -7.796  26.131  0.00  0.00    +0.145 HD
ATOM     16  O   UNK A   0       3.155  -6.536  28.919  0.00  0.00    -0.274 OA
ENDBRANCH  11  12
BRANCH  11  17
ATOM     17  C   UNK A   0       1.760  -5.436  25.727  0.00  0.00    +0.041 C 
BRANCH  17  18
ATOM     18  C   UNK A   0       2.219  -5.514  24.267  0.00  0.00    +0.098 C 
BRANCH  18  19
ATOM     19  C   UNK A   0       3.574  -6.146  23.997  0.00  0.00    +0.214 C 
ATOM     20  N   LYS A   1       4.495  -5.225  23.502  0.00  0.00    -0.304 N 
ATOM     21  H   LYS A   1       4.114  -4.395  23.062  0.00  0.00    +0.149 HD
ATOM     22  O   UNK A   0       3.843  -7.319  24.218  0.00  0.00    -0.276 OA
BRANCH  20  23
ATOM     23  CA  LYS A   1       5.852  -5.626  23.074  0.00  0.00    +0.159 C 
BRANCH  23  24
ATOM     24  C   LYS A   1       6.875  -5.556  24.241  0.00  0.00    +0.234 C 
ATOM     25  N   ALA A   2       6.374  -5.592  25.523  0.00  0.00    -0.301 N 
ATOM     26  H   ALA A   2       5.512  -6.120  25.609  0.00  0.00    +0.150 HD
ATOM     27  O   LYS A   1       8.080  -5.359  24.066  0.00  0.00    -0.274 OA
BRANCH  25  28
ATOM     28  CA  ALA A   2       7.282  -5.603  26.692  0.00  0.00    +0.179 C 
ATOM     29  CB  ALA A   2       6.473  -5.659  27.984  0.00  0.00    +0.040 C 
BRANCH  28  30
ATOM     30  C   ALA A   2       8.249  -4.386  26.747  0.00  0.00    +0.325 C 
ATOM     31  O   ALA A   2       7.896  -3.225  26.868  0.00  0.00    -0.249 OA
BRANCH  30  32
ATOM     32  OXT ALA A   2       9.567  -4.714  26.748  0.00  0.00    -0.479 OA
ATOM     33  HXT ALA A   2       9.941  -4.782  27.670  0.00  0.00    +0.295 HD
ENDBRANCH  30  32
ENDBRANCH  28  30
ENDBRANCH  25  28
ENDBRANCH  23  24
BRANCH  23  34
ATOM     34  CB  LYS A   1       6.299  -4.738  21.895  0.00  0.00    +0.032 C 
BRANCH  34  35
ATOM     35  CG  LYS A   1       5.746  -3.305  21.866  0.00  0.00    +0.003 C 
BRANCH  35  36
ATOM     36  CD  LYS A   1       6.662  -2.265  22.514  0.00  0.00    +0.015 C 
BRANCH  36  37
ATOM     37  CE  LYS A   1       6.239  -1.996  23.958  0.00  0.00    +0.077 C 
BRANCH  37  38
ATOM     38  NZ  LYS A   1       4.821  -2.281  24.136  0.00  0.00    -0.330 NA
ATOM     39  HZ1 LYS A   1       4.330  -2.098  23.261  0.00  0.00    +0.118 HD
ATOM     40  HZ2 LYS A   1       4.695  -3.276  24.323  0.00  0.00    +0.118 HD
ENDBRANCH  37  38
ENDBRANCH  36  37
ENDBRANCH  35  36
ENDBRANCH  34  35
ENDBRANCH  23  34
ENDBRANCH  20  23
ENDBRANCH  18  19
ENDBRANCH  17  18
ENDBRANCH  11  17
ENDBRANCH   8  11
ENDBRANCH   6   7
ENDBRANCH   1   6
BRANCH   3  41
ATOM     41  C   UNK A   0       5.710   1.203  28.890  0.00  0.00    +0.201 C 
ATOM     42  C   UNK A   0       6.831   0.566  28.076  0.00  0.00    +0.048 C 
BRANCH  41  43
ATOM     43  O   UNK A   0       5.101   2.236  28.113  0.00  0.00    -0.360 OA
BRANCH  43  44
ATOM     44  C   UNK A   0       5.899   2.780  27.041  0.00  0.00    +0.176 C 
ATOM     45  C   UNK A   0       5.883   4.334  27.112  0.00  0.00    +0.163 C 
ATOM     46  C   UNK A   0       4.499   4.880  26.666  0.00  0.00    +0.271 C 
ATOM     47  O   UNK A   0       4.064   4.349  25.419  0.00  0.00    -0.341 OA
ATOM     48  C   UNK A   0       4.006   2.920  25.354  0.00  0.00    +0.178 C 
ATOM     49  C   UNK A   0       5.402   2.312  25.657  0.00  0.00    +0.183 C 
BRANCH  45  50
ATOM     50  N   UNK A   0       6.987   4.918  26.316  0.00  0.00    -0.271 N 
ATOM     51  H   UNK A   0       6.855   4.954  25.312  0.00  0.00    +0.153 HD
ATOM     52  C   UNK A   0       7.930   5.714  26.898  0.00  0.00    +0.398 C 
ATOM     53  O   UNK A   0       8.018   5.972  28.084  0.00  0.00    -0.227 OA
BRANCH  52  54
ATOM     54  O   UNK A   0       8.801   6.181  25.991  0.00  0.00    -0.466 OA
ATOM     55  H   UNK A   0       9.213   5.470  25.471  0.00  0.00    +0.297 HD
ENDBRANCH  52  54
ENDBRANCH  45  50
BRANCH  46  56
ATOM     56  O   UNK A   0       4.523   6.288  26.501  0.00  0.00    -0.365 OA
ATOM     57  H   UNK A   0       5.247   6.594  27.073  0.00  0.00    +0.213 HD
ENDBRANCH  46  56
BRANCH  48  58
ATOM     58  C   UNK A   0       2.853   2.328  26.196  0.00  0.00    +0.190 C 
BRANCH  58  59
ATOM     59  O   UNK A   0       2.968   0.923  26.396  0.00  0.00    -0.392 OA
ATOM     60  H   UNK A   0       3.740   0.593  25.905  0.00  0.00    +0.210 HD
ENDBRANCH  58  59
ENDBRANCH  48  58
BRANCH  49  61
ATOM     61  O   UNK A   0       6.269   2.702  24.569  0.00  0.00    -0.342 OA
BRANCH  61  62
ATOM     62  C   UNK A   0       7.649   2.346  24.626  0.00  0.00    +0.257 C 
ATOM     63  O   UNK A   0       8.432   3.440  24.146  0.00  0.00    -0.343 OA
ATOM     64  C   UNK A   0       8.328   3.738  22.733  0.00  0.00    +0.177 C 
ATOM     65  C   UNK A   0       8.470   2.500  21.815  0.00  0.00    +0.174 C 
ATOM     66  C   UNK A   0       7.717   1.280  22.368  0.00  0.00    +0.154 C 
ATOM     67  C   UNK A   0       8.010   1.068  23.863  0.00  0.00    +0.083 C 
BRANCH  66  68
ATOM     68  O   UNK A   0       6.312   1.392  22.133  0.00  0.00    -0.389 OA
ATOM     69  H   UNK A   0       5.918   0.503  22.188  0.00  0.00    +0.210 HD
ENDBRANCH  66  68
BRANCH  65  70
ATOM     70  O   UNK A   0       9.864   2.169  21.685  0.00  0.00    -0.387 OA
ATOM     71  H   UNK A   0      10.176   1.856  22.554  0.00  0.00    +0.210 HD
ENDBRANCH  65  70
BRANCH  67  72
ATOM     72  C   UNK A   0       9.490   0.721  24.138  0.00  0.00    +0.085 C 
BRANCH  72  73
ATOM     73  C   UNK A   0       9.786  -0.753  23.897  0.00  0.00    +0.131 C 
ATOM     74  C   UNK A   0      10.392  -1.132  22.575  0.00  0.00    +0.086 C 
ATOM     75  O   UNK A   0       9.594  -1.604  24.760  0.00  0.00    -0.298 OA
ENDBRANCH  72  73
ENDBRANCH  67  72
BRANCH  64  76
ATOM     76  C   UNK A   0       7.066   4.560  22.406  0.00  0.00    +0.190 C 
BRANCH  76  77
ATOM     77  O   UNK A   0       7.374   5.658  21.550  0.00  0.00    -0.392 OA
ATOM     78  H   UNK A   0       7.338   5.332  20.634  0.00  0.00    +0.210 HD
ENDBRANCH  76  77
ENDBRANCH  64  76
ENDBRANCH  61  62
ENDBRANCH  49  61
ENDBRANCH  43  44
ENDBRANCH  41  43
ENDBRANCH   3  41
TORSDOF 33
ENDMDL
MODEL 9
REMARK VINA RESULT:      -5.0      2.740      9.399
REMARK  Name = 
REMARK  37 active torsions:
REMARK  status: ('A' for Active; 'I' for Inactive)
REMARK    1  A    between atoms: C_1  and  C_2
REMARK    2  A    between atoms: C_2  and  C_4
REMARK    3  A    between atoms: C_2  and  N_33
REMARK    4  A    between atoms: N_6  and  C_7
REMARK    5  A    between atoms: C_7  and  C_9
REMARK    6  A    between atoms: C_7  and  C_30
REMARK    7  A    between atoms: C_9  and  C_10
REMARK    8  A    between atoms: C_10  and  C_11
REMARK    9  A    between atoms: N_13  and  CA_14
REMARK   10  A    between atoms: CA_14  and  CB_16
REMARK   11  A    between atoms: CA_14  and  C_21
REMARK   12  A    between atoms: CB_16  and  CG_17
REMARK   13  A    between atoms: CG_17  and  CD_18
REMARK   14  A    between atoms: CD_18  and  CE_19
REMARK   15  A    between atoms: CE_19  and  NZ_20
REMARK   16  A    between atoms: N_23  and  CA_24
REMARK   17  A    between atoms: CA_24  and  CB_26
REMARK   18  A    between atoms: CA_24  and  C_27
REMARK   19  A    between atoms: C_27  and  OXT_29
REMARK   20  A    between atoms: C_34  and  C_36
REMARK   21  A    between atoms: C_36  and  C_37
REMARK   22  A    between atoms: C_36  and  O_38
REMARK   23  A    between atoms: O_38  and  C_39
REMARK   24  A    between atoms: C_41  and  O_56
REMARK   25  A    between atoms: C_43  and  C_54
REMARK   26  A    between atoms: C_46  and  O_53
REMARK   27  A    between atoms: C_47  and  N_49
REMARK   28  A    between atoms: C_50  and  O_52
REMARK   29  A    between atoms: C_54  and  O_55
REMARK   30  A    between atoms: O_56  and  C_57
REMARK   31  A    between atoms: C_59  and  C_72
REMARK   32  A    between atoms: C_61  and  O_71
REMARK   33  A    between atoms: C_63  and  O_70
REMARK   34  A    between atoms: C_65  and  C_68
REMARK   35  A    between atoms: C_68  and  O_69
REMARK   36  A    between atoms: C_72  and  C_73
REMARK   37  A    between atoms: C_73  and  C_75
REMARK                            x       y       z     vdW  Elec       q    Type
REMARK                         _______ _______ _______ _____ _____    ______ ____
ROOT
ATOM      1  N   UNK A   0       7.964   0.813  23.926  0.00  0.00    -0.302 N 
ATOM      2  H   UNK A   0       6.989   0.847  23.654  0.00  0.00    +0.150 HD
ATOM      3  C   UNK A   0       8.449  -0.274  24.601  0.00  0.00    +0.242 C 
ATOM      4  O   UNK A   0       9.645  -0.463  24.803  0.00  0.00    -0.273 OA
ENDROOT
BRANCH   1   6
ATOM      5  C   UNK A   0       8.899   1.876  21.851  0.00  0.00    +0.038 C 
ATOM      6  C   UNK A   0       8.826   1.863  23.364  0.00  0.00    +0.156 C 
BRANCH   6   7
ATOM      7  C   UNK A   0       8.461   3.261  23.867  0.00  0.00    +0.234 C 
ATOM      8  N   UNK A   0       8.415   4.234  22.893  0.00  0.00    -0.302 N 
ATOM      9  H   UNK A   0       8.739   3.986  21.954  0.00  0.00    +0.150 HD
ATOM     10  O   UNK A   0       8.226   3.467  25.052  0.00  0.00    -0.274 OA
BRANCH   8  11
ATOM     11  C   UNK A   0       8.169   5.649  23.158  0.00  0.00    +0.159 C 
BRANCH  11  12
ATOM     12  C   UNK A   0       9.457   6.359  23.658  0.00  0.00    +0.231 C 
ATOM     13  N   UNK A   0      10.616   5.990  23.022  0.00  0.00    -0.328 N 
ATOM     14  H   UNK A   0      11.414   6.574  23.233  0.00  0.00    +0.145 HD
ATOM     15  H   UNK A   0      10.545   5.628  22.082  0.00  0.00    +0.145 HD
ATOM     16  O   UNK A   0       9.505   7.108  24.631  0.00  0.00    -0.274 OA
ENDBRANCH  11  12
BRANCH  11  17
ATOM     17  C   UNK A   0       7.524   6.426  22.000  0.00  0.00    +0.041 C 
BRANCH  17  18
ATOM     18  C   UNK A   0       6.117   6.993  22.219  0.00  0.00    +0.098 C 
BRANCH  18  19
ATOM     19  C   UNK A   0       5.139   6.138  23.008  0.00  0.00    +0.214 C 
ATOM     20  N   LYS A   1       4.707   5.028  22.283  0.00  0.00    -0.304 N 
ATOM     21  H   LYS A   1       4.784   5.088  21.274  0.00  0.00    +0.149 HD
ATOM     22  O   UNK A   0       4.792   6.370  24.157  0.00  0.00    -0.276 OA
BRANCH  20  23
ATOM     23  CA  LYS A   1       3.679   4.103  22.806  0.00  0.00    +0.159 C 
BRANCH  23  24
ATOM     24  C   LYS A   1       4.250   3.155  23.896  0.00  0.00    +0.234 C 
ATOM     25  N   ALA A   2       3.866   3.387  25.198  0.00  0.00    -0.301 N 
ATOM     26  H   ALA A   2       2.940   3.792  25.283  0.00  0.00    +0.150 HD
ATOM     27  O   LYS A   1       5.101   2.295  23.658  0.00  0.00    -0.274 OA
BRANCH  25  28
ATOM     28  CA  ALA A   2       4.305   2.487  26.288  0.00  0.00    +0.179 C 
ATOM     29  CB  ALA A   2       3.105   2.057  27.127  0.00  0.00    +0.040 C 
BRANCH  28  30
ATOM     30  C   ALA A   2       5.382   3.110  27.221  0.00  0.00    +0.325 C 
ATOM     31  O   ALA A   2       6.204   2.469  27.856  0.00  0.00    -0.249 OA
BRANCH  30  32
ATOM     32  OXT ALA A   2       5.417   4.467  27.215  0.00  0.00    -0.479 OA
ATOM     33  HXT ALA A   2       6.129   4.826  26.616  0.00  0.00    +0.295 HD
ENDBRANCH  30  32
ENDBRANCH  28  30
ENDBRANCH  25  28
ENDBRANCH  23  24
BRANCH  23  34
ATOM     34  CB  LYS A   1       3.076   3.298  21.636  0.00  0.00    +0.032 C 
BRANCH  34  35
ATOM     35  CG  LYS A   1       1.813   3.878  20.982  0.00  0.00    +0.003 C 
BRANCH  35  36
ATOM     36  CD  LYS A   1       1.651   3.519  19.503  0.00  0.00    +0.015 C 
BRANCH  36  37
ATOM     37  CE  LYS A   1       1.908   4.739  18.618  0.00  0.00    +0.077 C 
BRANCH  37  38
ATOM     38  NZ  LYS A   1       1.996   4.344  17.218  0.00  0.00    -0.330 NA
ATOM     39  HZ1 LYS A   1       2.030   3.326  17.159  0.00  0.00    +0.118 HD
ATOM     40  HZ2 LYS A   1       1.144   4.622  16.731  0.00  0.00    +0.118 HD
ENDBRANCH  37  38
ENDBRANCH  36  37
ENDBRANCH  35  36
ENDBRANCH  34  35
ENDBRANCH  23  34
ENDBRANCH  20  23
ENDBRANCH  18  19
ENDBRANCH  17  18
ENDBRANCH  11  17
ENDBRANCH   8  11
ENDBRANCH   6   7
ENDBRANCH   1   6
BRANCH   3  41
ATOM     41  C   UNK A   0       7.376  -1.257  25.107  0.00  0.00    +0.201 C 
ATOM     42  C   UNK A   0       6.075  -0.482  25.283  0.00  0.00    +0.048 C 
BRANCH  41  43
ATOM     43  O   UNK A   0       7.139  -2.372  24.244  0.00  0.00    -0.360 OA
BRANCH  43  44
ATOM     44  C   UNK A   0       6.618  -3.562  24.871  0.00  0.00    +0.176 C 
ATOM     45  C   UNK A   0       7.753  -4.615  25.022  0.00  0.00    +0.163 C 
ATOM     46  C   UNK A   0       8.112  -5.224  23.638  0.00  0.00    +0.271 C 
ATOM     47  O   UNK A   0       6.974  -5.692  22.922  0.00  0.00    -0.341 OA
ATOM     48  C   UNK A   0       5.946  -4.718  22.712  0.00  0.00    +0.178 C 
ATOM     49  C   UNK A   0       5.443  -4.168  24.073  0.00  0.00    +0.183 C 
BRANCH  45  50
ATOM     50  N   UNK A   0       7.387  -5.661  26.005  0.00  0.00    -0.271 N 
ATOM     51  H   UNK A   0       7.573  -6.621  25.738  0.00  0.00    +0.153 HD
ATOM     52  C   UNK A   0       7.194  -5.355  27.320  0.00  0.00    +0.398 C 
ATOM     53  O   UNK A   0       7.227  -4.241  27.810  0.00  0.00    -0.227 OA
BRANCH  52  54
ATOM     54  O   UNK A   0       6.927  -6.454  28.042  0.00  0.00    -0.466 OA
ATOM     55  H   UNK A   0       6.013  -6.764  27.923  0.00  0.00    +0.297 HD
ENDBRANCH  52  54
ENDBRANCH  45  50
BRANCH  46  56
ATOM     56  O   UNK A   0       8.975  -6.341  23.770  0.00  0.00    -0.365 OA
ATOM     57  H   UNK A   0       8.474  -6.983  24.301  0.00  0.00    +0.213 HD
ENDBRANCH  46  56
BRANCH  48  58
ATOM     58  C   UNK A   0       6.348  -3.632  21.690  0.00  0.00    +0.190 C 
BRANCH  58  59
ATOM     59  O   UNK A   0       5.651  -2.404  21.872  0.00  0.00    -0.392 OA
ATOM     60  H   UNK A   0       5.532  -2.242  22.824  0.00  0.00    +0.210 HD
ENDBRANCH  58  59
ENDBRANCH  48  58
BRANCH  49  61
ATOM     61  O   UNK A   0       4.790  -5.264  24.749  0.00  0.00    -0.342 OA
BRANCH  61  62
ATOM     62  C   UNK A   0       3.410  -5.514  24.483  0.00  0.00    +0.257 C 
ATOM     63  O   UNK A   0       2.619  -4.561  25.196  0.00  0.00    -0.343 OA
ATOM     64  C   UNK A   0       2.603  -4.683  26.637  0.00  0.00    +0.177 C 
ATOM     65  C   UNK A   0       2.342  -6.121  27.145  0.00  0.00    +0.174 C 
ATOM     66  C   UNK A   0       3.106  -7.173  26.326  0.00  0.00    +0.154 C 
ATOM     67  C   UNK A   0       2.943  -6.934  24.814  0.00  0.00    +0.083 C 
BRANCH  66  68
ATOM     68  O   UNK A   0       4.486  -7.210  26.693  0.00  0.00    -0.389 OA
ATOM     69  H   UNK A   0       4.977  -6.604  26.109  0.00  0.00    +0.210 HD
ENDBRANCH  66  68
BRANCH  65  70
ATOM     70  O   UNK A   0       0.933  -6.399  27.064  0.00  0.00    -0.387 OA
ATOM     71  H   UNK A   0       0.704  -6.988  27.808  0.00  0.00    +0.210 HD
ENDBRANCH  65  70
BRANCH  67  72
ATOM     72  C   UNK A   0       1.486  -7.108  24.336  0.00  0.00    +0.085 C 
BRANCH  72  73
ATOM     73  C   UNK A   0       1.197  -8.533  23.885  0.00  0.00    +0.131 C 
ATOM     74  C   UNK A   0       0.801  -8.741  22.450  0.00  0.00    +0.086 C 
ATOM     75  O   UNK A   0       1.330  -9.493  24.638  0.00  0.00    -0.298 OA
ENDBRANCH  72  73
ENDBRANCH  67  72
BRANCH  64  76
ATOM     76  C   UNK A   0       3.854  -4.058  27.286  0.00  0.00    +0.190 C 
BRANCH  76  77
ATOM     77  O   UNK A   0       4.221  -4.756  28.474  0.00  0.00    -0.392 OA
ATOM     78  H   UNK A   0       4.914  -5.396  28.234  0.00  0.00    +0.210 HD
ENDBRANCH  76  77
ENDBRANCH  64  76
ENDBRANCH  61  62
ENDBRANCH  49  61
ENDBRANCH  43  44
ENDBRANCH  41  43
ENDBRANCH   3  41
TORSDOF 33
ENDMDL
