MODEL 1
REMARK VINA RESULT:      -7.1      0.000      0.000
REMARK  Name = 
REMARK  2 active torsions:
REMARK  status: ('A' for Active; 'I' for Inactive)
REMARK    1  A    between atoms: C_1  and  C_2
REMARK    2  A    between atoms: N_8  and  C_18
REMARK                            x       y       z     vdW  Elec       q    Type
REMARK                         _______ _______ _______ _____ _____    ______ ____
ROOT
ATOM      1  C   UNL     1      10.359  -1.145  23.826  0.00  0.00    +0.048 C 
ATOM      2  C   UNL     1       8.936  -1.559  23.581  0.00  0.00    +0.005 A 
ATOM      3  C   UNL     1       8.043  -0.616  23.060  0.00  0.00    +0.027 A 
ATOM      4  C   UNL     1       6.755  -1.015  22.754  0.00  0.00    +0.113 A 
ATOM      5  N   UNL     1       6.301  -2.274  22.918  0.00  0.00    -0.236 NA
ATOM      6  C   UNL     1       7.152  -3.179  23.476  0.00  0.00    +0.179 A 
ATOM      7  N   UNL     1       6.682  -4.490  23.750  0.00  0.00    -0.263 N 
ATOM      8  C   UNL     1       6.616  -4.928  25.090  0.00  0.00    +0.142 A 
ATOM      9  N   UNL     1       5.426  -5.303  25.630  0.00  0.00    -0.239 NA
ATOM     10  C   UNL     1       5.400  -5.642  26.939  0.00  0.00    +0.113 A 
ATOM     11  C   UNL     1       6.523  -5.685  27.747  0.00  0.00    +0.021 A 
ATOM     12  C   UNL     1       7.748  -5.360  27.182  0.00  0.00    +0.021 A 
ATOM     13  C   UNL     1       7.798  -4.963  25.843  0.00  0.00    +0.105 A 
ATOM     14  C   UNL     1       9.115  -4.735  25.192  0.00  0.00    +0.321 C 
ATOM     15  N   UNL     1      10.142  -5.593  25.511  0.00  0.00    -0.246 N 
ATOM     16  H   UNL     1      10.891  -5.513  24.828  0.00  0.00    +0.288 HD
ATOM     17  H   UNL     1       9.868  -6.558  25.656  0.00  0.00    +0.288 HD
ATOM     18  N   UNL     1       9.409  -3.816  24.316  0.00  0.00    -0.038 NA
ATOM     19  C   UNL     1       8.482  -2.862  23.840  0.00  0.00    +0.219 A 
ENDROOT
BRANCH   7  20
ATOM     20  C   UNL     1       5.958  -5.225  22.715  0.00  0.00    +0.082 C 
ATOM     21  C   UNL     1       6.662  -6.337  21.967  0.00  0.00    +0.025 C 
ATOM     22  C   UNL     1       6.352  -5.053  21.264  0.00  0.00    +0.025 C 
ENDBRANCH   7  20
TORSDOF 1
ENDMDL
MODEL 2
REMARK VINA RESULT:      -6.4      2.406      4.621
REMARK  Name = 
REMARK  2 active torsions:
REMARK  status: ('A' for Active; 'I' for Inactive)
REMARK    1  A    between atoms: C_1  and  C_2
REMARK    2  A    between atoms: N_8  and  C_18
REMARK                            x       y       z     vdW  Elec       q    Type
REMARK                         _______ _______ _______ _____ _____    ______ ____
ROOT
ATOM      1  C   UNL     1       8.730   1.191  21.187  0.00  0.00    +0.048 C 
ATOM      2  C   UNL     1       9.203   0.796  22.557  0.00  0.00    +0.005 A 
ATOM      3  C   UNL     1      10.358   1.400  23.068  0.00  0.00    +0.027 A 
ATOM      4  C   UNL     1      10.751   1.102  24.360  0.00  0.00    +0.113 A 
ATOM      5  N   UNL     1      10.077   0.265  25.174  0.00  0.00    -0.236 NA
ATOM      6  C   UNL     1       8.984  -0.365  24.660  0.00  0.00    +0.179 A 
ATOM      7  N   UNL     1       8.303  -1.323  25.455  0.00  0.00    -0.263 N 
ATOM      8  C   UNL     1       8.281  -2.671  25.036  0.00  0.00    +0.142 A 
ATOM      9  N   UNL     1       8.810  -3.643  25.826  0.00  0.00    -0.239 NA
ATOM     10  C   UNL     1       8.835  -4.908  25.348  0.00  0.00    +0.113 A 
ATOM     11  C   UNL     1       8.302  -5.281  24.127  0.00  0.00    +0.021 A 
ATOM     12  C   UNL     1       7.708  -4.300  23.345  0.00  0.00    +0.021 A 
ATOM     13  C   UNL     1       7.708  -2.977  23.793  0.00  0.00    +0.105 A 
ATOM     14  C   UNL     1       6.967  -1.940  23.028  0.00  0.00    +0.321 C 
ATOM     15  N   UNL     1       5.756  -2.296  22.479  0.00  0.00    -0.246 N 
ATOM     16  H   UNL     1       5.230  -1.465  22.221  0.00  0.00    +0.288 HD
ATOM     17  H   UNL     1       5.199  -2.932  23.039  0.00  0.00    +0.288 HD
ATOM     18  N   UNL     1       7.322  -0.702  22.835  0.00  0.00    -0.038 NA
ATOM     19  C   UNL     1       8.515  -0.142  23.344  0.00  0.00    +0.219 A 
ENDROOT
BRANCH   7  20
ATOM     20  C   UNL     1       7.947  -0.992  26.833  0.00  0.00    +0.082 C 
ATOM     21  C   UNL     1       6.487  -0.871  27.212  0.00  0.00    +0.025 C 
ATOM     22  C   UNL     1       7.337   0.358  27.142  0.00  0.00    +0.025 C 
ENDBRANCH   7  20
TORSDOF 1
ENDMDL
MODEL 3
REMARK VINA RESULT:      -6.4      1.645      4.070
REMARK  Name = 
REMARK  2 active torsions:
REMARK  status: ('A' for Active; 'I' for Inactive)
REMARK    1  A    between atoms: C_1  and  C_2
REMARK    2  A    between atoms: N_8  and  C_18
REMARK                            x       y       z     vdW  Elec       q    Type
REMARK                         _______ _______ _______ _____ _____    ______ ____
ROOT
ATOM      1  C   UNL     1       7.009   0.914  23.294  0.00  0.00    +0.048 C 
ATOM      2  C   UNL     1       8.018  -0.200  23.295  0.00  0.00    +0.005 A 
ATOM      3  C   UNL     1       9.334   0.087  22.917  0.00  0.00    +0.027 A 
ATOM      4  C   UNL     1      10.284  -0.915  22.997  0.00  0.00    +0.113 A 
ATOM      5  N   UNL     1      10.022  -2.164  23.431  0.00  0.00    -0.236 NA
ATOM      6  C   UNL     1       8.730  -2.459  23.747  0.00  0.00    +0.179 A 
ATOM      7  N   UNL     1       8.398  -3.788  24.119  0.00  0.00    -0.263 N 
ATOM      8  C   UNL     1       7.525  -4.532  23.297  0.00  0.00    +0.142 A 
ATOM      9  N   UNL     1       7.941  -5.697  22.733  0.00  0.00    -0.239 NA
ATOM     10  C   UNL     1       7.096  -6.335  21.892  0.00  0.00    +0.113 A 
ATOM     11  C   UNL     1       5.810  -5.902  21.617  0.00  0.00    +0.021 A 
ATOM     12  C   UNL     1       5.362  -4.745  22.239  0.00  0.00    +0.021 A 
ATOM     13  C   UNL     1       6.230  -4.041  23.078  0.00  0.00    +0.105 A 
ATOM     14  C   UNL     1       5.725  -2.874  23.847  0.00  0.00    +0.321 C 
ATOM     15  N   UNL     1       4.457  -2.958  24.375  0.00  0.00    -0.246 N 
ATOM     16  H   UNL     1       4.324  -2.241  25.084  0.00  0.00    +0.288 HD
ATOM     17  H   UNL     1       4.191  -3.875  24.715  0.00  0.00    +0.288 HD
ATOM     18  N   UNL     1       6.364  -1.770  24.109  0.00  0.00    -0.038 NA
ATOM     19  C   UNL     1       7.685  -1.509  23.680  0.00  0.00    +0.219 A 
ENDROOT
BRANCH   7  20
ATOM     20  C   UNL     1       9.210  -4.479  25.119  0.00  0.00    +0.082 C 
ATOM     21  C   UNL     1       8.524  -5.288  26.199  0.00  0.00    +0.025 C 
ATOM     22  C   UNL     1       9.194  -3.998  26.554  0.00  0.00    +0.025 C 
ENDBRANCH   7  20
TORSDOF 1
ENDMDL
MODEL 4
REMARK VINA RESULT:      -6.1      2.347      5.368
REMARK  Name = 
REMARK  2 active torsions:
REMARK  status: ('A' for Active; 'I' for Inactive)
REMARK    1  A    between atoms: C_1  and  C_2
REMARK    2  A    between atoms: N_8  and  C_18
REMARK                            x       y       z     vdW  Elec       q    Type
REMARK                         _______ _______ _______ _____ _____    ______ ____
ROOT
ATOM      1  C   UNL     1       7.571  -5.863  22.220  0.00  0.00    +0.048 C 
ATOM      2  C   UNL     1       6.653  -4.794  22.741  0.00  0.00    +0.005 A 
ATOM      3  C   UNL     1       5.275  -5.035  22.741  0.00  0.00    +0.027 A 
ATOM      4  C   UNL     1       4.433  -4.090  23.297  0.00  0.00    +0.113 A 
ATOM      5  N   UNL     1       4.861  -2.940  23.855  0.00  0.00    -0.236 NA
ATOM      6  C   UNL     1       6.197  -2.679  23.806  0.00  0.00    +0.179 A 
ATOM      7  N   UNL     1       6.676  -1.437  24.300  0.00  0.00    -0.263 N 
ATOM      8  C   UNL     1       7.280  -0.530  23.403  0.00  0.00    +0.142 A 
ATOM      9  N   UNL     1       6.753   0.710  23.224  0.00  0.00    -0.239 NA
ATOM     10  C   UNL     1       7.321   1.516  22.299  0.00  0.00    +0.113 A 
ATOM     11  C   UNL     1       8.443   1.174  21.563  0.00  0.00    +0.021 A 
ATOM     12  C   UNL     1       9.018  -0.069  21.788  0.00  0.00    +0.021 A 
ATOM     13  C   UNL     1       8.426  -0.939  22.706  0.00  0.00    +0.105 A 
ATOM     14  C   UNL     1       9.100  -2.219  23.048  0.00  0.00    +0.321 C 
ATOM     15  N   UNL     1      10.472  -2.207  23.164  0.00  0.00    -0.246 N 
ATOM     16  H   UNL     1      10.790  -3.041  23.651  0.00  0.00    +0.288 HD
ATOM     17  H   UNL     1      10.862  -1.364  23.572  0.00  0.00    +0.288 HD
ATOM     18  N   UNL     1       8.533  -3.368  23.283  0.00  0.00    -0.038 NA
ATOM     19  C   UNL     1       7.136  -3.574  23.242  0.00  0.00    +0.219 A 
ENDROOT
BRANCH   7  20
ATOM     20  C   UNL     1       6.237  -0.968  25.612  0.00  0.00    +0.082 C 
ATOM     21  C   UNL     1       7.261  -0.772  26.709  0.00  0.00    +0.025 C 
ATOM     22  C   UNL     1       6.292  -1.908  26.797  0.00  0.00    +0.025 C 
ENDBRANCH   7  20
TORSDOF 1
ENDMDL
MODEL 5
REMARK VINA RESULT:      -5.9      1.664      1.961
REMARK  Name = 
REMARK  2 active torsions:
REMARK  status: ('A' for Active; 'I' for Inactive)
REMARK    1  A    between atoms: C_1  and  C_2
REMARK    2  A    between atoms: N_8  and  C_18
REMARK                            x       y       z     vdW  Elec       q    Type
REMARK                         _______ _______ _______ _____ _____    ______ ____
ROOT
ATOM      1  C   UNL     1       8.765  -1.325  26.610  0.00  0.00    +0.048 C 
ATOM      2  C   UNL     1       7.707  -1.638  25.591  0.00  0.00    +0.005 A 
ATOM      3  C   UNL     1       7.136  -0.583  24.870  0.00  0.00    +0.027 A 
ATOM      4  C   UNL     1       6.223  -0.873  23.873  0.00  0.00    +0.113 A 
ATOM      5  N   UNL     1       5.850  -2.125  23.539  0.00  0.00    -0.236 NA
ATOM      6  C   UNL     1       6.363  -3.149  24.277  0.00  0.00    +0.179 A 
ATOM      7  N   UNL     1       5.924  -4.474  24.016  0.00  0.00    -0.263 N 
ATOM      8  C   UNL     1       5.214  -5.170  25.018  0.00  0.00    +0.142 A 
ATOM      9  N   UNL     1       3.950  -5.610  24.782  0.00  0.00    -0.239 NA
ATOM     10  C   UNL     1       3.283  -6.204  25.798  0.00  0.00    +0.113 A 
ATOM     11  C   UNL     1       3.833  -6.443  27.046  0.00  0.00    +0.021 A 
ATOM     12  C   UNL     1       5.144  -6.048  27.269  0.00  0.00    +0.021 A 
ATOM     13  C   UNL     1       5.842  -5.392  26.252  0.00  0.00    +0.105 A 
ATOM     14  C   UNL     1       7.283  -5.077  26.433  0.00  0.00    +0.321 C 
ATOM     15  N   UNL     1       8.066  -6.013  27.071  0.00  0.00    -0.246 N 
ATOM     16  H   UNL     1       9.050  -5.820  26.903  0.00  0.00    +0.288 HD
ATOM     17  H   UNL     1       7.834  -6.979  26.869  0.00  0.00    +0.288 HD
ATOM     18  N   UNL     1       7.912  -4.011  26.026  0.00  0.00    -0.038 NA
ATOM     19  C   UNL     1       7.288  -2.953  25.328  0.00  0.00    +0.219 A 
ENDROOT
BRANCH   7  20
ATOM     20  C   UNL     1       5.893  -4.964  22.639  0.00  0.00    +0.082 C 
ATOM     21  C   UNL     1       6.571  -6.275  22.304  0.00  0.00    +0.025 C 
ATOM     22  C   UNL     1       7.170  -4.989  21.828  0.00  0.00    +0.025 C 
ENDBRANCH   7  20
TORSDOF 1
ENDMDL
MODEL 6
REMARK VINA RESULT:      -5.8      2.179      3.786
REMARK  Name = 
REMARK  2 active torsions:
REMARK  status: ('A' for Active; 'I' for Inactive)
REMARK    1  A    between atoms: C_1  and  C_2
REMARK    2  A    between atoms: N_8  and  C_18
REMARK                            x       y       z     vdW  Elec       q    Type
REMARK                         _______ _______ _______ _____ _____    ______ ____
ROOT
ATOM      1  C   UNL     1       6.836   0.014  27.422  0.00  0.00    +0.048 C 
ATOM      2  C   UNL     1       6.837   0.028  25.920  0.00  0.00    +0.005 A 
ATOM      3  C   UNL     1       6.223   1.098  25.259  0.00  0.00    +0.027 A 
ATOM      4  C   UNL     1       6.293   1.158  23.879  0.00  0.00    +0.113 A 
ATOM      5  N   UNL     1       6.933   0.245  23.121  0.00  0.00    -0.236 NA
ATOM      6  C   UNL     1       7.484  -0.825  23.759  0.00  0.00    +0.179 A 
ATOM      7  N   UNL     1       8.085  -1.853  22.987  0.00  0.00    -0.263 N 
ATOM      8  C   UNL     1       7.521  -3.147  23.010  0.00  0.00    +0.142 A 
ATOM      9  N   UNL     1       7.067  -3.717  21.862  0.00  0.00    -0.239 NA
ATOM     10  C   UNL     1       6.466  -4.925  21.946  0.00  0.00    +0.113 A 
ATOM     11  C   UNL     1       6.335  -5.641  23.124  0.00  0.00    +0.021 A 
ATOM     12  C   UNL     1       6.851  -5.087  24.287  0.00  0.00    +0.021 A 
ATOM     13  C   UNL     1       7.438  -3.820  24.237  0.00  0.00    +0.105 A 
ATOM     14  C   UNL     1       8.106  -3.270  25.446  0.00  0.00    +0.321 C 
ATOM     15  N   UNL     1       8.830  -4.142  26.227  0.00  0.00    -0.246 N 
ATOM     16  H   UNL     1       9.445  -3.625  26.852  0.00  0.00    +0.288 HD
ATOM     17  H   UNL     1       9.333  -4.861  25.718  0.00  0.00    +0.288 HD
ATOM     18  N   UNL     1       8.108  -2.031  25.847  0.00  0.00    -0.038 NA
ATOM     19  C   UNL     1       7.447  -0.986  25.164  0.00  0.00    +0.219 A 
ENDROOT
BRANCH   7  20
ATOM     20  C   UNL     1       9.034  -1.500  21.933  0.00  0.00    +0.082 C 
ATOM     21  C   UNL     1      10.517  -1.517  22.235  0.00  0.00    +0.025 C 
ATOM     22  C   UNL     1       9.817  -0.209  22.037  0.00  0.00    +0.025 C 
ENDBRANCH   7  20
TORSDOF 1
ENDMDL
MODEL 7
REMARK VINA RESULT:      -5.7      4.244      6.463
REMARK  Name = 
REMARK  2 active torsions:
REMARK  status: ('A' for Active; 'I' for Inactive)
REMARK    1  A    between atoms: C_1  and  C_2
REMARK    2  A    between atoms: N_8  and  C_18
REMARK                            x       y       z     vdW  Elec       q    Type
REMARK                         _______ _______ _______ _____ _____    ______ ____
ROOT
ATOM      1  C   UNL     1       4.720   1.640  26.383  0.00  0.00    +0.048 C 
ATOM      2  C   UNL     1       5.425   1.911  25.084  0.00  0.00    +0.005 A 
ATOM      3  C   UNL     1       4.706   2.506  24.042  0.00  0.00    +0.027 A 
ATOM      4  C   UNL     1       5.371   2.833  22.874  0.00  0.00    +0.113 A 
ATOM      5  N   UNL     1       6.688   2.622  22.678  0.00  0.00    -0.236 NA
ATOM      6  C   UNL     1       7.377   1.992  23.670  0.00  0.00    +0.179 A 
ATOM      7  N   UNL     1       8.743   1.669  23.463  0.00  0.00    -0.263 N 
ATOM      8  C   UNL     1       9.130   0.312  23.431  0.00  0.00    +0.142 A 
ATOM      9  N   UNL     1       9.716  -0.207  22.319  0.00  0.00    -0.239 NA
ATOM     10  C   UNL     1       9.998  -1.530  22.308  0.00  0.00    +0.113 A 
ATOM     11  C   UNL     1       9.778  -2.374  23.382  0.00  0.00    +0.021 A 
ATOM     12  C   UNL     1       9.235  -1.833  24.539  0.00  0.00    +0.021 A 
ATOM     13  C   UNL     1       8.892  -0.479  24.563  0.00  0.00    +0.105 A 
ATOM     14  C   UNL     1       8.428   0.140  25.833  0.00  0.00    +0.321 C 
ATOM     15  N   UNL     1       9.045  -0.254  26.998  0.00  0.00    -0.246 N 
ATOM     16  H   UNL     1       8.844   0.408  27.743  0.00  0.00    +0.288 HD
ATOM     17  H   UNL     1      10.039  -0.437  26.919  0.00  0.00    +0.288 HD
ATOM     18  N   UNL     1       7.506   1.050  25.972  0.00  0.00    -0.038 NA
ATOM     19  C   UNL     1       6.781   1.602  24.892  0.00  0.00    +0.219 A 
ENDROOT
BRANCH   7  20
ATOM     20  C   UNL     1       9.653   2.689  22.945  0.00  0.00    +0.082 C 
ATOM     21  C   UNL     1      10.955   2.957  23.670  0.00  0.00    +0.025 C 
ATOM     22  C   UNL     1       9.856   3.972  23.724  0.00  0.00    +0.025 C 
ENDBRANCH   7  20
TORSDOF 1
ENDMDL
MODEL 8
REMARK VINA RESULT:      -5.7      3.072      5.570
REMARK  Name = 
REMARK  2 active torsions:
REMARK  status: ('A' for Active; 'I' for Inactive)
REMARK    1  A    between atoms: C_1  and  C_2
REMARK    2  A    between atoms: N_8  and  C_18
REMARK                            x       y       z     vdW  Elec       q    Type
REMARK                         _______ _______ _______ _____ _____    ______ ____
ROOT
ATOM      1  C   UNL     1       4.402   3.122  23.960  0.00  0.00    +0.048 C 
ATOM      2  C   UNL     1       5.641   2.615  23.278  0.00  0.00    +0.005 A 
ATOM      3  C   UNL     1       6.165   3.347  22.207  0.00  0.00    +0.027 A 
ATOM      4  C   UNL     1       7.351   2.931  21.631  0.00  0.00    +0.113 A 
ATOM      5  N   UNL     1       8.049   1.856  22.047  0.00  0.00    -0.236 NA
ATOM      6  C   UNL     1       7.512   1.110  23.053  0.00  0.00    +0.179 A 
ATOM      7  N   UNL     1       8.171  -0.080  23.457  0.00  0.00    -0.263 N 
ATOM      8  C   UNL     1       7.521  -1.319  23.274  0.00  0.00    +0.142 A 
ATOM      9  N   UNL     1       8.084  -2.280  22.493  0.00  0.00    -0.239 NA
ATOM     10  C   UNL     1       7.387  -3.420  22.286  0.00  0.00    +0.113 A 
ATOM     11  C   UNL     1       6.161  -3.691  22.869  0.00  0.00    +0.021 A 
ATOM     12  C   UNL     1       5.613  -2.736  23.714  0.00  0.00    +0.021 A 
ATOM     13  C   UNL     1       6.289  -1.530  23.910  0.00  0.00    +0.105 A 
ATOM     14  C   UNL     1       5.778  -0.553  24.908  0.00  0.00    +0.321 C 
ATOM     15  N   UNL     1       5.265  -1.051  26.083  0.00  0.00    -0.246 N 
ATOM     16  H   UNL     1       5.199  -0.312  26.778  0.00  0.00    +0.288 HD
ATOM     17  H   UNL     1       5.741  -1.868  26.450  0.00  0.00    +0.288 HD
ATOM     18  N   UNL     1       5.784   0.745  24.809  0.00  0.00    -0.038 NA
ATOM     19  C   UNL     1       6.296   1.444  23.693  0.00  0.00    +0.219 A 
ENDROOT
BRANCH   7  20
ATOM     20  C   UNL     1       9.609  -0.053  23.719  0.00  0.00    +0.082 C 
ATOM     21  C   UNL     1      10.101  -0.033  25.150  0.00  0.00    +0.025 C 
ATOM     22  C   UNL     1      10.237   1.193  24.304  0.00  0.00    +0.025 C 
ENDBRANCH   7  20
TORSDOF 1
ENDMDL
MODEL 9
REMARK VINA RESULT:      -5.6      4.208      7.265
REMARK  Name = 
REMARK  2 active torsions:
REMARK  status: ('A' for Active; 'I' for Inactive)
REMARK    1  A    between atoms: C_1  and  C_2
REMARK    2  A    between atoms: N_8  and  C_18
REMARK                            x       y       z     vdW  Elec       q    Type
REMARK                         _______ _______ _______ _____ _____    ______ ____
ROOT
ATOM      1  C   UNL     1       5.057  -0.502  26.164  0.00  0.00    +0.048 C 
ATOM      2  C   UNL     1       6.547  -0.454  25.973  0.00  0.00    +0.005 A 
ATOM      3  C   UNL     1       7.363  -1.127  26.889  0.00  0.00    +0.027 A 
ATOM      4  C   UNL     1       8.728  -1.156  26.670  0.00  0.00    +0.113 A 
ATOM      5  N   UNL     1       9.330  -0.579  25.611  0.00  0.00    -0.236 NA
ATOM      6  C   UNL     1       8.543   0.123  24.748  0.00  0.00    +0.179 A 
ATOM      7  N   UNL     1       9.151   0.821  23.673  0.00  0.00    -0.263 N 
ATOM      8  C   UNL     1       9.066   2.230  23.635  0.00  0.00    +0.142 A 
ATOM      9  N   UNL     1      10.196   2.985  23.650  0.00  0.00    -0.239 NA
ATOM     10  C   UNL     1      10.062   4.330  23.689  0.00  0.00    +0.113 A 
ATOM     11  C   UNL     1       8.843   4.985  23.657  0.00  0.00    +0.021 A 
ATOM     12  C   UNL     1       7.689   4.216  23.582  0.00  0.00    +0.021 A 
ATOM     13  C   UNL     1       7.797   2.823  23.585  0.00  0.00    +0.105 A 
ATOM     14  C   UNL     1       6.582   1.991  23.377  0.00  0.00    +0.321 C 
ATOM     15  N   UNL     1       5.655   2.433  22.462  0.00  0.00    -0.246 N 
ATOM     16  H   UNL     1       5.022   1.677  22.211  0.00  0.00    +0.288 HD
ATOM     17  H   UNL     1       6.041   2.885  21.640  0.00  0.00    +0.288 HD
ATOM     18  N   UNL     1       6.300   0.857  23.952  0.00  0.00    -0.038 NA
ATOM     19  C   UNL     1       7.140   0.227  24.897  0.00  0.00    +0.219 A 
ENDROOT
BRANCH   7  20
ATOM     20  C   UNL     1      10.132   0.137  22.834  0.00  0.00    +0.082 C 
ATOM     21  C   UNL     1       9.738  -0.301  21.439  0.00  0.00    +0.025 C 
ATOM     22  C   UNL     1       9.941  -1.329  22.507  0.00  0.00    +0.025 C 
ENDBRANCH   7  20
TORSDOF 1
ENDMDL
