MODEL 1
REMARK VINA RESULT:      -7.6      0.000      0.000
REMARK  Name = 
REMARK  11 active torsions:
REMARK  status: ('A' for Active; 'I' for Inactive)
REMARK    1  A    between atoms: C_1  and  C_2
REMARK    2  A    between atoms: C_5  and  C_38
REMARK    3  A    between atoms: N_6  and  C_7
REMARK    4  A    between atoms: N_16  and  C_17
REMARK    5  A    between atoms: C_17  and  C_18
REMARK    6  A    between atoms: C_18  and  C_19
REMARK    7  A    between atoms: C_19  and  C_21
REMARK    8  A    between atoms: C_19  and  N_27
REMARK    9  A    between atoms: C_28  and  C_30
REMARK   10  A    between atoms: C_38  and  C_39
REMARK   11  A    between atoms: C_38  and  C_40
REMARK                            x       y       z     vdW  Elec       q    Type
REMARK                         _______ _______ _______ _____ _____    ______ ____
ROOT
ATOM      1  C   UNL     1       8.837  -4.982  25.541  0.00  0.00    +0.042 C 
ENDROOT
BRANCH   1   2
ATOM      2  C   UNL     1       7.639  -4.519  26.382  0.00  0.00    +0.087 C 
BRANCH   2   6
ATOM      3  C   UNL     1       4.267  -4.021  26.814  0.00  0.00    +0.093 C 
ATOM      4  C   UNL     1       4.819  -4.634  25.515  0.00  0.00    +0.044 C 
ATOM      5  C   UNL     1       5.647  -5.901  25.825  0.00  0.00    +0.059 C 
ATOM      6  N   UNL     1       6.732  -5.600  26.764  0.00  0.00    -0.296 NA
ATOM      7  C   UNL     1       6.041  -5.371  28.044  0.00  0.00    +0.059 C 
ATOM      8  C   UNL     1       5.134  -6.602  28.106  0.00  0.00    +0.020 C 
ATOM      9  C   UNL     1       4.863  -6.948  26.638  0.00  0.00    +0.020 C 
ATOM     10  C   UNL     1       5.217  -4.078  28.025  0.00  0.00    +0.044 C 
BRANCH   3  13
ATOM     11  C   UNL     1       5.475  -1.172  25.945  0.00  0.00    +0.088 C 
ATOM     12  C   UNL     1       4.101  -1.501  26.387  0.00  0.00    +0.131 A 
ATOM     13  N   UNL     1       3.591  -2.742  26.693  0.00  0.00    -0.312 N 
ATOM     14  C   UNL     1       2.281  -2.522  27.083  0.00  0.00    +0.136 A 
ATOM     15  N   UNL     1       2.028  -1.235  27.013  0.00  0.00    -0.134 NA
ATOM     16  N   UNL     1       3.156  -0.600  26.576  0.00  0.00    -0.135 NA
BRANCH  14  17
ATOM     17  C   UNL     1       1.339  -3.588  27.574  0.00  0.00    +0.051 C 
ATOM     18  C   UNL     1       0.477  -4.158  26.452  0.00  0.00    +0.015 C 
ATOM     19  C   UNL     1       0.444  -3.039  28.692  0.00  0.00    +0.015 C 
ENDBRANCH  14  17
ENDBRANCH   3  13
ENDBRANCH   2   6
ENDBRANCH   1   2
BRANCH   1  20
ATOM     20  C   UNL     1       8.941  -4.152  24.243  0.00  0.00    +0.104 C 
BRANCH  20  21
ATOM     21  C   UNL     1       7.820  -4.494  23.283  0.00  0.00    -0.027 A 
ATOM     22  C   UNL     1       7.007  -3.466  22.781  0.00  0.00    +0.005 A 
ATOM     23  C   UNL     1       6.091  -3.722  21.762  0.00  0.00    +0.000 A 
ATOM     24  C   UNL     1       5.970  -5.008  21.244  0.00  0.00    +0.000 A 
ATOM     25  C   UNL     1       6.747  -6.045  21.755  0.00  0.00    +0.000 A 
ATOM     26  C   UNL     1       7.663  -5.793  22.774  0.00  0.00    +0.005 A 
ENDBRANCH  20  21
BRANCH  20  27
ATOM     27  N   UNL     1       8.967  -2.729  24.531  0.00  0.00    -0.308 N 
ATOM     28  H   UNL     1       8.387  -2.381  25.280  0.00  0.00    +0.149 HD
ATOM     29  C   UNL     1       9.850  -1.882  23.892  0.00  0.00    +0.217 C 
ATOM     30  O   UNL     1      10.591  -2.262  22.991  0.00  0.00    -0.275 OA
BRANCH  29  31
ATOM     31  C   UNL     1       9.829  -0.448  24.419  0.00  0.00    +0.075 C 
ATOM     32  C   UNL     1       8.403   0.117  24.529  0.00  0.00    +0.018 C 
ATOM     33  C   UNL     1       7.760   0.426  23.174  0.00  0.00    +0.076 C 
ATOM     34  C   UNL     1       8.661   1.274  22.298  0.00  0.00    +0.249 C 
ATOM     35  F   UNL     1       8.733   2.528  22.819  0.00  0.00    -0.206 F 
ATOM     36  F   UNL     1       8.111   1.401  21.066  0.00  0.00    -0.206 F 
ATOM     37  C   UNL     1      10.067   0.717  22.171  0.00  0.00    +0.076 C 
ATOM     38  C   UNL     1      10.697   0.475  23.544  0.00  0.00    +0.018 C 
ENDBRANCH  29  31
ENDBRANCH  20  27
ENDBRANCH   1  20
TORSDOF 8
ENDMDL
MODEL 2
REMARK VINA RESULT:      -7.6      0.563      2.043
REMARK  Name = 
REMARK  11 active torsions:
REMARK  status: ('A' for Active; 'I' for Inactive)
REMARK    1  A    between atoms: C_1  and  C_2
REMARK    2  A    between atoms: C_5  and  C_38
REMARK    3  A    between atoms: N_6  and  C_7
REMARK    4  A    between atoms: N_16  and  C_17
REMARK    5  A    between atoms: C_17  and  C_18
REMARK    6  A    between atoms: C_18  and  C_19
REMARK    7  A    between atoms: C_19  and  C_21
REMARK    8  A    between atoms: C_19  and  N_27
REMARK    9  A    between atoms: C_28  and  C_30
REMARK   10  A    between atoms: C_38  and  C_39
REMARK   11  A    between atoms: C_38  and  C_40
REMARK                            x       y       z     vdW  Elec       q    Type
REMARK                         _______ _______ _______ _____ _____    ______ ____
ROOT
ATOM      1  C   UNL     1       8.767  -4.397  25.769  0.00  0.00    +0.042 C 
ENDROOT
BRANCH   1   2
ATOM      2  C   UNL     1       7.379  -4.129  26.368  0.00  0.00    +0.087 C 
BRANCH   2   6
ATOM      3  C   UNL     1       3.992  -4.079  26.945  0.00  0.00    +0.093 C 
ATOM      4  C   UNL     1       4.557  -4.491  25.575  0.00  0.00    +0.044 C 
ATOM      5  C   UNL     1       5.537  -5.675  25.728  0.00  0.00    +0.059 C 
ATOM      6  N   UNL     1       6.618  -5.343  26.662  0.00  0.00    -0.296 NA
ATOM      7  C   UNL     1       5.957  -5.325  27.978  0.00  0.00    +0.059 C 
ATOM      8  C   UNL     1       5.201  -6.655  27.938  0.00  0.00    +0.020 C 
ATOM      9  C   UNL     1       4.911  -6.882  26.450  0.00  0.00    +0.020 C 
ATOM     10  C   UNL     1       4.990  -4.143  28.116  0.00  0.00    +0.044 C 
BRANCH   3  13
ATOM     11  C   UNL     1       0.787  -3.830  27.011  0.00  0.00    +0.088 C 
ATOM     12  C   UNL     1       1.801  -2.753  26.941  0.00  0.00    +0.131 A 
ATOM     13  N   UNL     1       3.170  -2.883  26.977  0.00  0.00    -0.312 N 
ATOM     14  C   UNL     1       3.671  -1.599  26.844  0.00  0.00    +0.136 A 
ATOM     15  N   UNL     1       2.666  -0.761  26.735  0.00  0.00    -0.134 NA
ATOM     16  N   UNL     1       1.504  -1.475  26.799  0.00  0.00    -0.135 NA
BRANCH  14  17
ATOM     17  C   UNL     1       5.133  -1.250  26.765  0.00  0.00    +0.051 C 
ATOM     18  C   UNL     1       5.486  -0.045  27.631  0.00  0.00    +0.015 C 
ATOM     19  C   UNL     1       5.543  -0.985  25.312  0.00  0.00    +0.015 C 
ENDBRANCH  14  17
ENDBRANCH   3  13
ENDBRANCH   2   6
ENDBRANCH   1   2
BRANCH   1  20
ATOM     20  C   UNL     1       8.912  -3.696  24.402  0.00  0.00    +0.104 C 
BRANCH  20  21
ATOM     21  C   UNL     1       7.836  -4.150  23.437  0.00  0.00    -0.027 A 
ATOM     22  C   UNL     1       6.973  -3.198  22.870  0.00  0.00    +0.005 A 
ATOM     23  C   UNL     1       6.099  -3.556  21.846  0.00  0.00    +0.000 A 
ATOM     24  C   UNL     1       6.068  -4.870  21.388  0.00  0.00    +0.000 A 
ATOM     25  C   UNL     1       6.894  -5.833  21.963  0.00  0.00    +0.000 A 
ATOM     26  C   UNL     1       7.769  -5.478  22.987  0.00  0.00    +0.005 A 
ENDBRANCH  20  21
BRANCH  20  27
ATOM     27  N   UNL     1       8.905  -2.251  24.549  0.00  0.00    -0.308 N 
ATOM     28  H   UNL     1       8.298  -1.843  25.244  0.00  0.00    +0.149 HD
ATOM     29  C   UNL     1       9.793  -1.454  23.856  0.00  0.00    +0.217 C 
ATOM     30  O   UNL     1      10.567  -1.906  23.017  0.00  0.00    -0.275 OA
BRANCH  29  31
ATOM     31  C   UNL     1       9.733   0.024  24.240  0.00  0.00    +0.075 C 
ATOM     32  C   UNL     1       8.291   0.556  24.305  0.00  0.00    +0.018 C 
ATOM     33  C   UNL     1       7.632   0.711  22.931  0.00  0.00    +0.076 C 
ATOM     34  C   UNL     1       8.503   1.494  21.969  0.00  0.00    +0.249 C 
ATOM     35  F   UNL     1       8.541   2.795  22.363  0.00  0.00    -0.206 F 
ATOM     36  F   UNL     1       7.943   1.483  20.735  0.00  0.00    -0.206 F 
ATOM     37  C   UNL     1       9.924   0.968  21.886  0.00  0.00    +0.076 C 
ATOM     38  C   UNL     1      10.568   0.881  23.270  0.00  0.00    +0.018 C 
ENDBRANCH  29  31
ENDBRANCH  20  27
ENDBRANCH   1  20
TORSDOF 8
ENDMDL
MODEL 3
REMARK VINA RESULT:      -7.3      2.170      3.403
REMARK  Name = 
REMARK  11 active torsions:
REMARK  status: ('A' for Active; 'I' for Inactive)
REMARK    1  A    between atoms: C_1  and  C_2
REMARK    2  A    between atoms: C_5  and  C_38
REMARK    3  A    between atoms: N_6  and  C_7
REMARK    4  A    between atoms: N_16  and  C_17
REMARK    5  A    between atoms: C_17  and  C_18
REMARK    6  A    between atoms: C_18  and  C_19
REMARK    7  A    between atoms: C_19  and  C_21
REMARK    8  A    between atoms: C_19  and  N_27
REMARK    9  A    between atoms: C_28  and  C_30
REMARK   10  A    between atoms: C_38  and  C_39
REMARK   11  A    between atoms: C_38  and  C_40
REMARK                            x       y       z     vdW  Elec       q    Type
REMARK                         _______ _______ _______ _____ _____    ______ ____
ROOT
ATOM      1  C   UNL     1       6.585  -3.254  26.538  0.00  0.00    +0.042 C 
ENDROOT
BRANCH   1   2
ATOM      2  C   UNL     1       6.450  -4.730  26.940  0.00  0.00    +0.087 C 
BRANCH   2   6
ATOM      3  C   UNL     1       3.572  -6.295  27.975  0.00  0.00    +0.093 C 
ATOM      4  C   UNL     1       4.913  -7.048  27.931  0.00  0.00    +0.044 C 
ATOM      5  C   UNL     1       5.970  -6.320  28.791  0.00  0.00    +0.059 C 
ATOM      6  N   UNL     1       6.135  -4.931  28.353  0.00  0.00    -0.296 NA
ATOM      7  C   UNL     1       4.890  -4.273  28.784  0.00  0.00    +0.059 C 
ATOM      8  C   UNL     1       4.807  -4.737  30.240  0.00  0.00    +0.020 C 
ATOM      9  C   UNL     1       5.512  -6.098  30.244  0.00  0.00    +0.020 C 
ATOM     10  C   UNL     1       3.678  -4.759  27.979  0.00  0.00    +0.044 C 
BRANCH   3  13
ATOM     11  C   UNL     1       1.000  -8.087  28.690  0.00  0.00    +0.088 C 
ATOM     12  C   UNL     1       1.453  -7.599  27.367  0.00  0.00    +0.131 A 
ATOM     13  N   UNL     1       2.524  -6.780  27.095  0.00  0.00    -0.312 N 
ATOM     14  C   UNL     1       2.550  -6.643  25.717  0.00  0.00    +0.136 A 
ATOM     15  N   UNL     1       1.560  -7.337  25.204  0.00  0.00    -0.134 NA
ATOM     16  N   UNL     1       0.875  -7.927  26.227  0.00  0.00    -0.135 NA
BRANCH  14  17
ATOM     17  C   UNL     1       3.595  -5.881  24.947  0.00  0.00    +0.051 C 
ATOM     18  C   UNL     1       2.980  -4.943  23.914  0.00  0.00    +0.015 C 
ATOM     19  C   UNL     1       4.567  -6.847  24.261  0.00  0.00    +0.015 C 
ENDBRANCH  14  17
ENDBRANCH   3  13
ENDBRANCH   2   6
ENDBRANCH   1   2
BRANCH   1  20
ATOM     20  C   UNL     1       7.587  -3.098  25.375  0.00  0.00    +0.104 C 
BRANCH  20  21
ATOM     21  C   UNL     1       7.011  -3.634  24.080  0.00  0.00    -0.027 A 
ATOM     22  C   UNL     1       6.040  -2.885  23.396  0.00  0.00    +0.005 A 
ATOM     23  C   UNL     1       5.627  -3.258  22.119  0.00  0.00    +0.000 A 
ATOM     24  C   UNL     1       6.170  -4.390  21.518  0.00  0.00    +0.000 A 
ATOM     25  C   UNL     1       7.110  -5.162  22.196  0.00  0.00    +0.000 A 
ATOM     26  C   UNL     1       7.524  -4.792  23.474  0.00  0.00    +0.005 A 
ENDBRANCH  20  21
BRANCH  20  27
ATOM     27  N   UNL     1       8.009  -1.716  25.226  0.00  0.00    -0.308 N 
ATOM     28  H   UNL     1       7.434  -0.994  25.633  0.00  0.00    +0.149 HD
ATOM     29  C   UNL     1       9.225  -1.392  24.660  0.00  0.00    +0.217 C 
ATOM     30  O   UNL     1       9.970  -2.238  24.172  0.00  0.00    -0.275 OA
BRANCH  29  31
ATOM     31  C   UNL     1       9.559   0.097  24.713  0.00  0.00    +0.075 C 
ATOM     32  C   UNL     1       8.322   0.986  24.495  0.00  0.00    +0.018 C 
ATOM     33  C   UNL     1       7.809   0.978  23.053  0.00  0.00    +0.076 C 
ATOM     34  C   UNL     1       8.916   1.259  22.055  0.00  0.00    +0.249 C 
ATOM     35  F   UNL     1       9.295   2.561  22.168  0.00  0.00    -0.206 F 
ATOM     36  F   UNL     1       8.444   1.105  20.794  0.00  0.00    -0.206 F 
ATOM     37  C   UNL     1      10.136   0.379  22.252  0.00  0.00    +0.076 C 
ATOM     38  C   UNL     1      10.653   0.455  23.690  0.00  0.00    +0.018 C 
ENDBRANCH  29  31
ENDBRANCH  20  27
ENDBRANCH   1  20
TORSDOF 8
ENDMDL
MODEL 4
REMARK VINA RESULT:      -7.2      2.861      5.899
REMARK  Name = 
REMARK  11 active torsions:
REMARK  status: ('A' for Active; 'I' for Inactive)
REMARK    1  A    between atoms: C_1  and  C_2
REMARK    2  A    between atoms: C_5  and  C_38
REMARK    3  A    between atoms: N_6  and  C_7
REMARK    4  A    between atoms: N_16  and  C_17
REMARK    5  A    between atoms: C_17  and  C_18
REMARK    6  A    between atoms: C_18  and  C_19
REMARK    7  A    between atoms: C_19  and  C_21
REMARK    8  A    between atoms: C_19  and  N_27
REMARK    9  A    between atoms: C_28  and  C_30
REMARK   10  A    between atoms: C_38  and  C_39
REMARK   11  A    between atoms: C_38  and  C_40
REMARK                            x       y       z     vdW  Elec       q    Type
REMARK                         _______ _______ _______ _____ _____    ______ ____
ROOT
ATOM      1  C   UNL     1       8.104  -0.524  27.192  0.00  0.00    +0.042 C 
ENDROOT
BRANCH   1   2
ATOM      2  C   UNL     1       7.694  -1.741  26.350  0.00  0.00    +0.087 C 
BRANCH   2   6
ATOM      3  C   UNL     1       6.654  -4.049  24.027  0.00  0.00    +0.093 C 
ATOM      4  C   UNL     1       5.877  -2.740  24.248  0.00  0.00    +0.044 C 
ATOM      5  C   UNL     1       6.802  -1.521  24.039  0.00  0.00    +0.059 C 
ATOM      6  N   UNL     1       7.970  -1.592  24.922  0.00  0.00    -0.296 NA
ATOM      7  C   UNL     1       8.778  -2.685  24.356  0.00  0.00    +0.059 C 
ATOM      8  C   UNL     1       8.809  -2.284  22.879  0.00  0.00    +0.020 C 
ATOM      9  C   UNL     1       7.496  -1.523  22.664  0.00  0.00    +0.020 C 
ATOM     10  C   UNL     1       8.105  -4.050  24.544  0.00  0.00    +0.044 C 
BRANCH   3  13
ATOM     11  C   UNL     1       5.472  -6.259  22.013  0.00  0.00    +0.088 C 
ATOM     12  C   UNL     1       5.383  -6.207  23.490  0.00  0.00    +0.131 A 
ATOM     13  N   UNL     1       5.952  -5.283  24.335  0.00  0.00    -0.312 N 
ATOM     14  C   UNL     1       5.550  -5.644  25.609  0.00  0.00    +0.136 A 
ATOM     15  N   UNL     1       4.791  -6.713  25.528  0.00  0.00    -0.134 NA
ATOM     16  N   UNL     1       4.690  -7.067  24.213  0.00  0.00    -0.135 NA
BRANCH  14  17
ATOM     17  C   UNL     1       5.879  -4.880  26.865  0.00  0.00    +0.051 C 
ATOM     18  C   UNL     1       6.703  -5.709  27.845  0.00  0.00    +0.015 C 
ATOM     19  C   UNL     1       4.596  -4.390  27.546  0.00  0.00    +0.015 C 
ENDBRANCH  14  17
ENDBRANCH   3  13
ENDBRANCH   2   6
ENDBRANCH   1   2
BRANCH   1  20
ATOM     20  C   UNL     1       7.236   0.701  26.832  0.00  0.00    +0.104 C 
BRANCH  20  21
ATOM     21  C   UNL     1       6.646   1.338  28.074  0.00  0.00    -0.027 A 
ATOM     22  C   UNL     1       5.359   1.895  28.017  0.00  0.00    +0.005 A 
ATOM     23  C   UNL     1       4.720   2.322  29.179  0.00  0.00    +0.000 A 
ATOM     24  C   UNL     1       5.365   2.207  30.407  0.00  0.00    +0.000 A 
ATOM     25  C   UNL     1       6.655   1.686  30.476  0.00  0.00    +0.000 A 
ATOM     26  C   UNL     1       7.297   1.260  29.315  0.00  0.00    +0.005 A 
ENDBRANCH  20  21
BRANCH  20  27
ATOM     27  N   UNL     1       7.991   1.670  26.057  0.00  0.00    -0.308 N 
ATOM     28  H   UNL     1       8.921   1.910  26.366  0.00  0.00    +0.149 HD
ATOM     29  C   UNL     1       7.515   2.159  24.858  0.00  0.00    +0.217 C 
ATOM     30  O   UNL     1       6.399   1.878  24.429  0.00  0.00    -0.275 OA
BRANCH  29  31
ATOM     31  C   UNL     1       8.501   3.060  24.117  0.00  0.00    +0.075 C 
ATOM     32  C   UNL     1       8.151   3.214  22.626  0.00  0.00    +0.018 C 
ATOM     33  C   UNL     1       8.419   1.952  21.801  0.00  0.00    +0.076 C 
ATOM     34  C   UNL     1       9.820   1.416  22.021  0.00  0.00    +0.249 C 
ATOM     35  F   UNL     1      10.715   2.268  21.454  0.00  0.00    -0.206 F 
ATOM     36  F   UNL     1       9.961   0.230  21.382  0.00  0.00    -0.206 F 
ATOM     37  C   UNL     1      10.171   1.247  23.488  0.00  0.00    +0.076 C 
ATOM     38  C   UNL     1       9.944   2.543  24.269  0.00  0.00    +0.018 C 
ENDBRANCH  29  31
ENDBRANCH  20  27
ENDBRANCH   1  20
TORSDOF 8
ENDMDL
MODEL 5
REMARK VINA RESULT:      -7.2      1.685      3.765
REMARK  Name = 
REMARK  11 active torsions:
REMARK  status: ('A' for Active; 'I' for Inactive)
REMARK    1  A    between atoms: C_1  and  C_2
REMARK    2  A    between atoms: C_5  and  C_38
REMARK    3  A    between atoms: N_6  and  C_7
REMARK    4  A    between atoms: N_16  and  C_17
REMARK    5  A    between atoms: C_17  and  C_18
REMARK    6  A    between atoms: C_18  and  C_19
REMARK    7  A    between atoms: C_19  and  C_21
REMARK    8  A    between atoms: C_19  and  N_27
REMARK    9  A    between atoms: C_28  and  C_30
REMARK   10  A    between atoms: C_38  and  C_39
REMARK   11  A    between atoms: C_38  and  C_40
REMARK                            x       y       z     vdW  Elec       q    Type
REMARK                         _______ _______ _______ _____ _____    ______ ____
ROOT
ATOM      1  C   UNL     1       6.081  -1.589  24.117  0.00  0.00    +0.042 C 
ENDROOT
BRANCH   1   2
ATOM      2  C   UNL     1       5.501  -1.606  25.538  0.00  0.00    +0.087 C 
BRANCH   2   6
ATOM      3  C   UNL     1       4.392  -4.358  27.270  0.00  0.00    +0.093 C 
ATOM      4  C   UNL     1       4.283  -2.946  27.871  0.00  0.00    +0.044 C 
ATOM      5  C   UNL     1       3.481  -2.019  26.930  0.00  0.00    +0.059 C 
ATOM      6  N   UNL     1       4.088  -1.976  25.596  0.00  0.00    -0.296 NA
ATOM      7  C   UNL     1       3.798  -3.304  25.030  0.00  0.00    +0.059 C 
ATOM      8  C   UNL     1       2.299  -3.418  25.316  0.00  0.00    +0.020 C 
ATOM      9  C   UNL     1       2.089  -2.577  26.581  0.00  0.00    +0.020 C 
ATOM     10  C   UNL     1       4.583  -4.413  25.743  0.00  0.00    +0.044 C 
BRANCH   3  13
ATOM     11  C   UNL     1       7.562  -4.812  26.991  0.00  0.00    +0.088 C 
ATOM     12  C   UNL     1       6.588  -5.554  27.823  0.00  0.00    +0.131 A 
ATOM     13  N   UNL     1       5.245  -5.300  27.973  0.00  0.00    -0.312 N 
ATOM     14  C   UNL     1       4.769  -6.286  28.820  0.00  0.00    +0.136 A 
ATOM     15  N   UNL     1       5.765  -7.076  29.153  0.00  0.00    -0.134 NA
ATOM     16  N   UNL     1       6.896  -6.620  28.538  0.00  0.00    -0.135 NA
BRANCH  14  17
ATOM     17  C   UNL     1       3.329  -6.454  29.225  0.00  0.00    +0.051 C 
ATOM     18  C   UNL     1       3.178  -7.303  30.483  0.00  0.00    +0.015 C 
ATOM     19  C   UNL     1       2.519  -7.070  28.079  0.00  0.00    +0.015 C 
ENDBRANCH  14  17
ENDBRANCH   3  13
ENDBRANCH   2   6
ENDBRANCH   1   2
BRANCH   1  20
ATOM     20  C   UNL     1       7.325  -2.498  24.027  0.00  0.00    +0.104 C 
BRANCH  20  21
ATOM     21  C   UNL     1       7.118  -3.612  23.022  0.00  0.00    -0.027 A 
ATOM     22  C   UNL     1       7.788  -4.833  23.198  0.00  0.00    +0.005 A 
ATOM     23  C   UNL     1       7.480  -5.932  22.399  0.00  0.00    +0.000 A 
ATOM     24  C   UNL     1       6.509  -5.819  21.409  0.00  0.00    +0.000 A 
ATOM     25  C   UNL     1       5.858  -4.605  21.200  0.00  0.00    +0.000 A 
ATOM     26  C   UNL     1       6.165  -3.504  21.996  0.00  0.00    +0.005 A 
ENDBRANCH  20  21
BRANCH  20  27
ATOM     27  N   UNL     1       8.517  -1.729  23.716  0.00  0.00    -0.308 N 
ATOM     28  H   UNL     1       9.394  -2.018  24.122  0.00  0.00    +0.149 HD
ATOM     29  C   UNL     1       8.491  -0.707  22.789  0.00  0.00    +0.217 C 
ATOM     30  O   UNL     1       7.453  -0.333  22.250  0.00  0.00    -0.275 OA
BRANCH  29  31
ATOM     31  C   UNL     1       9.861  -0.103  22.489  0.00  0.00    +0.075 C 
ATOM     32  C   UNL     1      10.699   0.116  23.761  0.00  0.00    +0.018 C 
ATOM     33  C   UNL     1      10.195   1.267  24.636  0.00  0.00    +0.076 C 
ATOM     34  C   UNL     1       9.996   2.541  23.840  0.00  0.00    +0.249 C 
ATOM     35  F   UNL     1      11.211   3.031  23.476  0.00  0.00    -0.206 F 
ATOM     36  F   UNL     1       9.420   3.485  24.624  0.00  0.00    -0.206 F 
ATOM     37  C   UNL     1       9.159   2.340  22.589  0.00  0.00    +0.076 C 
ATOM     38  C   UNL     1       9.725   1.221  21.714  0.00  0.00    +0.018 C 
ENDBRANCH  29  31
ENDBRANCH  20  27
ENDBRANCH   1  20
TORSDOF 8
ENDMDL
MODEL 6
REMARK VINA RESULT:      -7.2      4.295      8.493
REMARK  Name = 
REMARK  11 active torsions:
REMARK  status: ('A' for Active; 'I' for Inactive)
REMARK    1  A    between atoms: C_1  and  C_2
REMARK    2  A    between atoms: C_5  and  C_38
REMARK    3  A    between atoms: N_6  and  C_7
REMARK    4  A    between atoms: N_16  and  C_17
REMARK    5  A    between atoms: C_17  and  C_18
REMARK    6  A    between atoms: C_18  and  C_19
REMARK    7  A    between atoms: C_19  and  C_21
REMARK    8  A    between atoms: C_19  and  N_27
REMARK    9  A    between atoms: C_28  and  C_30
REMARK   10  A    between atoms: C_38  and  C_39
REMARK   11  A    between atoms: C_38  and  C_40
REMARK                            x       y       z     vdW  Elec       q    Type
REMARK                         _______ _______ _______ _____ _____    ______ ____
ROOT
ATOM      1  C   UNL     1       5.950   0.334  24.898  0.00  0.00    +0.042 C 
ENDROOT
BRANCH   1   2
ATOM      2  C   UNL     1       6.235   1.473  23.909  0.00  0.00    +0.087 C 
BRANCH   2   6
ATOM      3  C   UNL     1       7.969   4.425  24.191  0.00  0.00    +0.093 C 
ATOM      4  C   UNL     1       7.168   4.094  22.920  0.00  0.00    +0.044 C 
ATOM      5  C   UNL     1       5.689   3.815  23.271  0.00  0.00    +0.059 C 
ATOM      6  N   UNL     1       5.580   2.733  24.255  0.00  0.00    -0.296 NA
ATOM      7  C   UNL     1       6.077   3.337  25.502  0.00  0.00    +0.059 C 
ATOM      8  C   UNL     1       5.278   4.642  25.530  0.00  0.00    +0.020 C 
ATOM      9  C   UNL     1       5.030   4.966  24.052  0.00  0.00    +0.020 C 
ATOM     10  C   UNL     1       7.585   3.615  25.442  0.00  0.00    +0.044 C 
BRANCH   3  13
ATOM     11  C   UNL     1       9.766   7.087  24.333  0.00  0.00    +0.088 C 
ATOM     12  C   UNL     1      10.184   5.700  24.029  0.00  0.00    +0.131 A 
ATOM     13  N   UNL     1       9.406   4.566  24.036  0.00  0.00    -0.312 N 
ATOM     14  C   UNL     1      10.244   3.534  23.652  0.00  0.00    +0.136 A 
ATOM     15  N   UNL     1      11.444   4.021  23.431  0.00  0.00    -0.134 NA
ATOM     16  N   UNL     1      11.409   5.366  23.669  0.00  0.00    -0.135 NA
BRANCH  14  17
ATOM     17  C   UNL     1       9.815   2.104  23.455  0.00  0.00    +0.051 C 
ATOM     18  C   UNL     1      10.592   1.140  24.347  0.00  0.00    +0.015 C 
ATOM     19  C   UNL     1       9.972   1.695  21.986  0.00  0.00    +0.015 C 
ENDBRANCH  14  17
ENDBRANCH   3  13
ENDBRANCH   2   6
ENDBRANCH   1   2
BRANCH   1  20
ATOM     20  C   UNL     1       6.055  -1.036  24.193  0.00  0.00    +0.104 C 
BRANCH  20  21
ATOM     21  C   UNL     1       7.491  -1.357  23.831  0.00  0.00    -0.027 A 
ATOM     22  C   UNL     1       8.362  -1.829  24.825  0.00  0.00    +0.005 A 
ATOM     23  C   UNL     1       9.629  -2.303  24.489  0.00  0.00    +0.000 A 
ATOM     24  C   UNL     1      10.041  -2.300  23.160  0.00  0.00    +0.000 A 
ATOM     25  C   UNL     1       9.200  -1.805  22.166  0.00  0.00    +0.000 A 
ATOM     26  C   UNL     1       7.934  -1.328  22.499  0.00  0.00    +0.005 A 
ENDBRANCH  20  21
BRANCH  20  27
ATOM     27  N   UNL     1       5.473  -2.090  25.005  0.00  0.00    -0.308 N 
ATOM     28  H   UNL     1       5.418  -1.951  26.002  0.00  0.00    +0.149 HD
ATOM     29  C   UNL     1       4.890  -3.200  24.430  0.00  0.00    +0.217 C 
ATOM     30  O   UNL     1       4.910  -3.403  23.219  0.00  0.00    -0.275 OA
BRANCH  29  31
ATOM     31  C   UNL     1       4.209  -4.134  25.430  0.00  0.00    +0.075 C 
ATOM     32  C   UNL     1       4.510  -3.752  26.889  0.00  0.00    +0.018 C 
ATOM     33  C   UNL     1       5.947  -4.062  27.320  0.00  0.00    +0.076 C 
ATOM     34  C   UNL     1       6.342  -5.488  26.993  0.00  0.00    +0.249 C 
ATOM     35  F   UNL     1       5.660  -6.336  27.810  0.00  0.00    -0.206 F 
ATOM     36  F   UNL     1       7.658  -5.671  27.263  0.00  0.00    -0.206 F 
ATOM     37  C   UNL     1       6.063  -5.872  25.551  0.00  0.00    +0.076 C 
ATOM     38  C   UNL     1       4.605  -5.600  25.176  0.00  0.00    +0.018 C 
ENDBRANCH  29  31
ENDBRANCH  20  27
ENDBRANCH   1  20
TORSDOF 8
ENDMDL
MODEL 7
REMARK VINA RESULT:      -7.1      3.026      7.071
REMARK  Name = 
REMARK  11 active torsions:
REMARK  status: ('A' for Active; 'I' for Inactive)
REMARK    1  A    between atoms: C_1  and  C_2
REMARK    2  A    between atoms: C_5  and  C_38
REMARK    3  A    between atoms: N_6  and  C_7
REMARK    4  A    between atoms: N_16  and  C_17
REMARK    5  A    between atoms: C_17  and  C_18
REMARK    6  A    between atoms: C_18  and  C_19
REMARK    7  A    between atoms: C_19  and  C_21
REMARK    8  A    between atoms: C_19  and  N_27
REMARK    9  A    between atoms: C_28  and  C_30
REMARK   10  A    between atoms: C_38  and  C_39
REMARK   11  A    between atoms: C_38  and  C_40
REMARK                            x       y       z     vdW  Elec       q    Type
REMARK                         _______ _______ _______ _____ _____    ______ ____
ROOT
ATOM      1  C   UNL     1       8.059  -4.294  26.899  0.00  0.00    +0.042 C 
ENDROOT
BRANCH   1   2
ATOM      2  C   UNL     1       8.004  -3.034  26.024  0.00  0.00    +0.087 C 
BRANCH   2   6
ATOM      3  C   UNL     1       7.990   0.092  24.600  0.00  0.00    +0.093 C 
ATOM      4  C   UNL     1       6.736  -0.799  24.569  0.00  0.00    +0.044 C 
ATOM      5  C   UNL     1       6.324  -1.200  26.003  0.00  0.00    +0.059 C 
ATOM      6  N   UNL     1       7.427  -1.871  26.696  0.00  0.00    -0.296 NA
ATOM      7  C   UNL     1       8.395  -0.792  26.952  0.00  0.00    +0.059 C 
ATOM      8  C   UNL     1       7.484   0.274  27.565  0.00  0.00    +0.020 C 
ATOM      9  C   UNL     1       6.114   0.013  26.929  0.00  0.00    +0.020 C 
ATOM     10  C   UNL     1       9.043  -0.287  25.656  0.00  0.00    +0.044 C 
BRANCH   3  13
ATOM     11  C   UNL     1       9.526  -1.822  22.523  0.00  0.00    +0.088 C 
ATOM     12  C   UNL     1       9.297  -0.361  22.444  0.00  0.00    +0.131 A 
ATOM     13  N   UNL     1       8.582   0.426  23.316  0.00  0.00    -0.312 N 
ATOM     14  C   UNL     1       8.692   1.718  22.831  0.00  0.00    +0.136 A 
ATOM     15  N   UNL     1       9.426   1.700  21.741  0.00  0.00    -0.134 NA
ATOM     16  N   UNL     1       9.799   0.409  21.498  0.00  0.00    -0.135 NA
BRANCH  14  17
ATOM     17  C   UNL     1       8.119   2.940  23.497  0.00  0.00    +0.051 C 
ATOM     18  C   UNL     1       7.349   3.823  22.520  0.00  0.00    +0.015 C 
ATOM     19  C   UNL     1       9.230   3.754  24.171  0.00  0.00    +0.015 C 
ENDBRANCH  14  17
ENDBRANCH   3  13
ENDBRANCH   2   6
ENDBRANCH   1   2
BRANCH   1  20
ATOM     20  C   UNL     1       6.718  -5.057  26.837  0.00  0.00    +0.104 C 
BRANCH  20  21
ATOM     21  C   UNL     1       5.925  -4.876  28.115  0.00  0.00    -0.027 A 
ATOM     22  C   UNL     1       4.980  -3.842  28.199  0.00  0.00    +0.005 A 
ATOM     23  C   UNL     1       4.111  -3.762  29.285  0.00  0.00    +0.000 A 
ATOM     24  C   UNL     1       4.185  -4.708  30.303  0.00  0.00    +0.000 A 
ATOM     25  C   UNL     1       5.139  -5.722  30.250  0.00  0.00    +0.000 A 
ATOM     26  C   UNL     1       6.011  -5.803  29.167  0.00  0.00    +0.005 A 
ENDBRANCH  20  21
BRANCH  20  27
ATOM     27  N   UNL     1       5.939  -4.657  25.678  0.00  0.00    -0.308 N 
ATOM     28  H   UNL     1       6.065  -3.723  25.316  0.00  0.00    +0.149 HD
ATOM     29  C   UNL     1       5.142  -5.557  25.002  0.00  0.00    +0.217 C 
ATOM     30  O   UNL     1       4.976  -6.710  25.389  0.00  0.00    -0.275 OA
BRANCH  29  31
ATOM     31  C   UNL     1       4.508  -4.995  23.731  0.00  0.00    +0.075 C 
ATOM     32  C   UNL     1       4.358  -6.058  22.629  0.00  0.00    +0.018 C 
ATOM     33  C   UNL     1       5.687  -6.467  21.988  0.00  0.00    +0.076 C 
ATOM     34  C   UNL     1       6.494  -5.266  21.537  0.00  0.00    +0.249 C 
ATOM     35  F   UNL     1       5.879  -4.694  20.468  0.00  0.00    -0.206 F 
ATOM     36  F   UNL     1       7.714  -5.670  21.107  0.00  0.00    -0.206 F 
ATOM     37  C   UNL     1       6.660  -4.216  22.621  0.00  0.00    +0.076 C 
ATOM     38  C   UNL     1       5.308  -3.792  23.198  0.00  0.00    +0.018 C 
ENDBRANCH  29  31
ENDBRANCH  20  27
ENDBRANCH   1  20
TORSDOF 8
ENDMDL
MODEL 8
REMARK VINA RESULT:      -7.1      4.327      8.415
REMARK  Name = 
REMARK  11 active torsions:
REMARK  status: ('A' for Active; 'I' for Inactive)
REMARK    1  A    between atoms: C_1  and  C_2
REMARK    2  A    between atoms: C_5  and  C_38
REMARK    3  A    between atoms: N_6  and  C_7
REMARK    4  A    between atoms: N_16  and  C_17
REMARK    5  A    between atoms: C_17  and  C_18
REMARK    6  A    between atoms: C_18  and  C_19
REMARK    7  A    between atoms: C_19  and  C_21
REMARK    8  A    between atoms: C_19  and  N_27
REMARK    9  A    between atoms: C_28  and  C_30
REMARK   10  A    between atoms: C_38  and  C_39
REMARK   11  A    between atoms: C_38  and  C_40
REMARK                            x       y       z     vdW  Elec       q    Type
REMARK                         _______ _______ _______ _____ _____    ______ ____
ROOT
ATOM      1  C   UNL     1       6.359  -1.141  24.007  0.00  0.00    +0.042 C 
ENDROOT
BRANCH   1   2
ATOM      2  C   UNL     1       7.367  -0.393  23.123  0.00  0.00    +0.087 C 
BRANCH   2   6
ATOM      3  C   UNL     1       8.854   2.653  23.681  0.00  0.00    +0.093 C 
ATOM      4  C   UNL     1       8.164   1.886  24.822  0.00  0.00    +0.044 C 
ATOM      5  C   UNL     1       8.780   0.478  24.975  0.00  0.00    +0.059 C 
ATOM      6  N   UNL     1       8.697  -0.270  23.717  0.00  0.00    -0.296 NA
ATOM      7  C   UNL     1       9.678   0.395  22.843  0.00  0.00    +0.059 C 
ATOM      8  C   UNL     1      10.899   0.442  23.765  0.00  0.00    +0.020 C 
ATOM      9  C   UNL     1      10.306   0.508  25.177  0.00  0.00    +0.020 C 
ATOM     10  C   UNL     1       9.229   1.808  22.450  0.00  0.00    +0.044 C 
BRANCH   3  13
ATOM     11  C   UNL     1       6.170   3.278  22.025  0.00  0.00    +0.088 C 
ATOM     12  C   UNL     1       7.172   4.227  22.561  0.00  0.00    +0.131 A 
ATOM     13  N   UNL     1       8.281   3.939  23.322  0.00  0.00    -0.312 N 
ATOM     14  C   UNL     1       8.912   5.152  23.540  0.00  0.00    +0.136 A 
ATOM     15  N   UNL     1       8.223   6.100  22.947  0.00  0.00    -0.134 NA
ATOM     16  N   UNL     1       7.140   5.528  22.343  0.00  0.00    -0.135 NA
BRANCH  14  17
ATOM     17  C   UNL     1      10.213   5.325  24.276  0.00  0.00    +0.051 C 
ATOM     18  C   UNL     1      10.214   6.568  25.161  0.00  0.00    +0.015 C 
ATOM     19  C   UNL     1      11.384   5.388  23.288  0.00  0.00    +0.015 C 
ENDBRANCH  14  17
ENDBRANCH   3  13
ENDBRANCH   2   6
ENDBRANCH   1   2
BRANCH   1  20
ATOM     20  C   UNL     1       6.400  -2.656  23.715  0.00  0.00    +0.104 C 
BRANCH  20  21
ATOM     21  C   UNL     1       7.501  -3.336  24.505  0.00  0.00    -0.027 A 
ATOM     22  C   UNL     1       7.707  -2.979  25.846  0.00  0.00    +0.005 A 
ATOM     23  C   UNL     1       8.583  -3.709  26.647  0.00  0.00    +0.000 A 
ATOM     24  C   UNL     1       9.270  -4.795  26.112  0.00  0.00    +0.000 A 
ATOM     25  C   UNL     1       9.101  -5.141  24.773  0.00  0.00    +0.000 A 
ATOM     26  C   UNL     1       8.227  -4.412  23.970  0.00  0.00    +0.005 A 
ENDBRANCH  20  21
BRANCH  20  27
ATOM     27  N   UNL     1       5.113  -3.276  23.975  0.00  0.00    -0.308 N 
ATOM     28  H   UNL     1       4.572  -2.946  24.760  0.00  0.00    +0.149 HD
ATOM     29  C   UNL     1       4.572  -4.201  23.105  0.00  0.00    +0.217 C 
ATOM     30  O   UNL     1       5.182  -4.616  22.124  0.00  0.00    -0.275 OA
BRANCH  29  31
ATOM     31  C   UNL     1       3.155  -4.641  23.466  0.00  0.00    +0.075 C 
ATOM     32  C   UNL     1       2.768  -4.256  24.905  0.00  0.00    +0.018 C 
ATOM     33  C   UNL     1       3.482  -5.088  25.975  0.00  0.00    +0.076 C 
ATOM     34  C   UNL     1       3.358  -6.576  25.713  0.00  0.00    +0.249 C 
ATOM     35  F   UNL     1       2.071  -6.959  25.931  0.00  0.00    -0.206 F 
ATOM     36  F   UNL     1       4.118  -7.261  26.602  0.00  0.00    -0.206 F 
ATOM     37  C   UNL     1       3.750  -6.970  24.301  0.00  0.00    +0.076 C 
ATOM     38  C   UNL     1       2.977  -6.157  23.261  0.00  0.00    +0.018 C 
ENDBRANCH  29  31
ENDBRANCH  20  27
ENDBRANCH   1  20
TORSDOF 8
ENDMDL
MODEL 9
REMARK VINA RESULT:      -7.1      2.828      5.302
REMARK  Name = 
REMARK  11 active torsions:
REMARK  status: ('A' for Active; 'I' for Inactive)
REMARK    1  A    between atoms: C_1  and  C_2
REMARK    2  A    between atoms: C_5  and  C_38
REMARK    3  A    between atoms: N_6  and  C_7
REMARK    4  A    between atoms: N_16  and  C_17
REMARK    5  A    between atoms: C_17  and  C_18
REMARK    6  A    between atoms: C_18  and  C_19
REMARK    7  A    between atoms: C_19  and  C_21
REMARK    8  A    between atoms: C_19  and  N_27
REMARK    9  A    between atoms: C_28  and  C_30
REMARK   10  A    between atoms: C_38  and  C_39
REMARK   11  A    between atoms: C_38  and  C_40
REMARK                            x       y       z     vdW  Elec       q    Type
REMARK                         _______ _______ _______ _____ _____    ______ ____
ROOT
ATOM      1  C   UNL     1       9.596  -2.660  23.921  0.00  0.00    +0.042 C 
ENDROOT
BRANCH   1   2
ATOM      2  C   UNL     1       8.331  -3.521  24.039  0.00  0.00    +0.087 C 
BRANCH   2   6
ATOM      3  C   UNL     1       5.296  -5.125  23.881  0.00  0.00    +0.093 C 
ATOM      4  C   UNL     1       5.379  -3.593  24.000  0.00  0.00    +0.044 C 
ATOM      5  C   UNL     1       6.213  -3.005  22.840  0.00  0.00    +0.059 C 
ATOM      6  N   UNL     1       7.552  -3.601  22.804  0.00  0.00    -0.296 NA
ATOM      7  C   UNL     1       7.316  -4.977  22.339  0.00  0.00    +0.059 C 
ATOM      8  C   UNL     1       6.430  -4.721  21.118  0.00  0.00    +0.020 C 
ATOM      9  C   UNL     1       5.690  -3.421  21.454  0.00  0.00    +0.020 C 
ATOM     10  C   UNL     1       6.580  -5.818  23.389  0.00  0.00    +0.044 C 
BRANCH   3  13
ATOM     11  C   UNL     1       6.358  -5.529  26.888  0.00  0.00    +0.088 C 
ATOM     12  C   UNL     1       5.133  -6.069  26.256  0.00  0.00    +0.131 A 
ATOM     13  N   UNL     1       4.668  -5.830  24.984  0.00  0.00    -0.312 N 
ATOM     14  C   UNL     1       3.515  -6.586  24.858  0.00  0.00    +0.136 A 
ATOM     15  N   UNL     1       3.308  -7.233  25.983  0.00  0.00    -0.134 NA
ATOM     16  N   UNL     1       4.310  -6.910  26.853  0.00  0.00    -0.135 NA
BRANCH  14  17
ATOM     17  C   UNL     1       2.688  -6.693  23.605  0.00  0.00    +0.051 C 
ATOM     18  C   UNL     1       1.783  -5.481  23.406  0.00  0.00    +0.015 C 
ATOM     19  C   UNL     1       1.846  -7.974  23.627  0.00  0.00    +0.015 C 
ENDBRANCH  14  17
ENDBRANCH   3  13
ENDBRANCH   2   6
ENDBRANCH   1   2
BRANCH   1  20
ATOM     20  C   UNL     1       9.432  -1.343  24.708  0.00  0.00    +0.104 C 
BRANCH  20  21
ATOM     21  C   UNL     1       9.859  -0.151  23.875  0.00  0.00    -0.027 A 
ATOM     22  C   UNL     1       9.577  -0.135  22.500  0.00  0.00    +0.005 A 
ATOM     23  C   UNL     1       9.791   1.017  21.747  0.00  0.00    +0.000 A 
ATOM     24  C   UNL     1      10.301   2.160  22.357  0.00  0.00    +0.000 A 
ATOM     25  C   UNL     1      10.617   2.149  23.713  0.00  0.00    +0.000 A 
ATOM     26  C   UNL     1      10.405   0.999  24.469  0.00  0.00    +0.005 A 
ENDBRANCH  20  21
BRANCH  20  27
ATOM     27  N   UNL     1       8.070  -1.183  25.187  0.00  0.00    -0.308 N 
ATOM     28  H   UNL     1       7.313  -1.404  24.558  0.00  0.00    +0.149 HD
ATOM     29  C   UNL     1       7.804  -0.864  26.502  0.00  0.00    +0.217 C 
ATOM     30  O   UNL     1       8.692  -0.610  27.311  0.00  0.00    -0.275 OA
BRANCH  29  31
ATOM     31  C   UNL     1       6.318  -0.874  26.857  0.00  0.00    +0.075 C 
ATOM     32  C   UNL     1       5.422  -0.571  25.644  0.00  0.00    +0.018 C 
ATOM     33  C   UNL     1       5.478   0.891  25.192  0.00  0.00    +0.076 C 
ATOM     34  C   UNL     1       5.251   1.851  26.343  0.00  0.00    +0.249 C 
ATOM     35  F   UNL     1       3.951   1.772  26.737  0.00  0.00    -0.206 F 
ATOM     36  F   UNL     1       5.448   3.124  25.922  0.00  0.00    -0.206 F 
ATOM     37  C   UNL     1       6.140   1.569  27.541  0.00  0.00    +0.076 C 
ATOM     38  C   UNL     1       6.014   0.115  27.998  0.00  0.00    +0.018 C 
ENDBRANCH  29  31
ENDBRANCH  20  27
ENDBRANCH   1  20
TORSDOF 8
ENDMDL
