MODEL 1
REMARK VINA RESULT:      -6.7      0.000      0.000
REMARK  Name = 
REMARK  18 active torsions:
REMARK  status: ('A' for Active; 'I' for Inactive)
REMARK    1  A    between atoms: C_1  and  C_2
REMARK    2  A    between atoms: C_2  and  C_41
REMARK    3  A    between atoms: C_7  and  C_27
REMARK    4  A    between atoms: C_11  and  C_13
REMARK    5  A    between atoms: C_13  and  C_15
REMARK    6  A    between atoms: C_13  and  N_19
REMARK    7  A    between atoms: C_15  and  C_16
REMARK    8  A    between atoms: C_15  and  C_17
REMARK    9  A    between atoms: C_15  and  C_18
REMARK   10  A    between atoms: N_22  and  C_23
REMARK   11  A    between atoms: C_23  and  C_24
REMARK   12  A    between atoms: C_23  and  C_25
REMARK   13  A    between atoms: C_23  and  C_26
REMARK   14  A    between atoms: N_29  and  C_30
REMARK   15  A    between atoms: C_30  and  C_31
REMARK   16  A    between atoms: C_30  and  C_36
REMARK   17  A    between atoms: C_31  and  C_32
REMARK   18  A    between atoms: C_36  and  C_38
REMARK                            x       y       z     vdW  Elec       q    Type
REMARK                         _______ _______ _______ _____ _____    ______ ____
ROOT
ATOM      1  C   UNL     1       4.852   0.402  29.357  0.00  0.00    +0.011 C 
ATOM      2  C   UNL     1       4.613   0.031  27.905  0.00  0.00    -0.025 C 
ATOM      3  C   UNL     1       3.269   0.476  27.404  0.00  0.00    +0.011 C 
ATOM      4  C   UNL     1       5.831   0.071  26.995  0.00  0.00    +0.030 C 
ATOM      5  C   UNL     1       5.916   0.034  25.469  0.00  0.00    +0.166 C 
ATOM      6  N   UNL     1       5.794  -1.418  25.190  0.00  0.00    -0.288 N 
ATOM      7  C   UNL     1       6.013  -1.956  23.923  0.00  0.00    +0.237 C 
ATOM      8  O   UNL     1       6.473  -1.235  23.036  0.00  0.00    -0.274 OA
ATOM      9  C   UNL     1       4.971  -2.049  26.213  0.00  0.00    +0.113 C 
ATOM     10  C   UNL     1       5.275  -1.257  27.444  0.00  0.00    +0.018 C 
ENDROOT
BRANCH   5  11
ATOM     11  C   UNL     1       7.209   0.798  25.046  0.00  0.00    +0.234 C 
ATOM     12  N   UNL     1       7.155   1.447  23.834  0.00  0.00    -0.304 N 
ATOM     13  H   UNL     1       6.229   1.720  23.522  0.00  0.00    +0.149 HD
ATOM     14  O   UNL     1       8.261   0.682  25.678  0.00  0.00    -0.274 OA
BRANCH  12  15
ATOM     15  C   UNL     1       8.286   2.209  23.312  0.00  0.00    +0.149 C 
BRANCH  15  16
ATOM     16  C   UNL     1       7.989   3.698  23.462  0.00  0.00    +0.237 C 
ATOM     17  O   UNL     1       8.497   4.426  24.319  0.00  0.00    -0.285 OA
BRANCH  16  18
ATOM     18  C   UNL     1       6.956   4.277  22.495  0.00  0.00    +0.279 C 
ATOM     19  N   UNL     1       7.400   5.328  21.744  0.00  0.00    -0.323 N 
ATOM     20  H   UNL     1       6.789   5.738  21.053  0.00  0.00    +0.145 HD
ATOM     21  H   UNL     1       8.363   5.646  21.824  0.00  0.00    +0.145 HD
ATOM     22  O   UNL     1       5.824   3.825  22.415  0.00  0.00    -0.267 OA
ENDBRANCH  16  18
ENDBRANCH  15  16
BRANCH  15  23
ATOM     23  C   UNL     1       8.621   1.852  21.853  0.00  0.00    +0.034 C 
BRANCH  23  24
ATOM     24  C   UNL     1       9.780   0.857  21.727  0.00  0.00    -0.009 C 
ATOM     25  C   UNL     1       9.384  -0.607  21.425  0.00  0.00    +0.003 C 
ATOM     26  C   UNL     1      10.328  -1.078  22.535  0.00  0.00    +0.001 C 
ATOM     27  C   UNL     1      10.381   0.362  23.066  0.00  0.00    +0.003 C 
ENDBRANCH  23  24
ENDBRANCH  15  23
ENDBRANCH  12  15
ENDBRANCH   5  11
BRANCH   7  28
ATOM     28  C   UNL     1       5.838  -3.505  23.714  0.00  0.00    +0.166 C 
BRANCH  28  29
ATOM     29  N   UNL     1       4.596  -3.957  24.378  0.00  0.00    -0.288 N 
ATOM     30  H   UNL     1       4.399  -3.631  25.312  0.00  0.00    +0.151 HD
ATOM     31  C   UNL     1       3.701  -4.780  23.741  0.00  0.00    +0.301 C 
ATOM     32  N   UNL     1       2.709  -5.247  24.568  0.00  0.00    -0.295 N 
ATOM     33  H   UNL     1       2.928  -5.242  25.554  0.00  0.00    +0.151 HD
ATOM     34  O   UNL     1       3.801  -5.068  22.556  0.00  0.00    -0.253 OA
BRANCH  32  35
ATOM     35  C   UNL     1       1.669  -6.204  24.123  0.00  0.00    +0.028 C 
ATOM     36  C   UNL     1       0.920  -5.661  22.891  0.00  0.00    +0.031 C 
ATOM     37  C   UNL     1       0.633  -6.393  25.250  0.00  0.00    +0.031 C 
ATOM     38  C   UNL     1       2.266  -7.587  23.805  0.00  0.00    +0.031 C 
ENDBRANCH  32  35
ENDBRANCH  28  29
BRANCH  28  39
ATOM     39  C   UNL     1       7.058  -4.406  24.160  0.00  0.00    -0.011 C 
ATOM     40  C   UNL     1       7.404  -5.432  23.062  0.00  0.00    +0.013 C 
ATOM     41  C   UNL     1       6.681  -5.215  25.429  0.00  0.00    +0.013 C 
ATOM     42  C   UNL     1       8.330  -3.604  24.504  0.00  0.00    +0.013 C 
ENDBRANCH  28  39
ENDBRANCH   7  28
TORSDOF 10
ENDMDL
MODEL 2
REMARK VINA RESULT:      -6.7      2.839      7.200
REMARK  Name = 
REMARK  18 active torsions:
REMARK  status: ('A' for Active; 'I' for Inactive)
REMARK    1  A    between atoms: C_1  and  C_2
REMARK    2  A    between atoms: C_2  and  C_41
REMARK    3  A    between atoms: C_7  and  C_27
REMARK    4  A    between atoms: C_11  and  C_13
REMARK    5  A    between atoms: C_13  and  C_15
REMARK    6  A    between atoms: C_13  and  N_19
REMARK    7  A    between atoms: C_15  and  C_16
REMARK    8  A    between atoms: C_15  and  C_17
REMARK    9  A    between atoms: C_15  and  C_18
REMARK   10  A    between atoms: N_22  and  C_23
REMARK   11  A    between atoms: C_23  and  C_24
REMARK   12  A    between atoms: C_23  and  C_25
REMARK   13  A    between atoms: C_23  and  C_26
REMARK   14  A    between atoms: N_29  and  C_30
REMARK   15  A    between atoms: C_30  and  C_31
REMARK   16  A    between atoms: C_30  and  C_36
REMARK   17  A    between atoms: C_31  and  C_32
REMARK   18  A    between atoms: C_36  and  C_38
REMARK                            x       y       z     vdW  Elec       q    Type
REMARK                         _______ _______ _______ _____ _____    ______ ____
ROOT
ATOM      1  C   UNL     1       2.749  -0.342  29.169  0.00  0.00    +0.011 C 
ATOM      2  C   UNL     1       4.024   0.057  28.448  0.00  0.00    -0.025 C 
ATOM      3  C   UNL     1       5.155   0.358  29.388  0.00  0.00    +0.011 C 
ATOM      4  C   UNL     1       4.285  -0.636  27.120  0.00  0.00    +0.030 C 
ATOM      5  C   UNL     1       5.561  -0.693  26.278  0.00  0.00    +0.166 C 
ATOM      6  N   UNL     1       5.511   0.602  25.557  0.00  0.00    -0.288 N 
ATOM      7  C   UNL     1       6.384   0.911  24.516  0.00  0.00    +0.237 C 
ATOM      8  O   UNL     1       7.121   0.030  24.068  0.00  0.00    -0.274 OA
ATOM      9  C   UNL     1       4.838   1.598  26.379  0.00  0.00    +0.113 C 
ATOM     10  C   UNL     1       3.826   0.800  27.137  0.00  0.00    +0.018 C 
ENDROOT
BRANCH   5  11
ATOM     11  C   UNL     1       5.539  -2.029  25.472  0.00  0.00    +0.234 C 
ATOM     12  N   UNL     1       6.736  -2.702  25.389  0.00  0.00    -0.304 N 
ATOM     13  H   UNL     1       7.393  -2.525  26.142  0.00  0.00    +0.149 HD
ATOM     14  O   UNL     1       4.554  -2.368  24.812  0.00  0.00    -0.274 OA
BRANCH  12  15
ATOM     15  C   UNL     1       6.866  -3.969  24.675  0.00  0.00    +0.149 C 
BRANCH  15  16
ATOM     16  C   UNL     1       7.324  -5.044  25.656  0.00  0.00    +0.237 C 
ATOM     17  O   UNL     1       6.598  -5.941  26.094  0.00  0.00    -0.285 OA
BRANCH  16  18
ATOM     18  C   UNL     1       8.772  -4.941  26.136  0.00  0.00    +0.279 C 
ATOM     19  N   UNL     1       9.638  -5.812  25.536  0.00  0.00    -0.323 N 
ATOM     20  H   UNL     1      10.618  -5.776  25.771  0.00  0.00    +0.145 HD
ATOM     21  H   UNL     1       9.311  -6.437  24.803  0.00  0.00    +0.145 HD
ATOM     22  O   UNL     1       9.112  -4.139  26.993  0.00  0.00    -0.267 OA
ENDBRANCH  16  18
ENDBRANCH  15  16
BRANCH  15  23
ATOM     23  C   UNL     1       7.815  -3.876  23.467  0.00  0.00    +0.034 C 
BRANCH  23  24
ATOM     24  C   UNL     1       7.189  -4.394  22.167  0.00  0.00    -0.009 C 
ATOM     25  C   UNL     1       5.652  -4.558  22.176  0.00  0.00    +0.003 C 
ATOM     26  C   UNL     1       5.809  -5.952  21.563  0.00  0.00    +0.001 C 
ATOM     27  C   UNL     1       7.297  -5.923  21.941  0.00  0.00    +0.003 C 
ENDBRANCH  23  24
ENDBRANCH  15  23
ENDBRANCH  12  15
ENDBRANCH   5  11
BRANCH   7  28
ATOM     28  C   UNL     1       6.275   2.319  23.823  0.00  0.00    +0.166 C 
BRANCH  28  29
ATOM     29  N   UNL     1       5.217   2.281  22.790  0.00  0.00    -0.288 N 
ATOM     30  H   UNL     1       5.332   1.668  21.998  0.00  0.00    +0.151 HD
ATOM     31  C   UNL     1       4.075   3.037  22.905  0.00  0.00    +0.301 C 
ATOM     32  N   UNL     1       3.298   3.021  21.773  0.00  0.00    -0.295 N 
ATOM     33  H   UNL     1       3.780   2.782  20.918  0.00  0.00    +0.151 HD
ATOM     34  O   UNL     1       3.803   3.666  23.919  0.00  0.00    -0.253 OA
BRANCH  32  35
ATOM     35  C   UNL     1       2.054   3.815  21.636  0.00  0.00    +0.028 C 
ATOM     36  C   UNL     1       1.057   3.464  22.756  0.00  0.00    +0.031 C 
ATOM     37  C   UNL     1       1.380   3.477  20.290  0.00  0.00    +0.031 C 
ATOM     38  C   UNL     1       2.341   5.328  21.644  0.00  0.00    +0.031 C 
ENDBRANCH  32  35
ENDBRANCH  28  29
BRANCH  28  39
ATOM     39  C   UNL     1       7.615   2.897  23.214  0.00  0.00    -0.011 C 
ATOM     40  C   UNL     1       7.409   4.348  22.734  0.00  0.00    +0.013 C 
ATOM     41  C   UNL     1       8.032   2.066  21.972  0.00  0.00    +0.013 C 
ATOM     42  C   UNL     1       8.807   2.865  24.193  0.00  0.00    +0.013 C 
ENDBRANCH  28  39
ENDBRANCH   7  28
TORSDOF 10
ENDMDL
MODEL 3
REMARK VINA RESULT:      -6.7      2.502      8.000
REMARK  Name = 
REMARK  18 active torsions:
REMARK  status: ('A' for Active; 'I' for Inactive)
REMARK    1  A    between atoms: C_1  and  C_2
REMARK    2  A    between atoms: C_2  and  C_41
REMARK    3  A    between atoms: C_7  and  C_27
REMARK    4  A    between atoms: C_11  and  C_13
REMARK    5  A    between atoms: C_13  and  C_15
REMARK    6  A    between atoms: C_13  and  N_19
REMARK    7  A    between atoms: C_15  and  C_16
REMARK    8  A    between atoms: C_15  and  C_17
REMARK    9  A    between atoms: C_15  and  C_18
REMARK   10  A    between atoms: N_22  and  C_23
REMARK   11  A    between atoms: C_23  and  C_24
REMARK   12  A    between atoms: C_23  and  C_25
REMARK   13  A    between atoms: C_23  and  C_26
REMARK   14  A    between atoms: N_29  and  C_30
REMARK   15  A    between atoms: C_30  and  C_31
REMARK   16  A    between atoms: C_30  and  C_36
REMARK   17  A    between atoms: C_31  and  C_32
REMARK   18  A    between atoms: C_36  and  C_38
REMARK                            x       y       z     vdW  Elec       q    Type
REMARK                         _______ _______ _______ _____ _____    ______ ____
ROOT
ATOM      1  C   UNL     1       3.246   0.937  28.439  0.00  0.00    +0.011 C 
ATOM      2  C   UNL     1       4.722   0.782  28.119  0.00  0.00    -0.025 C 
ATOM      3  C   UNL     1       5.564   0.567  29.344  0.00  0.00    +0.011 C 
ATOM      4  C   UNL     1       5.052   0.067  26.818  0.00  0.00    +0.030 C 
ATOM      5  C   UNL     1       6.382  -0.501  26.321  0.00  0.00    +0.166 C 
ATOM      6  N   UNL     1       7.055   0.710  25.791  0.00  0.00    -0.288 N 
ATOM      7  C   UNL     1       8.234   0.646  25.052  0.00  0.00    +0.237 C 
ATOM      8  O   UNL     1       8.656  -0.453  24.689  0.00  0.00    -0.274 OA
ATOM      9  C   UNL     1       6.627   1.881  26.545  0.00  0.00    +0.113 C 
ATOM     10  C   UNL     1       5.213   1.564  26.912  0.00  0.00    +0.018 C 
ENDROOT
BRANCH   5  11
ATOM     11  C   UNL     1       6.063  -1.691  25.364  0.00  0.00    +0.234 C 
ATOM     12  N   UNL     1       6.882  -2.792  25.479  0.00  0.00    -0.304 N 
ATOM     13  H   UNL     1       7.326  -2.917  26.382  0.00  0.00    +0.149 HD
ATOM     14  O   UNL     1       5.241  -1.582  24.452  0.00  0.00    -0.274 OA
BRANCH  12  15
ATOM     15  C   UNL     1       6.699  -3.983  24.655  0.00  0.00    +0.149 C 
BRANCH  15  16
ATOM     16  C   UNL     1       6.307  -5.151  25.556  0.00  0.00    +0.237 C 
ATOM     17  O   UNL     1       5.507  -6.035  25.241  0.00  0.00    -0.285 OA
BRANCH  16  18
ATOM     18  C   UNL     1       6.939  -5.165  26.949  0.00  0.00    +0.279 C 
ATOM     19  N   UNL     1       8.041  -5.964  27.070  0.00  0.00    -0.323 N 
ATOM     20  H   UNL     1       8.536  -5.993  27.949  0.00  0.00    +0.145 HD
ATOM     21  H   UNL     1       8.403  -6.465  26.263  0.00  0.00    +0.145 HD
ATOM     22  O   UNL     1       6.480  -4.508  27.871  0.00  0.00    -0.267 OA
ENDBRANCH  16  18
ENDBRANCH  15  16
BRANCH  15  23
ATOM     23  C   UNL     1       7.941  -4.320  23.813  0.00  0.00    +0.034 C 
BRANCH  23  24
ATOM     24  C   UNL     1       7.612  -4.623  22.347  0.00  0.00    -0.009 C 
ATOM     25  C   UNL     1       6.190  -4.236  21.880  0.00  0.00    +0.003 C 
ATOM     26  C   UNL     1       6.043  -5.614  21.227  0.00  0.00    +0.001 C 
ATOM     27  C   UNL     1       7.256  -6.098  22.036  0.00  0.00    +0.003 C 
ENDBRANCH  23  24
ENDBRANCH  15  23
ENDBRANCH  12  15
ENDBRANCH   5  11
BRANCH   7  28
ATOM     28  C   UNL     1       8.890   1.984  24.549  0.00  0.00    +0.166 C 
BRANCH  28  29
ATOM     29  N   UNL     1       7.873   2.804  23.856  0.00  0.00    -0.288 N 
ATOM     30  H   UNL     1       7.292   2.368  23.155  0.00  0.00    +0.151 HD
ATOM     31  C   UNL     1       7.685   4.128  24.168  0.00  0.00    +0.301 C 
ATOM     32  N   UNL     1       6.839   4.775  23.301  0.00  0.00    -0.295 N 
ATOM     33  H   UNL     1       6.742   4.350  22.390  0.00  0.00    +0.151 HD
ATOM     34  O   UNL     1       8.237   4.664  25.119  0.00  0.00    -0.253 OA
BRANCH  32  35
ATOM     35  C   UNL     1       6.538   6.223  23.395  0.00  0.00    +0.028 C 
ATOM     36  C   UNL     1       5.834   6.548  24.726  0.00  0.00    +0.031 C 
ATOM     37  C   UNL     1       5.579   6.620  22.254  0.00  0.00    +0.031 C 
ATOM     38  C   UNL     1       7.809   7.079  23.251  0.00  0.00    +0.031 C 
ENDBRANCH  32  35
ENDBRANCH  28  29
BRANCH  28  39
ATOM     39  C   UNL     1      10.177   1.826  23.643  0.00  0.00    -0.011 C 
ATOM     40  C   UNL     1       9.802   1.241  22.267  0.00  0.00    +0.013 C 
ATOM     41  C   UNL     1      11.167   0.829  24.301  0.00  0.00    +0.013 C 
ATOM     42  C   UNL     1      10.950   3.144  23.426  0.00  0.00    +0.013 C 
ENDBRANCH  28  39
ENDBRANCH   7  28
TORSDOF 10
ENDMDL
MODEL 4
REMARK VINA RESULT:      -6.6      3.157      6.906
REMARK  Name = 
REMARK  18 active torsions:
REMARK  status: ('A' for Active; 'I' for Inactive)
REMARK    1  A    between atoms: C_1  and  C_2
REMARK    2  A    between atoms: C_2  and  C_41
REMARK    3  A    between atoms: C_7  and  C_27
REMARK    4  A    between atoms: C_11  and  C_13
REMARK    5  A    between atoms: C_13  and  C_15
REMARK    6  A    between atoms: C_13  and  N_19
REMARK    7  A    between atoms: C_15  and  C_16
REMARK    8  A    between atoms: C_15  and  C_17
REMARK    9  A    between atoms: C_15  and  C_18
REMARK   10  A    between atoms: N_22  and  C_23
REMARK   11  A    between atoms: C_23  and  C_24
REMARK   12  A    between atoms: C_23  and  C_25
REMARK   13  A    between atoms: C_23  and  C_26
REMARK   14  A    between atoms: N_29  and  C_30
REMARK   15  A    between atoms: C_30  and  C_31
REMARK   16  A    between atoms: C_30  and  C_36
REMARK   17  A    between atoms: C_31  and  C_32
REMARK   18  A    between atoms: C_36  and  C_38
REMARK                            x       y       z     vdW  Elec       q    Type
REMARK                         _______ _______ _______ _____ _____    ______ ____
ROOT
ATOM      1  C   UNL     1       3.313  -1.510  28.624  0.00  0.00    +0.011 C 
ATOM      2  C   UNL     1       4.319  -0.537  28.036  0.00  0.00    -0.025 C 
ATOM      3  C   UNL     1       5.255   0.026  29.066  0.00  0.00    +0.011 C 
ATOM      4  C   UNL     1       4.812  -0.853  26.632  0.00  0.00    +0.030 C 
ATOM      5  C   UNL     1       5.996  -0.273  25.856  0.00  0.00    +0.166 C 
ATOM      6  N   UNL     1       5.432   0.998  25.340  0.00  0.00    -0.288 N 
ATOM      7  C   UNL     1       6.099   1.784  24.402  0.00  0.00    +0.237 C 
ATOM      8  O   UNL     1       7.115   1.343  23.863  0.00  0.00    -0.274 OA
ATOM      9  C   UNL     1       4.434   1.508  26.270  0.00  0.00    +0.113 C 
ATOM     10  C   UNL     1       3.827   0.270  26.846  0.00  0.00    +0.018 C 
ENDROOT
BRANCH   5  11
ATOM     11  C   UNL     1       6.487  -1.365  24.856  0.00  0.00    +0.234 C 
ATOM     12  N   UNL     1       7.827  -1.677  24.915  0.00  0.00    -0.304 N 
ATOM     13  H   UNL     1       8.279  -1.505  25.807  0.00  0.00    +0.149 HD
ATOM     14  O   UNL     1       5.758  -1.793  23.959  0.00  0.00    -0.274 OA
BRANCH  12  15
ATOM     15  C   UNL     1       8.427  -2.684  24.046  0.00  0.00    +0.149 C 
BRANCH  15  16
ATOM     16  C   UNL     1       8.131  -4.068  24.617  0.00  0.00    +0.237 C 
ATOM     17  O   UNL     1       7.267  -4.832  24.176  0.00  0.00    -0.285 OA
BRANCH  16  18
ATOM     18  C   UNL     1       8.951  -4.480  25.840  0.00  0.00    +0.279 C 
ATOM     19  N   UNL     1       9.790  -5.539  25.638  0.00  0.00    -0.323 N 
ATOM     20  H   UNL     1      10.393  -5.843  26.387  0.00  0.00    +0.145 HD
ATOM     21  H   UNL     1       9.862  -5.969  24.719  0.00  0.00    +0.145 HD
ATOM     22  O   UNL     1       8.849  -3.897  26.909  0.00  0.00    -0.267 OA
ENDBRANCH  16  18
ENDBRANCH  15  16
BRANCH  15  23
ATOM     23  C   UNL     1       9.939  -2.475  23.850  0.00  0.00    +0.034 C 
BRANCH  23  24
ATOM     24  C   UNL     1      10.274  -1.606  22.632  0.00  0.00    -0.009 C 
ATOM     25  C   UNL     1      10.330  -0.082  22.885  0.00  0.00    +0.003 C 
ATOM     26  C   UNL     1       9.467   0.144  21.640  0.00  0.00    +0.001 C 
ATOM     27  C   UNL     1       9.099  -1.347  21.656  0.00  0.00    +0.003 C 
ENDBRANCH  23  24
ENDBRANCH  15  23
ENDBRANCH  12  15
ENDBRANCH   5  11
BRANCH   7  28
ATOM     28  C   UNL     1       5.437   3.129  23.928  0.00  0.00    +0.166 C 
BRANCH  28  29
ATOM     29  N   UNL     1       4.826   2.936  22.595  0.00  0.00    -0.288 N 
ATOM     30  H   UNL     1       5.405   2.606  21.838  0.00  0.00    +0.151 HD
ATOM     31  C   UNL     1       3.489   3.168  22.379  0.00  0.00    +0.301 C 
ATOM     32  N   UNL     1       3.138   3.121  21.051  0.00  0.00    -0.295 N 
ATOM     33  H   UNL     1       3.891   3.278  20.397  0.00  0.00    +0.151 HD
ATOM     34  O   UNL     1       2.707   3.403  23.289  0.00  0.00    -0.253 OA
BRANCH  32  35
ATOM     35  C   UNL     1       1.767   3.406  20.568  0.00  0.00    +0.028 C 
ATOM     36  C   UNL     1       1.207   4.678  21.232  0.00  0.00    +0.031 C 
ATOM     37  C   UNL     1       0.838   2.235  20.950  0.00  0.00    +0.031 C 
ATOM     38  C   UNL     1       1.722   3.551  19.036  0.00  0.00    +0.031 C 
ENDBRANCH  32  35
ENDBRANCH  28  29
BRANCH  28  39
ATOM     39  C   UNL     1       6.378   4.400  23.921  0.00  0.00    -0.011 C 
ATOM     40  C   UNL     1       7.210   4.450  22.623  0.00  0.00    +0.013 C 
ATOM     41  C   UNL     1       7.386   4.317  25.098  0.00  0.00    +0.013 C 
ATOM     42  C   UNL     1       5.622   5.735  24.074  0.00  0.00    +0.013 C 
ENDBRANCH  28  39
ENDBRANCH   7  28
TORSDOF 10
ENDMDL
MODEL 5
REMARK VINA RESULT:      -6.5      2.978      6.018
REMARK  Name = 
REMARK  18 active torsions:
REMARK  status: ('A' for Active; 'I' for Inactive)
REMARK    1  A    between atoms: C_1  and  C_2
REMARK    2  A    between atoms: C_2  and  C_41
REMARK    3  A    between atoms: C_7  and  C_27
REMARK    4  A    between atoms: C_11  and  C_13
REMARK    5  A    between atoms: C_13  and  C_15
REMARK    6  A    between atoms: C_13  and  N_19
REMARK    7  A    between atoms: C_15  and  C_16
REMARK    8  A    between atoms: C_15  and  C_17
REMARK    9  A    between atoms: C_15  and  C_18
REMARK   10  A    between atoms: N_22  and  C_23
REMARK   11  A    between atoms: C_23  and  C_24
REMARK   12  A    between atoms: C_23  and  C_25
REMARK   13  A    between atoms: C_23  and  C_26
REMARK   14  A    between atoms: N_29  and  C_30
REMARK   15  A    between atoms: C_30  and  C_31
REMARK   16  A    between atoms: C_30  and  C_36
REMARK   17  A    between atoms: C_31  and  C_32
REMARK   18  A    between atoms: C_36  and  C_38
REMARK                            x       y       z     vdW  Elec       q    Type
REMARK                         _______ _______ _______ _____ _____    ______ ____
ROOT
ATOM      1  C   UNL     1       6.231  -5.375  20.385  0.00  0.00    +0.011 C 
ATOM      2  C   UNL     1       6.338  -5.610  21.880  0.00  0.00    -0.025 C 
ATOM      3  C   UNL     1       6.446  -7.065  22.236  0.00  0.00    +0.011 C 
ATOM      4  C   UNL     1       7.108  -4.561  22.668  0.00  0.00    +0.030 C 
ATOM      5  C   UNL     1       7.641  -4.608  24.101  0.00  0.00    +0.166 C 
ATOM      6  N   UNL     1       6.432  -4.270  24.891  0.00  0.00    -0.288 N 
ATOM      7  C   UNL     1       6.484  -4.002  26.257  0.00  0.00    +0.237 C 
ATOM      8  O   UNL     1       7.581  -3.888  26.806  0.00  0.00    -0.274 OA
ATOM      9  C   UNL     1       5.242  -4.741  24.196  0.00  0.00    +0.113 C 
ATOM     10  C   UNL     1       5.602  -4.605  22.752  0.00  0.00    +0.018 C 
ENDROOT
BRANCH   5  11
ATOM     11  C   UNL     1       8.896  -3.683  24.171  0.00  0.00    +0.234 C 
ATOM     12  N   UNL     1       8.732  -2.408  23.682  0.00  0.00    -0.304 N 
ATOM     13  H   UNL     1       7.783  -2.049  23.701  0.00  0.00    +0.149 HD
ATOM     14  O   UNL     1      10.005  -4.123  24.485  0.00  0.00    -0.274 OA
BRANCH  12  15
ATOM     15  C   UNL     1       9.815  -1.429  23.689  0.00  0.00    +0.149 C 
BRANCH  15  16
ATOM     16  C   UNL     1       9.700  -0.575  24.948  0.00  0.00    +0.237 C 
ATOM     17  O   UNL     1      10.568   0.210  25.338  0.00  0.00    -0.285 OA
BRANCH  16  18
ATOM     18  C   UNL     1       8.428  -0.766  25.775  0.00  0.00    +0.279 C 
ATOM     19  N   UNL     1       8.639  -1.125  27.076  0.00  0.00    -0.323 N 
ATOM     20  H   UNL     1       7.849  -1.230  27.695  0.00  0.00    +0.145 HD
ATOM     21  H   UNL     1       9.586  -1.211  27.438  0.00  0.00    +0.145 HD
ATOM     22  O   UNL     1       7.316  -0.609  25.293  0.00  0.00    -0.267 OA
ENDBRANCH  16  18
ENDBRANCH  15  16
BRANCH  15  23
ATOM     23  C   UNL     1       9.835  -0.556  22.423  0.00  0.00    +0.034 C 
BRANCH  23  24
ATOM     24  C   UNL     1       9.178   0.815  22.624  0.00  0.00    -0.009 C 
ATOM     25  C   UNL     1       7.674   0.900  22.276  0.00  0.00    +0.003 C 
ATOM     26  C   UNL     1       7.942   2.184  21.485  0.00  0.00    +0.001 C 
ATOM     27  C   UNL     1       9.441   1.850  21.503  0.00  0.00    +0.003 C 
ENDBRANCH  23  24
ENDBRANCH  15  23
ENDBRANCH  12  15
ENDBRANCH   5  11
BRANCH   7  28
ATOM     28  C   UNL     1       5.148  -3.675  27.020  0.00  0.00    +0.166 C 
BRANCH  28  29
ATOM     29  N   UNL     1       5.312  -2.420  27.786  0.00  0.00    -0.288 N 
ATOM     30  H   UNL     1       5.886  -2.428  28.616  0.00  0.00    +0.151 HD
ATOM     31  C   UNL     1       4.725  -1.248  27.376  0.00  0.00    +0.301 C 
ATOM     32  N   UNL     1       4.825  -0.238  28.302  0.00  0.00    -0.295 N 
ATOM     33  H   UNL     1       4.976  -0.536  29.255  0.00  0.00    +0.151 HD
ATOM     34  O   UNL     1       4.161  -1.137  26.296  0.00  0.00    -0.253 OA
BRANCH  32  35
ATOM     35  C   UNL     1       4.210   1.096  28.112  0.00  0.00    +0.028 C 
ATOM     36  C   UNL     1       2.688   0.971  27.909  0.00  0.00    +0.031 C 
ATOM     37  C   UNL     1       4.795   1.752  26.845  0.00  0.00    +0.031 C 
ATOM     38  C   UNL     1       4.505   2.033  29.298  0.00  0.00    +0.031 C 
ENDBRANCH  32  35
ENDBRANCH  28  29
BRANCH  28  39
ATOM     39  C   UNL     1       4.585  -4.819  27.954  0.00  0.00    -0.011 C 
ATOM     40  C   UNL     1       3.047  -4.880  27.869  0.00  0.00    +0.013 C 
ATOM     41  C   UNL     1       4.943  -4.517  29.434  0.00  0.00    +0.013 C 
ATOM     42  C   UNL     1       5.153  -6.218  27.635  0.00  0.00    +0.013 C 
ENDBRANCH  28  39
ENDBRANCH   7  28
TORSDOF 10
ENDMDL
MODEL 6
REMARK VINA RESULT:      -6.5      2.640      6.472
REMARK  Name = 
REMARK  18 active torsions:
REMARK  status: ('A' for Active; 'I' for Inactive)
REMARK    1  A    between atoms: C_1  and  C_2
REMARK    2  A    between atoms: C_2  and  C_41
REMARK    3  A    between atoms: C_7  and  C_27
REMARK    4  A    between atoms: C_11  and  C_13
REMARK    5  A    between atoms: C_13  and  C_15
REMARK    6  A    between atoms: C_13  and  N_19
REMARK    7  A    between atoms: C_15  and  C_16
REMARK    8  A    between atoms: C_15  and  C_17
REMARK    9  A    between atoms: C_15  and  C_18
REMARK   10  A    between atoms: N_22  and  C_23
REMARK   11  A    between atoms: C_23  and  C_24
REMARK   12  A    between atoms: C_23  and  C_25
REMARK   13  A    between atoms: C_23  and  C_26
REMARK   14  A    between atoms: N_29  and  C_30
REMARK   15  A    between atoms: C_30  and  C_31
REMARK   16  A    between atoms: C_30  and  C_36
REMARK   17  A    between atoms: C_31  and  C_32
REMARK   18  A    between atoms: C_36  and  C_38
REMARK                            x       y       z     vdW  Elec       q    Type
REMARK                         _______ _______ _______ _____ _____    ______ ____
ROOT
ATOM      1  C   UNL     1       4.773   6.341  22.615  0.00  0.00    +0.011 C 
ATOM      2  C   UNL     1       6.050   5.525  22.696  0.00  0.00    -0.025 C 
ATOM      3  C   UNL     1       7.201   6.171  21.979  0.00  0.00    +0.011 C 
ATOM      4  C   UNL     1       6.274   4.762  23.992  0.00  0.00    +0.030 C 
ATOM      5  C   UNL     1       7.538   4.083  24.524  0.00  0.00    +0.166 C 
ATOM      6  N   UNL     1       7.517   2.788  23.801  0.00  0.00    -0.288 N 
ATOM      7  C   UNL     1       8.386   1.744  24.115  0.00  0.00    +0.237 C 
ATOM      8  O   UNL     1       9.091   1.832  25.121  0.00  0.00    -0.274 OA
ATOM      9  C   UNL     1       6.883   2.958  22.501  0.00  0.00    +0.113 C 
ATOM     10  C   UNL     1       5.858   4.018  22.748  0.00  0.00    +0.018 C 
ENDROOT
BRANCH   5  11
ATOM     11  C   UNL     1       7.467   4.102  26.083  0.00  0.00    +0.234 C 
ATOM     12  N   UNL     1       6.681   3.131  26.661  0.00  0.00    -0.304 N 
ATOM     13  H   UNL     1       6.554   2.285  26.115  0.00  0.00    +0.149 HD
ATOM     14  O   UNL     1       7.946   5.029  26.738  0.00  0.00    -0.274 OA
BRANCH  12  15
ATOM     15  C   UNL     1       6.526   3.020  28.108  0.00  0.00    +0.149 C 
BRANCH  15  16
ATOM     16  C   UNL     1       6.912   1.609  28.540  0.00  0.00    +0.237 C 
ATOM     17  O   UNL     1       7.106   1.267  29.709  0.00  0.00    -0.285 OA
BRANCH  16  18
ATOM     18  C   UNL     1       7.102   0.592  27.413  0.00  0.00    +0.279 C 
ATOM     19  N   UNL     1       8.326  -0.017  27.391  0.00  0.00    -0.323 N 
ATOM     20  H   UNL     1       8.512  -0.730  26.702  0.00  0.00    +0.145 HD
ATOM     21  H   UNL     1       9.016   0.191  28.110  0.00  0.00    +0.145 HD
ATOM     22  O   UNL     1       6.219   0.355  26.603  0.00  0.00    -0.267 OA
ENDBRANCH  16  18
ENDBRANCH  15  16
BRANCH  15  23
ATOM     23  C   UNL     1       5.108   3.380  28.583  0.00  0.00    +0.034 C 
BRANCH  23  24
ATOM     24  C   UNL     1       5.049   4.697  29.366  0.00  0.00    -0.009 C 
ATOM     25  C   UNL     1       5.016   5.987  28.515  0.00  0.00    +0.003 C 
ATOM     26  C   UNL     1       6.109   6.587  29.405  0.00  0.00    +0.001 C 
ATOM     27  C   UNL     1       6.398   5.182  29.953  0.00  0.00    +0.003 C 
ENDBRANCH  23  24
ENDBRANCH  15  23
ENDBRANCH  12  15
ENDBRANCH   5  11
BRANCH   7  28
ATOM     28  C   UNL     1       8.309   0.413  23.280  0.00  0.00    +0.166 C 
BRANCH  28  29
ATOM     29  N   UNL     1       8.039  -0.724  24.187  0.00  0.00    -0.288 N 
ATOM     30  H   UNL     1       8.514  -0.760  25.076  0.00  0.00    +0.151 HD
ATOM     31  C   UNL     1       7.138  -1.706  23.856  0.00  0.00    +0.301 C 
ATOM     32  N   UNL     1       7.155  -2.772  24.722  0.00  0.00    -0.295 N 
ATOM     33  H   UNL     1       8.008  -2.889  25.251  0.00  0.00    +0.151 HD
ATOM     34  O   UNL     1       6.410  -1.628  22.876  0.00  0.00    -0.253 OA
BRANCH  32  35
ATOM     35  C   UNL     1       6.320  -3.981  24.532  0.00  0.00    +0.028 C 
ATOM     36  C   UNL     1       4.831  -3.603  24.419  0.00  0.00    +0.031 C 
ATOM     37  C   UNL     1       6.474  -4.906  25.757  0.00  0.00    +0.031 C 
ATOM     38  C   UNL     1       6.753  -4.782  23.290  0.00  0.00    +0.031 C 
ENDBRANCH  32  35
ENDBRANCH  28  29
BRANCH  28  39
ATOM     39  C   UNL     1       9.558   0.099  22.363  0.00  0.00    -0.011 C 
ATOM     40  C   UNL     1      10.645  -0.643  23.165  0.00  0.00    +0.013 C 
ATOM     41  C   UNL     1      10.192   1.423  21.862  0.00  0.00    +0.013 C 
ATOM     42  C   UNL     1       9.215  -0.734  21.110  0.00  0.00    +0.013 C 
ENDBRANCH  28  39
ENDBRANCH   7  28
TORSDOF 10
ENDMDL
MODEL 7
REMARK VINA RESULT:      -6.4      2.479      8.268
REMARK  Name = 
REMARK  18 active torsions:
REMARK  status: ('A' for Active; 'I' for Inactive)
REMARK    1  A    between atoms: C_1  and  C_2
REMARK    2  A    between atoms: C_2  and  C_41
REMARK    3  A    between atoms: C_7  and  C_27
REMARK    4  A    between atoms: C_11  and  C_13
REMARK    5  A    between atoms: C_13  and  C_15
REMARK    6  A    between atoms: C_13  and  N_19
REMARK    7  A    between atoms: C_15  and  C_16
REMARK    8  A    between atoms: C_15  and  C_17
REMARK    9  A    between atoms: C_15  and  C_18
REMARK   10  A    between atoms: N_22  and  C_23
REMARK   11  A    between atoms: C_23  and  C_24
REMARK   12  A    between atoms: C_23  and  C_25
REMARK   13  A    between atoms: C_23  and  C_26
REMARK   14  A    between atoms: N_29  and  C_30
REMARK   15  A    between atoms: C_30  and  C_31
REMARK   16  A    between atoms: C_30  and  C_36
REMARK   17  A    between atoms: C_31  and  C_32
REMARK   18  A    between atoms: C_36  and  C_38
REMARK                            x       y       z     vdW  Elec       q    Type
REMARK                         _______ _______ _______ _____ _____    ______ ____
ROOT
ATOM      1  C   UNL     1       2.810   0.367  27.419  0.00  0.00    +0.011 C 
ATOM      2  C   UNL     1       4.326   0.420  27.352  0.00  0.00    -0.025 C 
ATOM      3  C   UNL     1       4.940   1.072  28.557  0.00  0.00    +0.011 C 
ATOM      4  C   UNL     1       5.006  -0.762  26.680  0.00  0.00    +0.030 C 
ATOM      5  C   UNL     1       6.480  -1.174  26.678  0.00  0.00    +0.166 C 
ATOM      6  N   UNL     1       7.044  -0.291  25.628  0.00  0.00    -0.288 N 
ATOM      7  C   UNL     1       8.339  -0.449  25.138  0.00  0.00    +0.237 C 
ATOM      8  O   UNL     1       8.989  -1.442  25.466  0.00  0.00    -0.274 OA
ATOM      9  C   UNL     1       6.303   0.962  25.587  0.00  0.00    +0.113 C 
ATOM     10  C   UNL     1       4.912   0.558  25.957  0.00  0.00    +0.018 C 
ENDROOT
BRANCH   5  11
ATOM     11  C   UNL     1       6.539  -2.723  26.502  0.00  0.00    +0.234 C 
ATOM     12  N   UNL     1       6.463  -3.185  25.208  0.00  0.00    -0.304 N 
ATOM     13  H   UNL     1       6.775  -2.538  24.491  0.00  0.00    +0.149 HD
ATOM     14  O   UNL     1       6.485  -3.485  27.470  0.00  0.00    -0.274 OA
BRANCH  12  15
ATOM     15  C   UNL     1       6.515  -4.609  24.888  0.00  0.00    +0.149 C 
BRANCH  15  16
ATOM     16  C   UNL     1       7.886  -4.935  24.304  0.00  0.00    +0.237 C 
ATOM     17  O   UNL     1       8.125  -5.025  23.097  0.00  0.00    -0.285 OA
BRANCH  16  18
ATOM     18  C   UNL     1       9.001  -5.201  25.317  0.00  0.00    +0.279 C 
ATOM     19  N   UNL     1       8.582  -5.741  26.500  0.00  0.00    -0.323 N 
ATOM     20  H   UNL     1       9.265  -5.983  27.203  0.00  0.00    +0.145 HD
ATOM     21  H   UNL     1       7.601  -5.969  26.643  0.00  0.00    +0.145 HD
ATOM     22  O   UNL     1      10.169  -4.943  25.071  0.00  0.00    -0.267 OA
ENDBRANCH  16  18
ENDBRANCH  15  16
BRANCH  15  23
ATOM     23  C   UNL     1       5.386  -5.046  23.939  0.00  0.00    +0.034 C 
BRANCH  23  24
ATOM     24  C   UNL     1       4.282  -5.843  24.642  0.00  0.00    -0.009 C 
ATOM     25  C   UNL     1       3.409  -5.051  25.643  0.00  0.00    +0.003 C 
ATOM     26  C   UNL     1       3.585  -6.175  26.668  0.00  0.00    +0.001 C 
ATOM     27  C   UNL     1       4.749  -6.723  25.829  0.00  0.00    +0.003 C 
ENDBRANCH  23  24
ENDBRANCH  15  23
ENDBRANCH  12  15
ENDBRANCH   5  11
BRANCH   7  28
ATOM     28  C   UNL     1       8.863   0.549  24.041  0.00  0.00    +0.166 C 
BRANCH  28  29
ATOM     29  N   UNL     1       8.555   1.937  24.448  0.00  0.00    -0.288 N 
ATOM     30  H   UNL     1       7.693   2.121  24.938  0.00  0.00    +0.151 HD
ATOM     31  C   UNL     1       9.429   2.968  24.198  0.00  0.00    +0.301 C 
ATOM     32  N   UNL     1       8.900   4.206  24.471  0.00  0.00    -0.295 N 
ATOM     33  H   UNL     1       7.891   4.256  24.473  0.00  0.00    +0.151 HD
ATOM     34  O   UNL     1      10.557   2.783  23.762  0.00  0.00    -0.253 OA
BRANCH  32  35
ATOM     35  C   UNL     1       9.629   5.470  24.217  0.00  0.00    +0.028 C 
ATOM     36  C   UNL     1      11.066   5.185  23.743  0.00  0.00    +0.031 C 
ATOM     37  C   UNL     1       9.725   6.276  25.529  0.00  0.00    +0.031 C 
ATOM     38  C   UNL     1       8.901   6.350  23.185  0.00  0.00    +0.031 C 
ENDBRANCH  32  35
ENDBRANCH  28  29
BRANCH  28  39
ATOM     39  C   UNL     1       8.358   0.285  22.566  0.00  0.00    -0.011 C 
ATOM     40  C   UNL     1       9.521   0.418  21.563  0.00  0.00    +0.013 C 
ATOM     41  C   UNL     1       7.300   1.349  22.171  0.00  0.00    +0.013 C 
ATOM     42  C   UNL     1       7.696  -1.095  22.374  0.00  0.00    +0.013 C 
ENDBRANCH  28  39
ENDBRANCH   7  28
TORSDOF 10
ENDMDL
MODEL 8
REMARK VINA RESULT:      -6.3      2.231      8.001
REMARK  Name = 
REMARK  18 active torsions:
REMARK  status: ('A' for Active; 'I' for Inactive)
REMARK    1  A    between atoms: C_1  and  C_2
REMARK    2  A    between atoms: C_2  and  C_41
REMARK    3  A    between atoms: C_7  and  C_27
REMARK    4  A    between atoms: C_11  and  C_13
REMARK    5  A    between atoms: C_13  and  C_15
REMARK    6  A    between atoms: C_13  and  N_19
REMARK    7  A    between atoms: C_15  and  C_16
REMARK    8  A    between atoms: C_15  and  C_17
REMARK    9  A    between atoms: C_15  and  C_18
REMARK   10  A    between atoms: N_22  and  C_23
REMARK   11  A    between atoms: C_23  and  C_24
REMARK   12  A    between atoms: C_23  and  C_25
REMARK   13  A    between atoms: C_23  and  C_26
REMARK   14  A    between atoms: N_29  and  C_30
REMARK   15  A    between atoms: C_30  and  C_31
REMARK   16  A    between atoms: C_30  and  C_36
REMARK   17  A    between atoms: C_31  and  C_32
REMARK   18  A    between atoms: C_36  and  C_38
REMARK                            x       y       z     vdW  Elec       q    Type
REMARK                         _______ _______ _______ _____ _____    ______ ____
ROOT
ATOM      1  C   UNL     1       7.568  -5.657  27.594  0.00  0.00    +0.011 C 
ATOM      2  C   UNL     1       7.802  -4.989  26.251  0.00  0.00    -0.025 C 
ATOM      3  C   UNL     1       8.900  -5.640  25.460  0.00  0.00    +0.011 C 
ATOM      4  C   UNL     1       6.567  -4.439  25.554  0.00  0.00    +0.030 C 
ATOM      5  C   UNL     1       6.384  -3.967  24.111  0.00  0.00    +0.166 C 
ATOM      6  N   UNL     1       6.929  -2.589  24.166  0.00  0.00    -0.288 N 
ATOM      7  C   UNL     1       6.794  -1.690  23.111  0.00  0.00    +0.237 C 
ATOM      8  O   UNL     1       6.068  -1.984  22.160  0.00  0.00    -0.274 OA
ATOM      9  C   UNL     1       7.981  -2.515  25.172  0.00  0.00    +0.113 C 
ATOM     10  C   UNL     1       7.539  -3.492  26.213  0.00  0.00    +0.018 C 
ENDROOT
BRANCH   5  11
ATOM     11  C   UNL     1       4.890  -4.195  23.722  0.00  0.00    +0.234 C 
ATOM     12  N   UNL     1       4.001  -4.271  24.770  0.00  0.00    -0.304 N 
ATOM     13  H   UNL     1       4.281  -3.793  25.620  0.00  0.00    +0.149 HD
ATOM     14  O   UNL     1       4.558  -4.459  22.565  0.00  0.00    -0.274 OA
BRANCH  12  15
ATOM     15  C   UNL     1       2.571  -4.473  24.560  0.00  0.00    +0.149 C 
BRANCH  15  16
ATOM     16  C   UNL     1       1.806  -3.345  25.247  0.00  0.00    +0.237 C 
ATOM     17  O   UNL     1       0.698  -2.938  24.891  0.00  0.00    -0.285 OA
BRANCH  16  18
ATOM     18  C   UNL     1       2.516  -2.675  26.424  0.00  0.00    +0.279 C 
ATOM     19  N   UNL     1       2.210  -3.196  27.650  0.00  0.00    -0.323 N 
ATOM     20  H   UNL     1       2.670  -2.833  28.471  0.00  0.00    +0.145 HD
ATOM     21  H   UNL     1       1.584  -3.994  27.727  0.00  0.00    +0.145 HD
ATOM     22  O   UNL     1       3.290  -1.744  26.264  0.00  0.00    -0.267 OA
ENDBRANCH  16  18
ENDBRANCH  15  16
BRANCH  15  23
ATOM     23  C   UNL     1       2.087  -5.850  25.044  0.00  0.00    +0.034 C 
BRANCH  23  24
ATOM     24  C   UNL     1       1.082  -6.506  24.091  0.00  0.00    -0.009 C 
ATOM     25  C   UNL     1       1.455  -7.919  23.584  0.00  0.00    +0.003 C 
ATOM     26  C   UNL     1       1.108  -7.483  22.157  0.00  0.00    +0.001 C 
ATOM     27  C   UNL     1       1.143  -6.020  22.622  0.00  0.00    +0.003 C 
ENDBRANCH  23  24
ENDBRANCH  15  23
ENDBRANCH  12  15
ENDBRANCH   5  11
BRANCH   7  28
ATOM     28  C   UNL     1       7.424  -0.255  23.248  0.00  0.00    +0.166 C 
BRANCH  28  29
ATOM     29  N   UNL     1       6.461   0.756  22.760  0.00  0.00    -0.288 N 
ATOM     30  H   UNL     1       6.197   0.746  21.786  0.00  0.00    +0.151 HD
ATOM     31  C   UNL     1       5.902   1.681  23.607  0.00  0.00    +0.301 C 
ATOM     32  N   UNL     1       5.184   2.652  22.953  0.00  0.00    -0.295 N 
ATOM     33  H   UNL     1       5.426   2.791  21.982  0.00  0.00    +0.151 HD
ATOM     34  O   UNL     1       6.051   1.636  24.821  0.00  0.00    -0.253 OA
BRANCH  32  35
ATOM     35  C   UNL     1       4.546   3.794  23.650  0.00  0.00    +0.028 C 
ATOM     36  C   UNL     1       3.464   3.300  24.628  0.00  0.00    +0.031 C 
ATOM     37  C   UNL     1       3.856   4.704  22.613  0.00  0.00    +0.031 C 
ATOM     38  C   UNL     1       5.581   4.651  24.402  0.00  0.00    +0.031 C 
ENDBRANCH  32  35
ENDBRANCH  28  29
BRANCH  28  39
ATOM     39  C   UNL     1       8.832  -0.048  22.559  0.00  0.00    -0.011 C 
ATOM     40  C   UNL     1       8.747   1.039  21.470  0.00  0.00    +0.013 C 
ATOM     41  C   UNL     1       9.273  -1.358  21.854  0.00  0.00    +0.013 C 
ATOM     42  C   UNL     1       9.957   0.327  23.545  0.00  0.00    +0.013 C 
ENDBRANCH  28  39
ENDBRANCH   7  28
TORSDOF 10
ENDMDL
MODEL 9
REMARK VINA RESULT:      -6.3      3.225      7.865
REMARK  Name = 
REMARK  18 active torsions:
REMARK  status: ('A' for Active; 'I' for Inactive)
REMARK    1  A    between atoms: C_1  and  C_2
REMARK    2  A    between atoms: C_2  and  C_41
REMARK    3  A    between atoms: C_7  and  C_27
REMARK    4  A    between atoms: C_11  and  C_13
REMARK    5  A    between atoms: C_13  and  C_15
REMARK    6  A    between atoms: C_13  and  N_19
REMARK    7  A    between atoms: C_15  and  C_16
REMARK    8  A    between atoms: C_15  and  C_17
REMARK    9  A    between atoms: C_15  and  C_18
REMARK   10  A    between atoms: N_22  and  C_23
REMARK   11  A    between atoms: C_23  and  C_24
REMARK   12  A    between atoms: C_23  and  C_25
REMARK   13  A    between atoms: C_23  and  C_26
REMARK   14  A    between atoms: N_29  and  C_30
REMARK   15  A    between atoms: C_30  and  C_31
REMARK   16  A    between atoms: C_30  and  C_36
REMARK   17  A    between atoms: C_31  and  C_32
REMARK   18  A    between atoms: C_36  and  C_38
REMARK                            x       y       z     vdW  Elec       q    Type
REMARK                         _______ _______ _______ _____ _____    ______ ____
ROOT
ATOM      1  C   UNL     1      11.035   2.471  23.543  0.00  0.00    +0.011 C 
ATOM      2  C   UNL     1       9.558   2.183  23.347  0.00  0.00    -0.025 C 
ATOM      3  C   UNL     1       9.148   2.204  21.902  0.00  0.00    +0.011 C 
ATOM      4  C   UNL     1       8.937   1.186  24.313  0.00  0.00    +0.030 C 
ATOM      5  C   UNL     1       7.591   0.464  24.245  0.00  0.00    +0.166 C 
ATOM      6  N   UNL     1       6.661   1.498  24.762  0.00  0.00    -0.288 N 
ATOM      7  C   UNL     1       5.330   1.220  25.066  0.00  0.00    +0.237 C 
ATOM      8  O   UNL     1       4.943   0.050  25.056  0.00  0.00    -0.274 OA
ATOM      9  C   UNL     1       7.161   2.823  24.424  0.00  0.00    +0.113 C 
ATOM     10  C   UNL     1       8.646   2.658  24.465  0.00  0.00    +0.018 C 
ENDROOT
BRANCH   5  11
ATOM     11  C   UNL     1       7.740  -0.892  25.003  0.00  0.00    +0.234 C 
ATOM     12  N   UNL     1       7.371  -2.017  24.302  0.00  0.00    -0.304 N 
ATOM     13  H   UNL     1       7.427  -1.944  23.292  0.00  0.00    +0.149 HD
ATOM     14  O   UNL     1       8.009  -0.932  26.206  0.00  0.00    -0.274 OA
BRANCH  12  15
ATOM     15  C   UNL     1       7.464  -3.355  24.879  0.00  0.00    +0.149 C 
BRANCH  15  16
ATOM     16  C   UNL     1       8.928  -3.783  24.900  0.00  0.00    +0.237 C 
ATOM     17  O   UNL     1       9.784  -3.376  24.110  0.00  0.00    -0.285 OA
BRANCH  16  18
ATOM     18  C   UNL     1       9.310  -4.818  25.959  0.00  0.00    +0.279 C 
ATOM     19  N   UNL     1      10.343  -5.641  25.610  0.00  0.00    -0.323 N 
ATOM     20  H   UNL     1      10.679  -6.324  26.274  0.00  0.00    +0.145 HD
ATOM     21  H   UNL     1      10.820  -5.518  24.720  0.00  0.00    +0.145 HD
ATOM     22  O   UNL     1       8.723  -4.892  27.029  0.00  0.00    -0.267 OA
ENDBRANCH  16  18
ENDBRANCH  15  16
BRANCH  15  23
ATOM     23  C   UNL     1       6.593  -4.384  24.138  0.00  0.00    +0.034 C 
BRANCH  23  24
ATOM     24  C   UNL     1       7.066  -4.653  22.705  0.00  0.00    -0.009 C 
ATOM     25  C   UNL     1       6.068  -4.280  21.584  0.00  0.00    +0.003 C 
ATOM     26  C   UNL     1       6.315  -5.642  20.928  0.00  0.00    +0.001 C 
ATOM     27  C   UNL     1       6.960  -6.125  22.235  0.00  0.00    +0.003 C 
ENDBRANCH  23  24
ENDBRANCH  15  23
ENDBRANCH  12  15
ENDBRANCH   5  11
BRANCH   7  28
ATOM     28  C   UNL     1       4.409   2.384  25.587  0.00  0.00    +0.166 C 
BRANCH  28  29
ATOM     29  N   UNL     1       4.377   3.474  24.587  0.00  0.00    -0.288 N 
ATOM     30  H   UNL     1       5.144   4.129  24.557  0.00  0.00    +0.151 HD
ATOM     31  C   UNL     1       3.346   3.590  23.687  0.00  0.00    +0.301 C 
ATOM     32  N   UNL     1       3.385   4.759  22.967  0.00  0.00    -0.295 N 
ATOM     33  H   UNL     1       3.903   5.515  23.392  0.00  0.00    +0.151 HD
ATOM     34  O   UNL     1       2.481   2.734  23.564  0.00  0.00    -0.253 OA
BRANCH  32  35
ATOM     35  C   UNL     1       2.341   5.138  21.985  0.00  0.00    +0.028 C 
ATOM     36  C   UNL     1       2.317   4.149  20.805  0.00  0.00    +0.031 C 
ATOM     37  C   UNL     1       2.661   6.535  21.415  0.00  0.00    +0.031 C 
ATOM     38  C   UNL     1       0.947   5.211  22.636  0.00  0.00    +0.031 C 
ENDBRANCH  32  35
ENDBRANCH  28  29
BRANCH  28  39
ATOM     39  C   UNL     1       4.764   2.961  27.016  0.00  0.00    -0.011 C 
ATOM     40  C   UNL     1       3.496   3.071  27.885  0.00  0.00    +0.013 C 
ATOM     41  C   UNL     1       5.342   4.394  26.878  0.00  0.00    +0.013 C 
ATOM     42  C   UNL     1       5.815   2.128  27.779  0.00  0.00    +0.013 C 
ENDBRANCH  28  39
ENDBRANCH   7  28
TORSDOF 10
ENDMDL
