MODEL 1
REMARK VINA RESULT:      -4.4      0.000      0.000
REMARK  Name = 
REMARK  5 active torsions:
REMARK  status: ('A' for Active; 'I' for Inactive)
REMARK    1  A    between atoms: C_1  and  C_2
REMARK    2  A    between atoms: C_5  and  C_8
REMARK    3  A    between atoms: C_6  and  C_7
REMARK    4  A    between atoms: C_8  and  C_9
REMARK    5  A    between atoms: C_8  and  C_10
REMARK                            x       y       z     vdW  Elec       q    Type
REMARK                         _______ _______ _______ _____ _____    ______ ____
ROOT
ATOM      1  C   UNL     1       9.796  -1.901  22.761  0.00  0.00    +0.008 C 
ATOM      2  C   UNL     1      10.120  -0.413  22.655  0.00  0.00    -0.011 C 
ATOM      3  C   UNL     1       9.656   0.409  23.880  0.00  0.00    -0.008 C 
ATOM      4  C   UNL     1      10.731   0.373  24.960  0.00  0.00    +0.008 C 
ATOM      5  C   UNL     1       9.209   1.797  23.311  0.00  0.00    -0.005 C 
ATOM      6  C   UNL     1       9.549   1.717  21.808  0.00  0.00    +0.004 C 
ATOM      7  C   UNL     1       9.441   0.244  21.466  0.00  0.00    +0.004 C 
ENDROOT
BRANCH   5   8
ATOM      8  C   UNL     1       9.724   3.109  23.959  0.00  0.00    -0.014 C 
ATOM      9  C   UNL     1       8.757   4.288  23.813  0.00  0.00    +0.007 C 
ATOM     10  C   UNL     1      11.060   3.550  23.333  0.00  0.00    +0.007 C 
ENDBRANCH   5   8
TORSDOF 1
ENDMDL
MODEL 2
REMARK VINA RESULT:      -4.3      1.086      2.328
REMARK  Name = 
REMARK  5 active torsions:
REMARK  status: ('A' for Active; 'I' for Inactive)
REMARK    1  A    between atoms: C_1  and  C_2
REMARK    2  A    between atoms: C_5  and  C_8
REMARK    3  A    between atoms: C_6  and  C_7
REMARK    4  A    between atoms: C_8  and  C_9
REMARK    5  A    between atoms: C_8  and  C_10
REMARK                            x       y       z     vdW  Elec       q    Type
REMARK                         _______ _______ _______ _____ _____    ______ ____
ROOT
ATOM      1  C   UNL     1       9.822  -1.152  21.829  0.00  0.00    +0.008 C 
ATOM      2  C   UNL     1       9.537  -0.006  22.797  0.00  0.00    -0.011 C 
ATOM      3  C   UNL     1       9.614   1.391  22.140  0.00  0.00    -0.008 C 
ATOM      4  C   UNL     1       8.267   1.740  21.515  0.00  0.00    +0.008 C 
ATOM      5  C   UNL     1      10.202   2.341  23.236  0.00  0.00    -0.005 C 
ATOM      6  C   UNL     1      10.323   1.445  24.487  0.00  0.00    +0.004 C 
ATOM      7  C   UNL     1      10.534   0.047  23.942  0.00  0.00    +0.004 C 
ENDROOT
BRANCH   5   8
ATOM      8  C   UNL     1       9.512   3.695  23.549  0.00  0.00    -0.014 C 
ATOM      9  C   UNL     1      10.494   4.847  23.778  0.00  0.00    +0.007 C 
ATOM     10  C   UNL     1       8.642   3.594  24.816  0.00  0.00    +0.007 C 
ENDBRANCH   5   8
TORSDOF 1
ENDMDL
MODEL 3
REMARK VINA RESULT:      -4.3      1.143      2.471
REMARK  Name = 
REMARK  5 active torsions:
REMARK  status: ('A' for Active; 'I' for Inactive)
REMARK    1  A    between atoms: C_1  and  C_2
REMARK    2  A    between atoms: C_5  and  C_8
REMARK    3  A    between atoms: C_6  and  C_7
REMARK    4  A    between atoms: C_8  and  C_9
REMARK    5  A    between atoms: C_8  and  C_10
REMARK                            x       y       z     vdW  Elec       q    Type
REMARK                         _______ _______ _______ _____ _____    ______ ____
ROOT
ATOM      1  C   UNL     1       9.710  -2.621  23.950  0.00  0.00    +0.008 C 
ATOM      2  C   UNL     1       9.358  -1.135  23.930  0.00  0.00    -0.011 C 
ATOM      3  C   UNL     1      10.271  -0.296  23.007  0.00  0.00    -0.008 C 
ATOM      4  C   UNL     1       9.727  -0.323  21.583  0.00  0.00    +0.008 C 
ATOM      5  C   UNL     1      10.438   1.086  23.722  0.00  0.00    -0.005 C 
ATOM      6  C   UNL     1       9.518   0.986  24.958  0.00  0.00    +0.004 C 
ATOM      7  C   UNL     1       9.491  -0.490  25.299  0.00  0.00    +0.004 C 
ENDROOT
BRANCH   5   8
ATOM      8  C   UNL     1      10.218   2.405  22.934  0.00  0.00    -0.014 C 
ATOM      9  C   UNL     1      11.166   3.534  23.349  0.00  0.00    +0.007 C 
ATOM     10  C   UNL     1       8.784   2.935  23.127  0.00  0.00    +0.007 C 
ENDBRANCH   5   8
TORSDOF 1
ENDMDL
MODEL 4
REMARK VINA RESULT:      -4.2      1.126      4.065
REMARK  Name = 
REMARK  5 active torsions:
REMARK  status: ('A' for Active; 'I' for Inactive)
REMARK    1  A    between atoms: C_1  and  C_2
REMARK    2  A    between atoms: C_5  and  C_8
REMARK    3  A    between atoms: C_6  and  C_7
REMARK    4  A    between atoms: C_8  and  C_9
REMARK    5  A    between atoms: C_8  and  C_10
REMARK                            x       y       z     vdW  Elec       q    Type
REMARK                         _______ _______ _______ _____ _____    ______ ____
ROOT
ATOM      1  C   UNL     1       9.919   3.606  23.764  0.00  0.00    +0.008 C 
ATOM      2  C   UNL     1       9.378   2.275  23.247  0.00  0.00    -0.011 C 
ATOM      3  C   UNL     1       9.535   1.112  24.254  0.00  0.00    -0.008 C 
ATOM      4  C   UNL     1       8.343   1.092  25.205  0.00  0.00    +0.008 C 
ATOM      5  C   UNL     1       9.826  -0.158  23.388  0.00  0.00    -0.005 C 
ATOM      6  C   UNL     1       9.710   0.342  21.932  0.00  0.00    +0.004 C 
ATOM      7  C   UNL     1      10.097   1.806  21.995  0.00  0.00    +0.004 C 
ENDROOT
BRANCH   5   8
ATOM      8  C   UNL     1       9.025  -1.466  23.624  0.00  0.00    -0.014 C 
ATOM      9  C   UNL     1       9.906  -2.679  23.937  0.00  0.00    +0.007 C 
ATOM     10  C   UNL     1       8.186  -1.833  22.385  0.00  0.00    +0.007 C 
ENDBRANCH   5   8
TORSDOF 1
ENDMDL
MODEL 5
REMARK VINA RESULT:      -4.0      1.444      4.360
REMARK  Name = 
REMARK  5 active torsions:
REMARK  status: ('A' for Active; 'I' for Inactive)
REMARK    1  A    between atoms: C_1  and  C_2
REMARK    2  A    between atoms: C_5  and  C_8
REMARK    3  A    between atoms: C_6  and  C_7
REMARK    4  A    between atoms: C_8  and  C_9
REMARK    5  A    between atoms: C_8  and  C_10
REMARK                            x       y       z     vdW  Elec       q    Type
REMARK                         _______ _______ _______ _____ _____    ______ ____
ROOT
ATOM      1  C   UNL     1      10.682   2.328  23.608  0.00  0.00    +0.008 C 
ATOM      2  C   UNL     1       9.726   1.183  23.280  0.00  0.00    -0.011 C 
ATOM      3  C   UNL     1       9.923  -0.062  24.176  0.00  0.00    -0.008 C 
ATOM      4  C   UNL     1       9.110   0.093  25.456  0.00  0.00    +0.008 C 
ATOM      5  C   UNL     1       9.644  -1.294  23.253  0.00  0.00    -0.005 C 
ATOM      6  C   UNL     1       9.199  -0.670  21.913  0.00  0.00    +0.004 C 
ATOM      7  C   UNL     1       9.902   0.672  21.860  0.00  0.00    +0.004 C 
ENDROOT
BRANCH   5   8
ATOM      8  C   UNL     1       8.685  -2.420  23.721  0.00  0.00    -0.014 C 
ATOM      9  C   UNL     1       9.397  -3.586  24.413  0.00  0.00    +0.007 C 
ATOM     10  C   UNL     1       7.907  -3.017  22.532  0.00  0.00    +0.007 C 
ENDBRANCH   5   8
TORSDOF 1
ENDMDL
MODEL 6
REMARK VINA RESULT:      -4.0      1.602      4.232
REMARK  Name = 
REMARK  5 active torsions:
REMARK  status: ('A' for Active; 'I' for Inactive)
REMARK    1  A    between atoms: C_1  and  C_2
REMARK    2  A    between atoms: C_5  and  C_8
REMARK    3  A    between atoms: C_6  and  C_7
REMARK    4  A    between atoms: C_8  and  C_9
REMARK    5  A    between atoms: C_8  and  C_10
REMARK                            x       y       z     vdW  Elec       q    Type
REMARK                         _______ _______ _______ _____ _____    ______ ____
ROOT
ATOM      1  C   UNL     1      10.735   3.054  23.438  0.00  0.00    +0.008 C 
ATOM      2  C   UNL     1      10.338   1.592  23.242  0.00  0.00    -0.011 C 
ATOM      3  C   UNL     1       8.828   1.393  22.977  0.00  0.00    -0.008 C 
ATOM      4  C   UNL     1       8.542   1.548  21.488  0.00  0.00    +0.008 C 
ATOM      5  C   UNL     1       8.451   0.046  23.678  0.00  0.00    -0.005 C 
ATOM      6  C   UNL     1       9.797  -0.494  24.207  0.00  0.00    +0.004 C 
ATOM      7  C   UNL     1      10.634   0.743  24.465  0.00  0.00    +0.004 C 
ENDROOT
BRANCH   5   8
ATOM      8  C   UNL     1       7.647  -1.036  22.910  0.00  0.00    -0.014 C 
ATOM      9  C   UNL     1       6.428  -1.556  23.677  0.00  0.00    +0.007 C 
ATOM     10  C   UNL     1       8.527  -2.260  22.593  0.00  0.00    +0.007 C 
ENDBRANCH   5   8
TORSDOF 1
ENDMDL
MODEL 7
REMARK VINA RESULT:      -4.0      5.258      7.082
REMARK  Name = 
REMARK  5 active torsions:
REMARK  status: ('A' for Active; 'I' for Inactive)
REMARK    1  A    between atoms: C_1  and  C_2
REMARK    2  A    between atoms: C_5  and  C_8
REMARK    3  A    between atoms: C_6  and  C_7
REMARK    4  A    between atoms: C_8  and  C_9
REMARK    5  A    between atoms: C_8  and  C_10
REMARK                            x       y       z     vdW  Elec       q    Type
REMARK                         _______ _______ _______ _____ _____    ______ ____
ROOT
ATOM      1  C   UNL     1       8.994  -4.506  26.591  0.00  0.00    +0.008 C 
ATOM      2  C   UNL     1       8.171  -4.012  25.404  0.00  0.00    -0.011 C 
ATOM      3  C   UNL     1       7.436  -5.144  24.648  0.00  0.00    -0.008 C 
ATOM      4  C   UNL     1       6.092  -5.418  25.314  0.00  0.00    +0.008 C 
ATOM      5  C   UNL     1       7.456  -4.726  23.140  0.00  0.00    -0.005 C 
ATOM      6  C   UNL     1       8.107  -3.327  23.144  0.00  0.00    +0.004 C 
ATOM      7  C   UNL     1       9.027  -3.332  24.349  0.00  0.00    +0.004 C 
ENDROOT
BRANCH   5   8
ATOM      8  C   UNL     1       6.151  -4.762  22.302  0.00  0.00    -0.014 C 
ATOM      9  C   UNL     1       6.263  -5.602  21.026  0.00  0.00    +0.007 C 
ATOM     10  C   UNL     1       5.732  -3.345  21.866  0.00  0.00    +0.007 C 
ENDBRANCH   5   8
TORSDOF 1
ENDMDL
MODEL 8
REMARK VINA RESULT:      -3.9      1.515      2.576
REMARK  Name = 
REMARK  5 active torsions:
REMARK  status: ('A' for Active; 'I' for Inactive)
REMARK    1  A    between atoms: C_1  and  C_2
REMARK    2  A    between atoms: C_5  and  C_8
REMARK    3  A    between atoms: C_6  and  C_7
REMARK    4  A    between atoms: C_8  and  C_9
REMARK    5  A    between atoms: C_8  and  C_10
REMARK                            x       y       z     vdW  Elec       q    Type
REMARK                         _______ _______ _______ _____ _____    ______ ____
ROOT
ATOM      1  C   UNL     1       9.743   0.395  21.826  0.00  0.00    +0.008 C 
ATOM      2  C   UNL     1       9.317   1.858  21.919  0.00  0.00    -0.011 C 
ATOM      3  C   UNL     1       9.607   2.500  23.296  0.00  0.00    -0.008 C 
ATOM      4  C   UNL     1      11.034   3.036  23.322  0.00  0.00    +0.008 C 
ATOM      5  C   UNL     1       8.427   3.492  23.556  0.00  0.00    -0.005 C 
ATOM      6  C   UNL     1       7.591   3.435  22.260  0.00  0.00    +0.004 C 
ATOM      7  C   UNL     1       7.823   2.040  21.713  0.00  0.00    +0.004 C 
ENDROOT
BRANCH   5   8
ATOM      8  C   UNL     1       8.715   4.950  24.003  0.00  0.00    -0.014 C 
ATOM      9  C   UNL     1       8.139   5.298  25.379  0.00  0.00    +0.007 C 
ATOM     10  C   UNL     1       8.123   5.963  23.005  0.00  0.00    +0.007 C 
ENDBRANCH   5   8
TORSDOF 1
ENDMDL
MODEL 9
REMARK VINA RESULT:      -3.9      3.389      5.242
REMARK  Name = 
REMARK  5 active torsions:
REMARK  status: ('A' for Active; 'I' for Inactive)
REMARK    1  A    between atoms: C_1  and  C_2
REMARK    2  A    between atoms: C_5  and  C_8
REMARK    3  A    between atoms: C_6  and  C_7
REMARK    4  A    between atoms: C_8  and  C_9
REMARK    5  A    between atoms: C_8  and  C_10
REMARK                            x       y       z     vdW  Elec       q    Type
REMARK                         _______ _______ _______ _____ _____    ______ ____
ROOT
ATOM      1  C   UNL     1       6.026  -5.895  22.919  0.00  0.00    +0.008 C 
ATOM      2  C   UNL     1       7.119  -4.841  22.751  0.00  0.00    -0.011 C 
ATOM      3  C   UNL     1       7.656  -4.289  24.092  0.00  0.00    -0.008 C 
ATOM      4  C   UNL     1       8.770  -5.192  24.609  0.00  0.00    +0.008 C 
ATOM      5  C   UNL     1       7.973  -2.780  23.830  0.00  0.00    -0.005 C 
ATOM      6  C   UNL     1       7.698  -2.591  22.323  0.00  0.00    +0.004 C 
ATOM      7  C   UNL     1       6.631  -3.618  21.994  0.00  0.00    +0.004 C 
ENDROOT
BRANCH   5   8
ATOM      8  C   UNL     1       9.341  -2.183  24.254  0.00  0.00    -0.014 C 
ATOM      9  C   UNL     1       9.222  -0.909  25.095  0.00  0.00    +0.007 C 
ATOM     10  C   UNL     1      10.196  -1.826  23.024  0.00  0.00    +0.007 C 
ENDBRANCH   5   8
TORSDOF 1
ENDMDL
