MODEL 1
REMARK VINA RESULT:      -7.3      0.000      0.000
REMARK  Name = 
REMARK  17 active torsions:
REMARK  status: ('A' for Active; 'I' for Inactive)
REMARK    1  A    between atoms: C_1  and  C_2
REMARK    2  A    between atoms: C_2  and  C_3
REMARK    3  A    between atoms: C_2  and  C_4
REMARK    4  A    between atoms: C_2  and  N_5
REMARK    5  A    between atoms: C_6  and  C_8
REMARK    6  A    between atoms: N_11  and  C_44
REMARK    7  A    between atoms: N_14  and  C_15
REMARK    8  A    between atoms: C_15  and  C_16
REMARK    9  A    between atoms: C_16  and  C_18
REMARK   10  A    between atoms: C_16  and  O_43
REMARK   11  A    between atoms: C_18  and  C_19
REMARK   12  A    between atoms: C_19  and  C_21
REMARK   13  A    between atoms: C_19  and  C_28
REMARK   14  A    between atoms: C_21  and  C_22
REMARK   15  A    between atoms: N_30  and  C_31
REMARK   16  A    between atoms: C_33  and  O_42
REMARK   17  A    between atoms: C_44  and  C_45
REMARK                            x       y       z     vdW  Elec       q    Type
REMARK                         _______ _______ _______ _____ _____    ______ ____
ROOT
ATOM      1  C   UNL     1       8.801  -1.416  22.395  0.00  0.00    +0.129 C 
ENDROOT
BRANCH   1   2
ATOM      2  O   UNL     1       9.363  -1.176  21.099  0.00  0.00    -0.391 OA
ATOM      3  H   UNL     1       8.763  -0.568  20.630  0.00  0.00    +0.210 HD
ENDBRANCH   1   2
BRANCH   1   4
ATOM      4  C   UNL     1       9.917  -1.360  23.482  0.00  0.00    +0.116 C 
BRANCH   4   6
ATOM      5  C   UNL     1       8.241  -0.044  24.796  0.00  0.00    +0.157 C 
ATOM      6  N   UNL     1       9.589  -0.714  24.793  0.00  0.00    -0.287 NA
ATOM      7  C   UNL     1      10.621   0.301  25.115  0.00  0.00    +0.100 C 
ATOM      8  C   UNL     1      10.524   1.628  24.314  0.00  0.00    +0.100 C 
ATOM      9  N   UNL     1       9.179   2.253  24.368  0.00  0.00    -0.295 NA
ATOM     10  C   UNL     1       8.171   1.247  23.947  0.00  0.00    +0.113 C 
BRANCH   5  13
ATOM     11  N   UNL     1       7.467   1.513  26.620  0.00  0.00    -0.309 N 
ATOM     12  H   UNL     1       7.483   2.180  25.852  0.00  0.00    +0.149 HD
ATOM     13  C   UNL     1       7.689   0.194  26.232  0.00  0.00    +0.232 C 
ATOM     14  O   UNL     1       7.427  -0.759  26.967  0.00  0.00    -0.274 OA
BRANCH  11  16
ATOM     15  C   UNL     1       5.297   1.419  27.852  0.00  0.00    +0.031 C 
ATOM     16  C   UNL     1       6.760   1.901  27.855  0.00  0.00    +0.026 C 
ATOM     17  C   UNL     1       7.451   1.249  29.070  0.00  0.00    +0.031 C 
ATOM     18  C   UNL     1       6.817   3.428  28.042  0.00  0.00    +0.031 C 
ENDBRANCH  11  16
ENDBRANCH   5  13
BRANCH   9  19
ATOM     19  C   UNL     1       9.142   3.449  23.506  0.00  0.00    +0.121 C 
BRANCH  19  20
ATOM     20  C   UNL     1       9.595   4.728  24.168  0.00  0.00    -0.015 A 
ATOM     21  C   UNL     1       8.861   5.349  25.184  0.00  0.00    +0.008 A 
ATOM     22  C   UNL     1       9.365   6.492  25.803  0.00  0.00    +0.020 A 
ATOM     23  C   UNL     1      10.593   6.979  25.387  0.00  0.00    +0.111 A 
ATOM     24  N   UNL     1      11.327   6.416  24.406  0.00  0.00    -0.263 NA
ATOM     25  C   UNL     1      10.811   5.310  23.821  0.00  0.00    +0.115 A 
ENDBRANCH  19  20
ENDBRANCH   9  19
ENDBRANCH   4   6
ENDBRANCH   1   4
BRANCH   1  26
ATOM     26  C   UNL     1       8.123  -2.801  22.263  0.00  0.00    +0.045 C 
BRANCH  26  27
ATOM     27  C   UNL     1       6.831  -3.090  23.063  0.00  0.00    +0.082 C 
BRANCH  27  28
ATOM     28  C   UNL     1       7.196  -3.687  24.444  0.00  0.00    +0.217 C 
ATOM     29  N   UNL     1       6.384  -3.308  25.497  0.00  0.00    -0.306 N 
ATOM     30  H   UNL     1       5.539  -2.787  25.330  0.00  0.00    +0.149 HD
ATOM     31  O   UNL     1       8.171  -4.414  24.618  0.00  0.00    -0.275 OA
BRANCH  29  32
ATOM     32  C   UNL     1       6.536  -3.921  26.810  0.00  0.00    +0.132 C 
ATOM     33  C   UNL     1       5.255  -3.858  27.595  0.00  0.00    -0.022 A 
ATOM     34  C   UNL     1       4.675  -5.120  27.734  0.00  0.00    -0.040 A 
ATOM     35  C   UNL     1       3.438  -5.283  28.345  0.00  0.00    +0.004 A 
ATOM     36  C   UNL     1       2.803  -4.160  28.874  0.00  0.00    +0.000 A 
ATOM     37  C   UNL     1       3.409  -2.900  28.794  0.00  0.00    +0.000 A 
ATOM     38  C   UNL     1       5.527  -6.198  27.148  0.00  0.00    +0.069 C 
ATOM     39  C   UNL     1       4.638  -2.740  28.146  0.00  0.00    +0.006 A 
ATOM     40  C   UNL     1       6.808  -5.457  26.723  0.00  0.00    +0.143 C 
BRANCH  40  41
ATOM     41  O   UNL     1       7.898  -5.822  27.581  0.00  0.00    -0.389 OA
ATOM     42  H   UNL     1       7.506  -5.937  28.468  0.00  0.00    +0.210 HD
ENDBRANCH  40  41
ENDBRANCH  29  32
ENDBRANCH  27  28
BRANCH  27  43
ATOM     43  C   UNL     1       5.794  -3.942  22.298  0.00  0.00    +0.048 C 
BRANCH  43  44
ATOM     44  C   UNL     1       4.781  -4.691  23.135  0.00  0.00    -0.047 A 
ATOM     45  C   UNL     1       3.745  -4.027  23.803  0.00  0.00    +0.003 A 
ATOM     46  C   UNL     1       2.794  -4.735  24.541  0.00  0.00    +0.000 A 
ATOM     47  C   UNL     1       2.879  -6.120  24.641  0.00  0.00    +0.000 A 
ATOM     48  C   UNL     1       3.928  -6.791  24.023  0.00  0.00    +0.000 A 
ATOM     49  C   UNL     1       4.875  -6.084  23.277  0.00  0.00    +0.003 A 
ENDBRANCH  43  44
ENDBRANCH  27  43
ENDBRANCH  26  27
ENDBRANCH   1  26
TORSDOF 14
ENDMDL
MODEL 2
REMARK VINA RESULT:      -7.3      2.295      3.991
REMARK  Name = 
REMARK  17 active torsions:
REMARK  status: ('A' for Active; 'I' for Inactive)
REMARK    1  A    between atoms: C_1  and  C_2
REMARK    2  A    between atoms: C_2  and  C_3
REMARK    3  A    between atoms: C_2  and  C_4
REMARK    4  A    between atoms: C_2  and  N_5
REMARK    5  A    between atoms: C_6  and  C_8
REMARK    6  A    between atoms: N_11  and  C_44
REMARK    7  A    between atoms: N_14  and  C_15
REMARK    8  A    between atoms: C_15  and  C_16
REMARK    9  A    between atoms: C_16  and  C_18
REMARK   10  A    between atoms: C_16  and  O_43
REMARK   11  A    between atoms: C_18  and  C_19
REMARK   12  A    between atoms: C_19  and  C_21
REMARK   13  A    between atoms: C_19  and  C_28
REMARK   14  A    between atoms: C_21  and  C_22
REMARK   15  A    between atoms: N_30  and  C_31
REMARK   16  A    between atoms: C_33  and  O_42
REMARK   17  A    between atoms: C_44  and  C_45
REMARK                            x       y       z     vdW  Elec       q    Type
REMARK                         _______ _______ _______ _____ _____    ______ ____
ROOT
ATOM      1  C   UNL     1       5.778  -4.950  22.436  0.00  0.00    +0.129 C 
ENDROOT
BRANCH   1   2
ATOM      2  O   UNL     1       6.021  -5.403  21.099  0.00  0.00    -0.391 OA
ATOM      3  H   UNL     1       6.975  -5.311  20.929  0.00  0.00    +0.210 HD
ENDBRANCH   1   2
BRANCH   1   4
ATOM      4  C   UNL     1       6.993  -5.297  23.349  0.00  0.00    +0.116 C 
BRANCH   4   6
ATOM      5  C   UNL     1       6.928  -2.999  24.339  0.00  0.00    +0.157 C 
ATOM      6  N   UNL     1       7.217  -4.457  24.569  0.00  0.00    -0.287 NA
ATOM      7  C   UNL     1       8.627  -4.594  25.009  0.00  0.00    +0.100 C 
ATOM      8  C   UNL     1       9.671  -3.824  24.155  0.00  0.00    +0.100 C 
ATOM      9  N   UNL     1       9.344  -2.388  23.978  0.00  0.00    -0.295 NA
ATOM     10  C   UNL     1       7.963  -2.278  23.442  0.00  0.00    +0.113 C 
BRANCH   5  13
ATOM     11  N   UNL     1       5.729  -1.201  25.637  0.00  0.00    -0.309 N 
ATOM     12  H   UNL     1       5.130  -1.215  24.814  0.00  0.00    +0.149 HD
ATOM     13  C   UNL     1       6.684  -2.215  25.662  0.00  0.00    +0.232 C 
ATOM     14  O   UNL     1       7.292  -2.518  26.689  0.00  0.00    -0.274 OA
BRANCH  11  16
ATOM     15  C   UNL     1       4.537  -1.476  27.813  0.00  0.00    +0.031 C 
ATOM     16  C   UNL     1       5.232  -0.507  26.839  0.00  0.00    +0.026 C 
ATOM     17  C   UNL     1       6.420   0.124  27.596  0.00  0.00    +0.031 C 
ATOM     18  C   UNL     1       4.271   0.626  26.439  0.00  0.00    +0.031 C 
ENDBRANCH  11  16
ENDBRANCH   5  13
BRANCH   9  19
ATOM     19  C   UNL     1      10.325  -1.753  23.078  0.00  0.00    +0.121 C 
BRANCH  19  20
ATOM     20  C   UNL     1      10.285  -0.245  23.051  0.00  0.00    -0.015 A 
ATOM     21  C   UNL     1       9.828   0.475  21.943  0.00  0.00    +0.008 A 
ATOM     22  C   UNL     1       9.752   1.866  22.003  0.00  0.00    +0.020 A 
ATOM     23  C   UNL     1      10.134   2.496  23.176  0.00  0.00    +0.111 A 
ATOM     24  N   UNL     1      10.588   1.840  24.263  0.00  0.00    -0.263 NA
ATOM     25  C   UNL     1      10.655   0.491  24.174  0.00  0.00    +0.115 A 
ENDBRANCH  19  20
ENDBRANCH   9  19
ENDBRANCH   4   6
ENDBRANCH   1   4
BRANCH   1  26
ATOM     26  C   UNL     1       4.465  -5.660  22.844  0.00  0.00    +0.045 C 
BRANCH  26  27
ATOM     27  C   UNL     1       3.283  -4.818  23.378  0.00  0.00    +0.082 C 
BRANCH  27  28
ATOM     28  C   UNL     1       3.558  -4.406  24.845  0.00  0.00    +0.217 C 
ATOM     29  N   UNL     1       4.138  -5.375  25.643  0.00  0.00    -0.306 N 
ATOM     30  H   UNL     1       4.474  -6.236  25.241  0.00  0.00    +0.149 HD
ATOM     31  O   UNL     1       3.243  -3.310  25.299  0.00  0.00    -0.275 OA
BRANCH  29  32
ATOM     32  C   UNL     1       4.581  -5.058  26.994  0.00  0.00    +0.132 C 
ATOM     33  C   UNL     1       3.550  -5.453  28.014  0.00  0.00    -0.022 A 
ATOM     34  C   UNL     1       3.970  -6.545  28.775  0.00  0.00    -0.040 A 
ATOM     35  C   UNL     1       3.135  -7.135  29.716  0.00  0.00    +0.004 A 
ATOM     36  C   UNL     1       1.875  -6.578  29.931  0.00  0.00    +0.000 A 
ATOM     37  C   UNL     1       1.470  -5.443  29.216  0.00  0.00    +0.000 A 
ATOM     38  C   UNL     1       5.363  -6.965  28.433  0.00  0.00    +0.069 C 
ATOM     39  C   UNL     1       2.304  -4.877  28.246  0.00  0.00    +0.006 A 
ATOM     40  C   UNL     1       5.826  -5.897  27.425  0.00  0.00    +0.143 C 
BRANCH  40  41
ATOM     41  O   UNL     1       6.817  -5.050  28.023  0.00  0.00    -0.389 OA
ATOM     42  H   UNL     1       6.368  -4.608  28.770  0.00  0.00    +0.210 HD
ENDBRANCH  40  41
ENDBRANCH  29  32
ENDBRANCH  27  28
BRANCH  27  43
ATOM     43  C   UNL     1       1.901  -5.483  23.192  0.00  0.00    +0.048 C 
BRANCH  43  44
ATOM     44  C   UNL     1       1.558  -6.611  24.139  0.00  0.00    -0.047 A 
ATOM     45  C   UNL     1       2.020  -7.915  23.925  0.00  0.00    +0.003 A 
ATOM     46  C   UNL     1       1.728  -8.940  24.828  0.00  0.00    +0.000 A 
ATOM     47  C   UNL     1       0.949  -8.678  25.951  0.00  0.00    +0.000 A 
ATOM     48  C   UNL     1       0.443  -7.399  26.154  0.00  0.00    +0.000 A 
ATOM     49  C   UNL     1       0.742  -6.372  25.255  0.00  0.00    +0.003 A 
ENDBRANCH  43  44
ENDBRANCH  27  43
ENDBRANCH  26  27
ENDBRANCH   1  26
TORSDOF 14
ENDMDL
MODEL 3
REMARK VINA RESULT:      -7.3      2.539      8.167
REMARK  Name = 
REMARK  17 active torsions:
REMARK  status: ('A' for Active; 'I' for Inactive)
REMARK    1  A    between atoms: C_1  and  C_2
REMARK    2  A    between atoms: C_2  and  C_3
REMARK    3  A    between atoms: C_2  and  C_4
REMARK    4  A    between atoms: C_2  and  N_5
REMARK    5  A    between atoms: C_6  and  C_8
REMARK    6  A    between atoms: N_11  and  C_44
REMARK    7  A    between atoms: N_14  and  C_15
REMARK    8  A    between atoms: C_15  and  C_16
REMARK    9  A    between atoms: C_16  and  C_18
REMARK   10  A    between atoms: C_16  and  O_43
REMARK   11  A    between atoms: C_18  and  C_19
REMARK   12  A    between atoms: C_19  and  C_21
REMARK   13  A    between atoms: C_19  and  C_28
REMARK   14  A    between atoms: C_21  and  C_22
REMARK   15  A    between atoms: N_30  and  C_31
REMARK   16  A    between atoms: C_33  and  O_42
REMARK   17  A    between atoms: C_44  and  C_45
REMARK                            x       y       z     vdW  Elec       q    Type
REMARK                         _______ _______ _______ _____ _____    ______ ____
ROOT
ATOM      1  C   UNL     1       9.445  -4.814  25.622  0.00  0.00    +0.129 C 
ENDROOT
BRANCH   1   2
ATOM      2  O   UNL     1       9.617  -6.138  25.099  0.00  0.00    -0.391 OA
ATOM      3  H   UNL     1       8.996  -6.720  25.573  0.00  0.00    +0.210 HD
ENDBRANCH   1   2
BRANCH   1   4
ATOM      4  C   UNL     1       8.337  -4.811  26.719  0.00  0.00    +0.116 C 
BRANCH   4   6
ATOM      5  C   UNL     1       6.070  -4.824  25.658  0.00  0.00    +0.157 C 
ATOM      6  N   UNL     1       7.087  -5.593  26.457  0.00  0.00    -0.287 NA
ATOM      7  C   UNL     1       6.472  -5.988  27.748  0.00  0.00    +0.100 C 
ATOM      8  C   UNL     1       5.732  -4.854  28.508  0.00  0.00    +0.100 C 
ATOM      9  N   UNL     1       4.728  -4.144  27.678  0.00  0.00    -0.295 NA
ATOM     10  C   UNL     1       5.390  -3.671  26.434  0.00  0.00    +0.113 C 
BRANCH   5  13
ATOM     11  N   UNL     1       3.679  -5.550  25.322  0.00  0.00    -0.309 N 
ATOM     12  H   UNL     1       3.502  -4.682  25.823  0.00  0.00    +0.149 HD
ATOM     13  C   UNL     1       5.015  -5.745  24.977  0.00  0.00    +0.232 C 
ATOM     14  O   UNL     1       5.360  -6.580  24.141  0.00  0.00    -0.274 OA
BRANCH  11  16
ATOM     15  C   UNL     1       2.592  -7.721  24.745  0.00  0.00    +0.031 C 
ATOM     16  C   UNL     1       2.546  -6.187  24.626  0.00  0.00    +0.026 C 
ATOM     17  C   UNL     1       1.222  -5.721  25.267  0.00  0.00    +0.031 C 
ATOM     18  C   UNL     1       2.528  -5.768  23.146  0.00  0.00    +0.031 C 
ENDBRANCH  11  16
ENDBRANCH   5  13
BRANCH   9  19
ATOM     19  C   UNL     1       4.144  -3.024  28.438  0.00  0.00    +0.121 C 
BRANCH  19  20
ATOM     20  C   UNL     1       2.881  -2.441  27.850  0.00  0.00    -0.015 A 
ATOM     21  C   UNL     1       1.664  -3.128  27.855  0.00  0.00    +0.008 A 
ATOM     22  C   UNL     1       0.517  -2.510  27.358  0.00  0.00    +0.020 A 
ATOM     23  C   UNL     1       0.624  -1.217  26.872  0.00  0.00    +0.111 A 
ATOM     24  N   UNL     1       1.781  -0.524  26.841  0.00  0.00    -0.263 NA
ATOM     25  C   UNL     1       2.878  -1.151  27.327  0.00  0.00    +0.115 A 
ENDBRANCH  19  20
ENDBRANCH   9  19
ENDBRANCH   4   6
ENDBRANCH   1   4
BRANCH   1  26
ATOM     26  C   UNL     1       9.099  -3.959  24.380  0.00  0.00    +0.045 C 
BRANCH  26  27
ATOM     27  C   UNL     1       9.314  -2.428  24.432  0.00  0.00    +0.082 C 
BRANCH  27  28
ATOM     28  C   UNL     1       7.943  -1.713  24.513  0.00  0.00    +0.217 C 
ATOM     29  N   UNL     1       7.824  -0.751  25.500  0.00  0.00    -0.306 N 
ATOM     30  H   UNL     1       8.630  -0.457  26.029  0.00  0.00    +0.149 HD
ATOM     31  O   UNL     1       6.996  -2.003  23.787  0.00  0.00    -0.275 OA
BRANCH  29  32
ATOM     32  C   UNL     1       6.639   0.092  25.576  0.00  0.00    +0.132 C 
ATOM     33  C   UNL     1       6.652   0.944  26.815  0.00  0.00    -0.022 A 
ATOM     34  C   UNL     1       6.858   2.290  26.513  0.00  0.00    -0.040 A 
ATOM     35  C   UNL     1       6.998   3.243  27.514  0.00  0.00    +0.004 A 
ATOM     36  C   UNL     1       6.871   2.838  28.841  0.00  0.00    +0.000 A 
ATOM     37  C   UNL     1       6.601   1.498  29.151  0.00  0.00    +0.000 A 
ATOM     38  C   UNL     1       6.917   2.532  25.039  0.00  0.00    +0.069 C 
ATOM     39  C   UNL     1       6.497   0.540  28.138  0.00  0.00    +0.006 A 
ATOM     40  C   UNL     1       6.589   1.155  24.432  0.00  0.00    +0.143 C 
BRANCH  40  41
ATOM     41  O   UNL     1       5.288   1.179  23.828  0.00  0.00    -0.389 OA
ATOM     42  H   UNL     1       5.123   2.114  23.597  0.00  0.00    +0.210 HD
ENDBRANCH  40  41
ENDBRANCH  29  32
ENDBRANCH  27  28
BRANCH  27  43
ATOM     43  C   UNL     1      10.210  -1.879  23.299  0.00  0.00    +0.048 C 
BRANCH  43  44
ATOM     44  C   UNL     1      10.224  -0.378  23.113  0.00  0.00    -0.047 A 
ATOM     45  C   UNL     1       9.731   0.222  21.948  0.00  0.00    +0.003 A 
ATOM     46  C   UNL     1       9.714   1.611  21.805  0.00  0.00    +0.000 A 
ATOM     47  C   UNL     1      10.214   2.422  22.819  0.00  0.00    +0.000 A 
ATOM     48  C   UNL     1      10.752   1.842  23.963  0.00  0.00    +0.000 A 
ATOM     49  C   UNL     1      10.760   0.452  24.110  0.00  0.00    +0.003 A 
ENDBRANCH  43  44
ENDBRANCH  27  43
ENDBRANCH  26  27
ENDBRANCH   1  26
TORSDOF 14
ENDMDL
MODEL 4
REMARK VINA RESULT:      -7.0      2.667      8.647
REMARK  Name = 
REMARK  17 active torsions:
REMARK  status: ('A' for Active; 'I' for Inactive)
REMARK    1  A    between atoms: C_1  and  C_2
REMARK    2  A    between atoms: C_2  and  C_3
REMARK    3  A    between atoms: C_2  and  C_4
REMARK    4  A    between atoms: C_2  and  N_5
REMARK    5  A    between atoms: C_6  and  C_8
REMARK    6  A    between atoms: N_11  and  C_44
REMARK    7  A    between atoms: N_14  and  C_15
REMARK    8  A    between atoms: C_15  and  C_16
REMARK    9  A    between atoms: C_16  and  C_18
REMARK   10  A    between atoms: C_16  and  O_43
REMARK   11  A    between atoms: C_18  and  C_19
REMARK   12  A    between atoms: C_19  and  C_21
REMARK   13  A    between atoms: C_19  and  C_28
REMARK   14  A    between atoms: C_21  and  C_22
REMARK   15  A    between atoms: N_30  and  C_31
REMARK   16  A    between atoms: C_33  and  O_42
REMARK   17  A    between atoms: C_44  and  C_45
REMARK                            x       y       z     vdW  Elec       q    Type
REMARK                         _______ _______ _______ _____ _____    ______ ____
ROOT
ATOM      1  C   UNL     1       6.854   1.022  28.770  0.00  0.00    +0.129 C 
ENDROOT
BRANCH   1   2
ATOM      2  O   UNL     1       8.036   1.109  29.575  0.00  0.00    -0.391 OA
ATOM      3  H   UNL     1       7.791   1.559  30.404  0.00  0.00    +0.210 HD
ENDBRANCH   1   2
BRANCH   1   4
ATOM      4  C   UNL     1       7.064  -0.008  27.619  0.00  0.00    +0.116 C 
BRANCH   4   6
ATOM      5  C   UNL     1       6.536  -2.383  27.031  0.00  0.00    +0.157 C 
ATOM      6  N   UNL     1       5.990  -1.026  27.384  0.00  0.00    -0.287 NA
ATOM      7  C   UNL     1       5.111  -0.569  26.280  0.00  0.00    +0.100 C 
ATOM      8  C   UNL     1       5.706  -0.708  24.852  0.00  0.00    +0.100 C 
ATOM      9  N   UNL     1       6.210  -2.071  24.553  0.00  0.00    -0.295 NA
ATOM     10  C   UNL     1       7.165  -2.469  25.620  0.00  0.00    +0.113 C 
BRANCH   5  13
ATOM     11  N   UNL     1       5.310  -4.430  26.216  0.00  0.00    -0.309 N 
ATOM     12  H   UNL     1       6.019  -4.381  25.488  0.00  0.00    +0.149 HD
ATOM     13  C   UNL     1       5.504  -3.527  27.259  0.00  0.00    +0.232 C 
ATOM     14  O   UNL     1       4.921  -3.636  28.338  0.00  0.00    -0.274 OA
BRANCH  11  16
ATOM     15  C   UNL     1       4.974  -6.507  27.559  0.00  0.00    +0.031 C 
ATOM     16  C   UNL     1       4.534  -5.677  26.339  0.00  0.00    +0.026 C 
ATOM     17  C   UNL     1       3.042  -5.336  26.536  0.00  0.00    +0.031 C 
ATOM     18  C   UNL     1       4.662  -6.512  25.053  0.00  0.00    +0.031 C 
ENDBRANCH  11  16
ENDBRANCH   5  13
BRANCH   9  19
ATOM     19  C   UNL     1       6.845  -2.095  23.223  0.00  0.00    +0.121 C 
BRANCH  19  20
ATOM     20  C   UNL     1       6.799  -3.428  22.515  0.00  0.00    -0.015 A 
ATOM     21  C   UNL     1       7.597  -4.510  22.897  0.00  0.00    +0.008 A 
ATOM     22  C   UNL     1       7.460  -5.736  22.248  0.00  0.00    +0.020 A 
ATOM     23  C   UNL     1       6.521  -5.843  21.235  0.00  0.00    +0.111 A 
ATOM     24  N   UNL     1       5.738  -4.822  20.831  0.00  0.00    -0.263 NA
ATOM     25  C   UNL     1       5.896  -3.643  21.477  0.00  0.00    +0.115 A 
ENDBRANCH  19  20
ENDBRANCH   9  19
ENDBRANCH   4   6
ENDBRANCH   1   4
BRANCH   1  26
ATOM     26  C   UNL     1       6.623   2.472  28.279  0.00  0.00    +0.045 C 
BRANCH  26  27
ATOM     27  C   UNL     1       6.279   2.721  26.792  0.00  0.00    +0.082 C 
BRANCH  27  28
ATOM     28  C   UNL     1       7.575   3.032  26.004  0.00  0.00    +0.217 C 
ATOM     29  N   UNL     1       8.091   1.986  25.260  0.00  0.00    -0.306 N 
ATOM     30  H   UNL     1       7.570   1.132  25.146  0.00  0.00    +0.149 HD
ATOM     31  O   UNL     1       8.147   4.117  26.063  0.00  0.00    -0.275 OA
BRANCH  29  32
ATOM     32  C   UNL     1       9.217   2.200  24.361  0.00  0.00    +0.132 C 
ATOM     33  C   UNL     1       9.602   0.929  23.655  0.00  0.00    -0.022 A 
ATOM     34  C   UNL     1       9.280   0.976  22.298  0.00  0.00    -0.040 A 
ATOM     35  C   UNL     1       9.464  -0.126  21.472  0.00  0.00    +0.004 A 
ATOM     36  C   UNL     1      10.035  -1.276  22.015  0.00  0.00    +0.000 A 
ATOM     37  C   UNL     1      10.420  -1.310  23.362  0.00  0.00    +0.000 A 
ATOM     38  C   UNL     1       8.727   2.306  21.897  0.00  0.00    +0.069 C 
ATOM     39  C   UNL     1      10.198  -0.207  24.193  0.00  0.00    +0.006 A 
ATOM     40  C   UNL     1       8.860   3.154  23.175  0.00  0.00    +0.143 C 
BRANCH  40  41
ATOM     41  O   UNL     1       9.883   4.145  23.006  0.00  0.00    -0.389 OA
ATOM     42  H   UNL     1      10.548   3.737  22.417  0.00  0.00    +0.210 HD
ENDBRANCH  40  41
ENDBRANCH  29  32
ENDBRANCH  27  28
BRANCH  27  43
ATOM     43  C   UNL     1       5.175   3.779  26.570  0.00  0.00    +0.048 C 
BRANCH  43  44
ATOM     44  C   UNL     1       4.758   4.034  25.138  0.00  0.00    -0.047 A 
ATOM     45  C   UNL     1       4.216   3.020  24.340  0.00  0.00    +0.003 A 
ATOM     46  C   UNL     1       3.799   3.279  23.032  0.00  0.00    +0.000 A 
ATOM     47  C   UNL     1       3.941   4.554  22.495  0.00  0.00    +0.000 A 
ATOM     48  C   UNL     1       4.522   5.561  23.257  0.00  0.00    +0.000 A 
ATOM     49  C   UNL     1       4.930   5.305  24.569  0.00  0.00    +0.003 A 
ENDBRANCH  43  44
ENDBRANCH  27  43
ENDBRANCH  26  27
ENDBRANCH   1  26
TORSDOF 14
ENDMDL
MODEL 5
REMARK VINA RESULT:      -6.9      3.524      6.025
REMARK  Name = 
REMARK  17 active torsions:
REMARK  status: ('A' for Active; 'I' for Inactive)
REMARK    1  A    between atoms: C_1  and  C_2
REMARK    2  A    between atoms: C_2  and  C_3
REMARK    3  A    between atoms: C_2  and  C_4
REMARK    4  A    between atoms: C_2  and  N_5
REMARK    5  A    between atoms: C_6  and  C_8
REMARK    6  A    between atoms: N_11  and  C_44
REMARK    7  A    between atoms: N_14  and  C_15
REMARK    8  A    between atoms: C_15  and  C_16
REMARK    9  A    between atoms: C_16  and  C_18
REMARK   10  A    between atoms: C_16  and  O_43
REMARK   11  A    between atoms: C_18  and  C_19
REMARK   12  A    between atoms: C_19  and  C_21
REMARK   13  A    between atoms: C_19  and  C_28
REMARK   14  A    between atoms: C_21  and  C_22
REMARK   15  A    between atoms: N_30  and  C_31
REMARK   16  A    between atoms: C_33  and  O_42
REMARK   17  A    between atoms: C_44  and  C_45
REMARK                            x       y       z     vdW  Elec       q    Type
REMARK                         _______ _______ _______ _____ _____    ______ ____
ROOT
ATOM      1  C   UNL     1       6.284  -0.396  25.083  0.00  0.00    +0.129 C 
ENDROOT
BRANCH   1   2
ATOM      2  O   UNL     1       5.142  -1.262  25.093  0.00  0.00    -0.391 OA
ATOM      3  H   UNL     1       5.261  -1.892  25.826  0.00  0.00    +0.210 HD
ENDBRANCH   1   2
BRANCH   1   4
ATOM      4  C   UNL     1       6.330   0.416  23.754  0.00  0.00    +0.116 C 
BRANCH   4   6
ATOM      5  C   UNL     1       6.462   2.592  24.985  0.00  0.00    +0.157 C 
ATOM      6  N   UNL     1       6.917   1.794  23.793  0.00  0.00    -0.287 NA
ATOM      7  C   UNL     1       6.535   2.528  22.561  0.00  0.00    +0.100 C 
ATOM      8  C   UNL     1       5.069   3.036  22.515  0.00  0.00    +0.100 C 
ATOM      9  N   UNL     1       4.682   3.832  23.706  0.00  0.00    -0.295 NA
ATOM     10  C   UNL     1       4.982   3.038  24.925  0.00  0.00    +0.113 C 
BRANCH   5  13
ATOM     11  N   UNL     1       7.672   4.682  24.265  0.00  0.00    -0.309 N 
ATOM     12  H   UNL     1       7.058   4.581  23.460  0.00  0.00    +0.149 HD
ATOM     13  C   UNL     1       7.401   3.793  25.302  0.00  0.00    +0.232 C 
ATOM     14  O   UNL     1       7.846   3.956  26.438  0.00  0.00    -0.274 OA
BRANCH  11  16
ATOM     15  C   UNL     1       9.834   5.777  24.865  0.00  0.00    +0.031 C 
ATOM     16  C   UNL     1       8.365   5.971  24.444  0.00  0.00    +0.026 C 
ATOM     17  C   UNL     1       8.374   6.740  23.106  0.00  0.00    +0.031 C 
ATOM     18  C   UNL     1       7.625   6.834  25.480  0.00  0.00    +0.031 C 
ENDBRANCH  11  16
ENDBRANCH   5  13
BRANCH   9  19
ATOM     19  C   UNL     1       3.254   4.192  23.633  0.00  0.00    +0.121 C 
BRANCH  19  20
ATOM     20  C   UNL     1       2.876   5.072  22.466  0.00  0.00    -0.015 A 
ATOM     21  C   UNL     1       3.374   6.369  22.311  0.00  0.00    +0.008 A 
ATOM     22  C   UNL     1       3.040   7.108  21.177  0.00  0.00    +0.020 A 
ATOM     23  C   UNL     1       2.218   6.523  20.227  0.00  0.00    +0.111 A 
ATOM     24  N   UNL     1       1.710   5.279  20.344  0.00  0.00    -0.263 NA
ATOM     25  C   UNL     1       2.048   4.587  21.457  0.00  0.00    +0.115 A 
ENDBRANCH  19  20
ENDBRANCH   9  19
ENDBRANCH   4   6
ENDBRANCH   1   4
BRANCH   1  26
ATOM     26  C   UNL     1       7.485  -1.353  25.274  0.00  0.00    +0.045 C 
BRANCH  26  27
ATOM     27  C   UNL     1       8.175  -1.960  24.030  0.00  0.00    +0.082 C 
BRANCH  27  28
ATOM     28  C   UNL     1       7.961  -3.493  24.013  0.00  0.00    +0.217 C 
ATOM     29  N   UNL     1       6.644  -3.916  23.986  0.00  0.00    -0.306 N 
ATOM     30  H   UNL     1       5.896  -3.256  23.851  0.00  0.00    +0.149 HD
ATOM     31  O   UNL     1       8.888  -4.296  24.069  0.00  0.00    -0.275 OA
BRANCH  29  32
ATOM     32  C   UNL     1       6.321  -5.327  23.816  0.00  0.00    +0.132 C 
ATOM     33  C   UNL     1       5.472  -5.833  24.949  0.00  0.00    -0.022 A 
ATOM     34  C   UNL     1       4.166  -6.099  24.535  0.00  0.00    -0.040 A 
ATOM     35  C   UNL     1       3.185  -6.489  25.439  0.00  0.00    +0.004 A 
ATOM     36  C   UNL     1       3.544  -6.668  26.774  0.00  0.00    +0.000 A 
ATOM     37  C   UNL     1       4.868  -6.465  27.186  0.00  0.00    +0.000 A 
ATOM     38  C   UNL     1       3.991  -5.897  23.064  0.00  0.00    +0.069 C 
ATOM     39  C   UNL     1       5.840  -6.038  26.276  0.00  0.00    +0.006 A 
ATOM     40  C   UNL     1       5.415  -5.584  22.569  0.00  0.00    +0.143 C 
BRANCH  40  41
ATOM     41  O   UNL     1       5.923  -6.683  21.801  0.00  0.00    -0.389 OA
ATOM     42  H   UNL     1       5.902  -7.454  22.400  0.00  0.00    +0.210 HD
ENDBRANCH  40  41
ENDBRANCH  29  32
ENDBRANCH  27  28
BRANCH  27  43
ATOM     43  C   UNL     1       9.659  -1.561  23.874  0.00  0.00    +0.048 C 
BRANCH  43  44
ATOM     44  C   UNL     1       9.939  -0.122  23.499  0.00  0.00    -0.047 A 
ATOM     45  C   UNL     1       9.834   0.324  22.176  0.00  0.00    +0.003 A 
ATOM     46  C   UNL     1      10.057   1.664  21.849  0.00  0.00    +0.000 A 
ATOM     47  C   UNL     1      10.412   2.573  22.840  0.00  0.00    +0.000 A 
ATOM     48  C   UNL     1      10.566   2.137  24.151  0.00  0.00    +0.000 A 
ATOM     49  C   UNL     1      10.335   0.799  24.480  0.00  0.00    +0.003 A 
ENDBRANCH  43  44
ENDBRANCH  27  43
ENDBRANCH  26  27
ENDBRANCH   1  26
TORSDOF 14
ENDMDL
MODEL 6
REMARK VINA RESULT:      -6.9      2.460      3.903
REMARK  Name = 
REMARK  17 active torsions:
REMARK  status: ('A' for Active; 'I' for Inactive)
REMARK    1  A    between atoms: C_1  and  C_2
REMARK    2  A    between atoms: C_2  and  C_3
REMARK    3  A    between atoms: C_2  and  C_4
REMARK    4  A    between atoms: C_2  and  N_5
REMARK    5  A    between atoms: C_6  and  C_8
REMARK    6  A    between atoms: N_11  and  C_44
REMARK    7  A    between atoms: N_14  and  C_15
REMARK    8  A    between atoms: C_15  and  C_16
REMARK    9  A    between atoms: C_16  and  C_18
REMARK   10  A    between atoms: C_16  and  O_43
REMARK   11  A    between atoms: C_18  and  C_19
REMARK   12  A    between atoms: C_19  and  C_21
REMARK   13  A    between atoms: C_19  and  C_28
REMARK   14  A    between atoms: C_21  and  C_22
REMARK   15  A    between atoms: N_30  and  C_31
REMARK   16  A    between atoms: C_33  and  O_42
REMARK   17  A    between atoms: C_44  and  C_45
REMARK                            x       y       z     vdW  Elec       q    Type
REMARK                         _______ _______ _______ _____ _____    ______ ____
ROOT
ATOM      1  C   UNL     1      10.316   0.381  22.858  0.00  0.00    +0.129 C 
ENDROOT
BRANCH   1   2
ATOM      2  O   UNL     1      11.018   0.247  24.100  0.00  0.00    -0.391 OA
ATOM      3  H   UNL     1      11.585  -0.541  24.030  0.00  0.00    +0.210 HD
ENDBRANCH   1   2
BRANCH   1   4
ATOM      4  C   UNL     1       9.053   1.275  23.050  0.00  0.00    +0.116 C 
BRANCH   4   6
ATOM      5  C   UNL     1       7.304   1.114  24.835  0.00  0.00    +0.157 C 
ATOM      6  N   UNL     1       8.659   1.643  24.448  0.00  0.00    -0.287 NA
ATOM      7  C   UNL     1       8.645   3.120  24.584  0.00  0.00    +0.100 C 
ATOM      8  C   UNL     1       7.429   3.837  23.937  0.00  0.00    +0.100 C 
ATOM      9  N   UNL     1       6.120   3.287  24.369  0.00  0.00    -0.295 NA
ATOM     10  C   UNL     1       6.121   1.820  24.132  0.00  0.00    +0.113 C 
BRANCH   5  13
ATOM     11  N   UNL     1       6.236   2.002  26.938  0.00  0.00    -0.309 N 
ATOM     12  H   UNL     1       5.661   2.496  26.259  0.00  0.00    +0.149 HD
ATOM     13  C   UNL     1       7.095   1.060  26.377  0.00  0.00    +0.232 C 
ATOM     14  O   UNL     1       7.644   0.189  27.052  0.00  0.00    -0.274 OA
BRANCH  11  16
ATOM     15  C   UNL     1       6.944   1.919  29.330  0.00  0.00    +0.031 C 
ATOM     16  C   UNL     1       5.769   1.963  28.336  0.00  0.00    +0.026 C 
ATOM     17  C   UNL     1       4.961   3.240  28.643  0.00  0.00    +0.031 C 
ATOM     18  C   UNL     1       4.843   0.754  28.554  0.00  0.00    +0.031 C 
ENDBRANCH  11  16
ENDBRANCH   5  13
BRANCH   9  19
ATOM     19  C   UNL     1       5.026   3.952  23.639  0.00  0.00    +0.121 C 
BRANCH  19  20
ATOM     20  C   UNL     1       3.635   3.554  24.070  0.00  0.00    -0.015 A 
ATOM     21  C   UNL     1       3.233   3.555  25.409  0.00  0.00    +0.008 A 
ATOM     22  C   UNL     1       1.915   3.243  25.737  0.00  0.00    +0.020 A 
ATOM     23  C   UNL     1       1.035   2.940  24.712  0.00  0.00    +0.111 A 
ATOM     24  N   UNL     1       1.384   2.918  23.409  0.00  0.00    -0.263 NA
ATOM     25  C   UNL     1       2.671   3.222  23.121  0.00  0.00    +0.115 A 
ENDBRANCH  19  20
ENDBRANCH   9  19
ENDBRANCH   4   6
ENDBRANCH   1   4
BRANCH   1  26
ATOM     26  C   UNL     1       9.995  -1.075  22.446  0.00  0.00    +0.045 C 
BRANCH  26  27
ATOM     27  C   UNL     1       8.650  -1.706  22.878  0.00  0.00    +0.082 C 
BRANCH  27  28
ATOM     28  C   UNL     1       8.855  -2.534  24.170  0.00  0.00    +0.217 C 
ATOM     29  N   UNL     1       7.905  -2.351  25.158  0.00  0.00    -0.306 N 
ATOM     30  H   UNL     1       7.072  -1.814  24.975  0.00  0.00    +0.149 HD
ATOM     31  O   UNL     1       9.821  -3.273  24.341  0.00  0.00    -0.275 OA
BRANCH  29  32
ATOM     32  C   UNL     1       7.907  -3.183  26.353  0.00  0.00    +0.132 C 
ATOM     33  C   UNL     1       6.508  -3.528  26.783  0.00  0.00    -0.022 A 
ATOM     34  C   UNL     1       6.221  -4.877  26.569  0.00  0.00    -0.040 A 
ATOM     35  C   UNL     1       4.954  -5.393  26.809  0.00  0.00    +0.004 A 
ATOM     36  C   UNL     1       3.976  -4.545  27.326  0.00  0.00    +0.000 A 
ATOM     37  C   UNL     1       4.274  -3.204  27.603  0.00  0.00    +0.000 A 
ATOM     38  C   UNL     1       7.407  -5.630  26.060  0.00  0.00    +0.069 C 
ATOM     39  C   UNL     1       5.542  -2.685  27.325  0.00  0.00    +0.006 A 
ATOM     40  C   UNL     1       8.541  -4.589  26.099  0.00  0.00    +0.143 C 
BRANCH  40  41
ATOM     41  O   UNL     1       9.473  -4.912  27.141  0.00  0.00    -0.389 OA
ATOM     42  H   UNL     1       8.950  -5.369  27.828  0.00  0.00    +0.210 HD
ENDBRANCH  40  41
ENDBRANCH  29  32
ENDBRANCH  27  28
BRANCH  27  43
ATOM     43  C   UNL     1       7.942  -2.505  21.761  0.00  0.00    +0.048 C 
BRANCH  43  44
ATOM     44  C   UNL     1       6.905  -3.514  22.202  0.00  0.00    -0.047 A 
ATOM     45  C   UNL     1       7.134  -4.892  22.107  0.00  0.00    +0.003 A 
ATOM     46  C   UNL     1       6.183  -5.812  22.553  0.00  0.00    +0.000 A 
ATOM     47  C   UNL     1       4.976  -5.366  23.082  0.00  0.00    +0.000 A 
ATOM     48  C   UNL     1       4.713  -4.002  23.141  0.00  0.00    +0.000 A 
ATOM     49  C   UNL     1       5.667  -3.081  22.702  0.00  0.00    +0.003 A 
ENDBRANCH  43  44
ENDBRANCH  27  43
ENDBRANCH  26  27
ENDBRANCH   1  26
TORSDOF 14
ENDMDL
MODEL 7
REMARK VINA RESULT:      -6.8      2.778      5.401
REMARK  Name = 
REMARK  17 active torsions:
REMARK  status: ('A' for Active; 'I' for Inactive)
REMARK    1  A    between atoms: C_1  and  C_2
REMARK    2  A    between atoms: C_2  and  C_3
REMARK    3  A    between atoms: C_2  and  C_4
REMARK    4  A    between atoms: C_2  and  N_5
REMARK    5  A    between atoms: C_6  and  C_8
REMARK    6  A    between atoms: N_11  and  C_44
REMARK    7  A    between atoms: N_14  and  C_15
REMARK    8  A    between atoms: C_15  and  C_16
REMARK    9  A    between atoms: C_16  and  C_18
REMARK   10  A    between atoms: C_16  and  O_43
REMARK   11  A    between atoms: C_18  and  C_19
REMARK   12  A    between atoms: C_19  and  C_21
REMARK   13  A    between atoms: C_19  and  C_28
REMARK   14  A    between atoms: C_21  and  C_22
REMARK   15  A    between atoms: N_30  and  C_31
REMARK   16  A    between atoms: C_33  and  O_42
REMARK   17  A    between atoms: C_44  and  C_45
REMARK                            x       y       z     vdW  Elec       q    Type
REMARK                         _______ _______ _______ _____ _____    ______ ____
ROOT
ATOM      1  C   UNL     1       3.549  -2.160  28.196  0.00  0.00    +0.129 C 
ENDROOT
BRANCH   1   2
ATOM      2  O   UNL     1       2.679  -1.042  28.412  0.00  0.00    -0.391 OA
ATOM      3  H   UNL     1       2.878  -0.685  29.295  0.00  0.00    +0.210 HD
ENDBRANCH   1   2
BRANCH   1   4
ATOM      4  C   UNL     1       4.958  -1.664  27.748  0.00  0.00    +0.116 C 
BRANCH   4   6
ATOM      5  C   UNL     1       5.323  -0.129  25.805  0.00  0.00    +0.157 C 
ATOM      6  N   UNL     1       5.088  -0.245  27.286  0.00  0.00    -0.287 NA
ATOM      7  C   UNL     1       6.220   0.402  27.995  0.00  0.00    +0.100 C 
ATOM      8  C   UNL     1       7.635  -0.003  27.501  0.00  0.00    +0.100 C 
ATOM      9  N   UNL     1       7.815   0.149  26.036  0.00  0.00    -0.295 NA
ATOM     10  C   UNL     1       6.727  -0.589  25.345  0.00  0.00    +0.113 C 
BRANCH   5  13
ATOM     11  N   UNL     1       5.866   1.838  24.326  0.00  0.00    -0.309 N 
ATOM     12  H   UNL     1       6.537   1.175  23.943  0.00  0.00    +0.149 HD
ATOM     13  C   UNL     1       4.981   1.284  25.247  0.00  0.00    +0.232 C 
ATOM     14  O   UNL     1       3.947   1.857  25.589  0.00  0.00    -0.274 OA
BRANCH  11  16
ATOM     15  C   UNL     1       4.150   3.085  23.010  0.00  0.00    +0.031 C 
ATOM     16  C   UNL     1       5.592   3.062  23.552  0.00  0.00    +0.026 C 
ATOM     17  C   UNL     1       5.753   4.295  24.466  0.00  0.00    +0.031 C 
ATOM     18  C   UNL     1       6.596   3.197  22.394  0.00  0.00    +0.031 C 
ENDBRANCH  11  16
ENDBRANCH   5  13
BRANCH   9  19
ATOM     19  C   UNL     1       9.144  -0.347  25.635  0.00  0.00    +0.121 C 
BRANCH  19  20
ATOM     20  C   UNL     1       9.372  -0.436  24.145  0.00  0.00    -0.015 A 
ATOM     21  C   UNL     1       9.237   0.667  23.298  0.00  0.00    +0.008 A 
ATOM     22  C   UNL     1       9.526   0.538  21.940  0.00  0.00    +0.020 A 
ATOM     23  C   UNL     1       9.947  -0.696  21.471  0.00  0.00    +0.111 A 
ATOM     24  N   UNL     1      10.081  -1.786  22.254  0.00  0.00    -0.263 NA
ATOM     25  C   UNL     1       9.789  -1.631  23.566  0.00  0.00    +0.115 A 
ENDBRANCH  19  20
ENDBRANCH   9  19
ENDBRANCH   4   6
ENDBRANCH   1   4
BRANCH   1  26
ATOM     26  C   UNL     1       2.816  -3.010  27.130  0.00  0.00    +0.045 C 
BRANCH  26  27
ATOM     27  C   UNL     1       2.470  -4.484  27.445  0.00  0.00    +0.082 C 
BRANCH  27  28
ATOM     28  C   UNL     1       3.689  -5.384  27.129  0.00  0.00    +0.217 C 
ATOM     29  N   UNL     1       4.510  -4.947  26.105  0.00  0.00    -0.306 N 
ATOM     30  H   UNL     1       4.379  -4.035  25.698  0.00  0.00    +0.149 HD
ATOM     31  O   UNL     1       3.901  -6.446  27.709  0.00  0.00    -0.275 OA
BRANCH  29  32
ATOM     32  C   UNL     1       5.765  -5.628  25.818  0.00  0.00    +0.132 C 
ATOM     33  C   UNL     1       6.090  -5.581  24.351  0.00  0.00    -0.022 A 
ATOM     34  C   UNL     1       7.176  -4.743  24.091  0.00  0.00    -0.040 A 
ATOM     35  C   UNL     1       7.590  -4.479  22.791  0.00  0.00    +0.004 A 
ATOM     36  C   UNL     1       6.933  -5.117  21.740  0.00  0.00    +0.000 A 
ATOM     37  C   UNL     1       5.883  -6.009  21.997  0.00  0.00    +0.000 A 
ATOM     38  C   UNL     1       7.776  -4.195  25.345  0.00  0.00    +0.069 C 
ATOM     39  C   UNL     1       5.450  -6.241  23.306  0.00  0.00    +0.006 A 
ATOM     40  C   UNL     1       6.993  -4.908  26.463  0.00  0.00    +0.143 C 
BRANCH  40  41
ATOM     41  O   UNL     1       7.838  -5.858  27.128  0.00  0.00    -0.389 OA
ATOM     42  H   UNL     1       7.387  -6.720  27.034  0.00  0.00    +0.210 HD
ENDBRANCH  40  41
ENDBRANCH  29  32
ENDBRANCH  27  28
BRANCH  27  43
ATOM     43  C   UNL     1       1.169  -4.981  26.776  0.00  0.00    +0.048 C 
BRANCH  43  44
ATOM     44  C   UNL     1       1.314  -5.660  25.432  0.00  0.00    -0.047 A 
ATOM     45  C   UNL     1       1.349  -7.055  25.314  0.00  0.00    +0.003 A 
ATOM     46  C   UNL     1       1.445  -7.670  24.064  0.00  0.00    +0.000 A 
ATOM     47  C   UNL     1       1.530  -6.896  22.911  0.00  0.00    +0.000 A 
ATOM     48  C   UNL     1       1.544  -5.509  23.013  0.00  0.00    +0.000 A 
ATOM     49  C   UNL     1       1.440  -4.894  24.264  0.00  0.00    +0.003 A 
ENDBRANCH  43  44
ENDBRANCH  27  43
ENDBRANCH  26  27
ENDBRANCH   1  26
TORSDOF 14
ENDMDL
MODEL 8
REMARK VINA RESULT:      -6.8      1.978      2.786
REMARK  Name = 
REMARK  17 active torsions:
REMARK  status: ('A' for Active; 'I' for Inactive)
REMARK    1  A    between atoms: C_1  and  C_2
REMARK    2  A    between atoms: C_2  and  C_3
REMARK    3  A    between atoms: C_2  and  C_4
REMARK    4  A    between atoms: C_2  and  N_5
REMARK    5  A    between atoms: C_6  and  C_8
REMARK    6  A    between atoms: N_11  and  C_44
REMARK    7  A    between atoms: N_14  and  C_15
REMARK    8  A    between atoms: C_15  and  C_16
REMARK    9  A    between atoms: C_16  and  C_18
REMARK   10  A    between atoms: C_16  and  O_43
REMARK   11  A    between atoms: C_18  and  C_19
REMARK   12  A    between atoms: C_19  and  C_21
REMARK   13  A    between atoms: C_19  and  C_28
REMARK   14  A    between atoms: C_21  and  C_22
REMARK   15  A    between atoms: N_30  and  C_31
REMARK   16  A    between atoms: C_33  and  O_42
REMARK   17  A    between atoms: C_44  and  C_45
REMARK                            x       y       z     vdW  Elec       q    Type
REMARK                         _______ _______ _______ _____ _____    ______ ____
ROOT
ATOM      1  C   UNL     1       8.793  -3.870  24.188  0.00  0.00    +0.129 C 
ENDROOT
BRANCH   1   2
ATOM      2  O   UNL     1       9.905  -4.529  24.807  0.00  0.00    -0.391 OA
ATOM      3  H   UNL     1       9.964  -5.422  24.422  0.00  0.00    +0.210 HD
ENDBRANCH   1   2
BRANCH   1   4
ATOM      4  C   UNL     1       9.159  -2.388  23.868  0.00  0.00    +0.116 C 
BRANCH   4   6
ATOM      5  C   UNL     1       7.676  -0.381  23.668  0.00  0.00    +0.157 C 
ATOM      6  N   UNL     1       8.414  -1.309  24.594  0.00  0.00    -0.287 NA
ATOM      7  C   UNL     1       9.368  -0.510  25.401  0.00  0.00    +0.100 C 
ATOM      8  C   UNL     1      10.249   0.487  24.599  0.00  0.00    +0.100 C 
ATOM      9  N   UNL     1       9.467   1.389  23.719  0.00  0.00    -0.295 NA
ATOM     10  C   UNL     1       8.590   0.562  22.850  0.00  0.00    +0.113 C 
BRANCH   5  13
ATOM     11  N   UNL     1       6.692   1.794  24.476  0.00  0.00    -0.309 N 
ATOM     12  H   UNL     1       7.420   2.174  23.876  0.00  0.00    +0.149 HD
ATOM     13  C   UNL     1       6.544   0.412  24.384  0.00  0.00    +0.232 C 
ATOM     14  O   UNL     1       5.547  -0.171  24.813  0.00  0.00    -0.274 OA
BRANCH  11  16
ATOM     15  C   UNL     1       5.151   2.364  26.356  0.00  0.00    +0.031 C 
ATOM     16  C   UNL     1       5.629   2.709  24.933  0.00  0.00    +0.026 C 
ATOM     17  C   UNL     1       6.176   4.151  24.975  0.00  0.00    +0.031 C 
ATOM     18  C   UNL     1       4.445   2.680  23.952  0.00  0.00    +0.031 C 
ENDBRANCH  11  16
ENDBRANCH   5  13
BRANCH   9  19
ATOM     19  C   UNL     1      10.376   2.232  22.923  0.00  0.00    +0.121 C 
BRANCH  19  20
ATOM     20  C   UNL     1      10.564   3.638  23.441  0.00  0.00    -0.015 A 
ATOM     21  C   UNL     1      11.783   4.316  23.350  0.00  0.00    +0.008 A 
ATOM     22  C   UNL     1      11.876   5.637  23.785  0.00  0.00    +0.020 A 
ATOM     23  C   UNL     1      10.740   6.243  24.297  0.00  0.00    +0.111 A 
ATOM     24  N   UNL     1       9.548   5.621  24.411  0.00  0.00    -0.263 NA
ATOM     25  C   UNL     1       9.489   4.338  23.984  0.00  0.00    +0.115 A 
ENDBRANCH  19  20
ENDBRANCH   9  19
ENDBRANCH   4   6
ENDBRANCH   1   4
BRANCH   1  26
ATOM     26  C   UNL     1       7.644  -4.024  25.212  0.00  0.00    +0.045 C 
BRANCH  26  27
ATOM     27  C   UNL     1       6.189  -4.159  24.703  0.00  0.00    +0.082 C 
BRANCH  27  28
ATOM     28  C   UNL     1       5.204  -3.942  25.878  0.00  0.00    +0.217 C 
ATOM     29  N   UNL     1       5.241  -4.898  26.877  0.00  0.00    -0.306 N 
ATOM     30  H   UNL     1       5.961  -5.603  26.885  0.00  0.00    +0.149 HD
ATOM     31  O   UNL     1       4.401  -3.014  25.911  0.00  0.00    -0.275 OA
BRANCH  29  32
ATOM     32  C   UNL     1       4.472  -4.723  28.101  0.00  0.00    +0.132 C 
ATOM     33  C   UNL     1       3.114  -5.360  27.990  0.00  0.00    -0.022 A 
ATOM     34  C   UNL     1       3.011  -6.495  28.796  0.00  0.00    -0.040 A 
ATOM     35  C   UNL     1       1.874  -7.293  28.779  0.00  0.00    +0.004 A 
ATOM     36  C   UNL     1       0.801  -6.906  27.976  0.00  0.00    +0.000 A 
ATOM     37  C   UNL     1       0.873  -5.734  27.212  0.00  0.00    +0.000 A 
ATOM     38  C   UNL     1       4.240  -6.714  29.617  0.00  0.00    +0.069 C 
ATOM     39  C   UNL     1       2.036  -4.956  27.209  0.00  0.00    +0.006 A 
ATOM     40  C   UNL     1       5.104  -5.476  29.315  0.00  0.00    +0.143 C 
BRANCH  40  41
ATOM     41  O   UNL     1       5.157  -4.619  30.464  0.00  0.00    -0.389 OA
ATOM     42  H   UNL     1       4.576  -3.862  30.253  0.00  0.00    +0.210 HD
ENDBRANCH  40  41
ENDBRANCH  29  32
ENDBRANCH  27  28
BRANCH  27  43
ATOM     43  C   UNL     1       5.913  -5.463  23.923  0.00  0.00    +0.048 C 
BRANCH  43  44
ATOM     44  C   UNL     1       4.482  -5.952  23.904  0.00  0.00    -0.047 A 
ATOM     45  C   UNL     1       4.099  -7.128  24.562  0.00  0.00    +0.003 A 
ATOM     46  C   UNL     1       2.767  -7.547  24.569  0.00  0.00    +0.000 A 
ATOM     47  C   UNL     1       1.800  -6.808  23.897  0.00  0.00    +0.000 A 
ATOM     48  C   UNL     1       2.170  -5.664  23.198  0.00  0.00    +0.000 A 
ATOM     49  C   UNL     1       3.501  -5.239  23.198  0.00  0.00    +0.003 A 
ENDBRANCH  43  44
ENDBRANCH  27  43
ENDBRANCH  26  27
ENDBRANCH   1  26
TORSDOF 14
ENDMDL
MODEL 9
REMARK VINA RESULT:      -6.7      2.201      3.808
REMARK  Name = 
REMARK  17 active torsions:
REMARK  status: ('A' for Active; 'I' for Inactive)
REMARK    1  A    between atoms: C_1  and  C_2
REMARK    2  A    between atoms: C_2  and  C_3
REMARK    3  A    between atoms: C_2  and  C_4
REMARK    4  A    between atoms: C_2  and  N_5
REMARK    5  A    between atoms: C_6  and  C_8
REMARK    6  A    between atoms: N_11  and  C_44
REMARK    7  A    between atoms: N_14  and  C_15
REMARK    8  A    between atoms: C_15  and  C_16
REMARK    9  A    between atoms: C_16  and  C_18
REMARK   10  A    between atoms: C_16  and  O_43
REMARK   11  A    between atoms: C_18  and  C_19
REMARK   12  A    between atoms: C_19  and  C_21
REMARK   13  A    between atoms: C_19  and  C_28
REMARK   14  A    between atoms: C_21  and  C_22
REMARK   15  A    between atoms: N_30  and  C_31
REMARK   16  A    between atoms: C_33  and  O_42
REMARK   17  A    between atoms: C_44  and  C_45
REMARK                            x       y       z     vdW  Elec       q    Type
REMARK                         _______ _______ _______ _____ _____    ______ ____
ROOT
ATOM      1  C   UNL     1       9.559  -0.844  22.587  0.00  0.00    +0.129 C 
ENDROOT
BRANCH   1   2
ATOM      2  O   UNL     1      10.239  -1.551  21.543  0.00  0.00    -0.391 OA
ATOM      3  H   UNL     1      11.133  -1.172  21.470  0.00  0.00    +0.210 HD
ENDBRANCH   1   2
BRANCH   1   4
ATOM      4  C   UNL     1      10.479   0.275  23.165  0.00  0.00    +0.116 C 
BRANCH   4   6
ATOM      5  C   UNL     1       9.615   2.390  24.189  0.00  0.00    +0.157 C 
ATOM      6  N   UNL     1      10.079   1.700  22.934  0.00  0.00    -0.287 NA
ATOM      7  C   UNL     1       8.983   1.750  21.936  0.00  0.00    +0.100 C 
ATOM      8  C   UNL     1       7.584   1.329  22.460  0.00  0.00    +0.100 C 
ATOM      9  N   UNL     1       7.170   2.054  23.687  0.00  0.00    -0.295 NA
ATOM     10  C   UNL     1       8.239   1.908  24.708  0.00  0.00    +0.113 C 
BRANCH   5  13
ATOM     11  N   UNL     1       8.559   4.651  24.542  0.00  0.00    -0.309 N 
ATOM     12  H   UNL     1       7.917   4.097  25.106  0.00  0.00    +0.149 HD
ATOM     13  C   UNL     1       9.664   3.942  24.078  0.00  0.00    +0.232 C 
ATOM     14  O   UNL     1      10.664   4.505  23.633  0.00  0.00    -0.274 OA
BRANCH  11  16
ATOM     15  C   UNL     1       7.291   6.578  25.498  0.00  0.00    +0.031 C 
ATOM     16  C   UNL     1       8.526   6.116  24.701  0.00  0.00    +0.026 C 
ATOM     17  C   UNL     1       9.771   6.575  25.488  0.00  0.00    +0.031 C 
ATOM     18  C   UNL     1       8.557   6.802  23.324  0.00  0.00    +0.031 C 
ENDBRANCH  11  16
ENDBRANCH   5  13
BRANCH   9  19
ATOM     19  C   UNL     1       5.881   1.530  24.174  0.00  0.00    +0.121 C 
BRANCH  19  20
ATOM     20  C   UNL     1       4.894   2.578  24.626  0.00  0.00    -0.015 A 
ATOM     21  C   UNL     1       4.978   3.201  25.875  0.00  0.00    +0.008 A 
ATOM     22  C   UNL     1       4.076   4.211  26.208  0.00  0.00    +0.020 A 
ATOM     23  C   UNL     1       3.116   4.570  25.276  0.00  0.00    +0.111 A 
ATOM     24  N   UNL     1       2.995   3.988  24.066  0.00  0.00    -0.263 NA
ATOM     25  C   UNL     1       3.882   3.009  23.772  0.00  0.00    +0.115 A 
ENDBRANCH  19  20
ENDBRANCH   9  19
ENDBRANCH   4   6
ENDBRANCH   1   4
BRANCH   1  26
ATOM     26  C   UNL     1       9.191  -1.943  23.612  0.00  0.00    +0.045 C 
BRANCH  26  27
ATOM     27  C   UNL     1       7.793  -1.926  24.273  0.00  0.00    +0.082 C 
BRANCH  27  28
ATOM     28  C   UNL     1       7.757  -2.938  25.443  0.00  0.00    +0.217 C 
ATOM     29  N   UNL     1       6.590  -2.959  26.185  0.00  0.00    -0.306 N 
ATOM     30  H   UNL     1       5.782  -2.439  25.883  0.00  0.00    +0.149 HD
ATOM     31  O   UNL     1       8.713  -3.650  25.737  0.00  0.00    -0.275 OA
BRANCH  29  32
ATOM     32  C   UNL     1       6.381  -3.970  27.212  0.00  0.00    +0.132 C 
ATOM     33  C   UNL     1       4.920  -4.131  27.533  0.00  0.00    -0.022 A 
ATOM     34  C   UNL     1       4.424  -5.352  27.074  0.00  0.00    -0.040 A 
ATOM     35  C   UNL     1       3.076  -5.671  27.181  0.00  0.00    +0.004 A 
ATOM     36  C   UNL     1       2.225  -4.764  27.813  0.00  0.00    +0.000 A 
ATOM     37  C   UNL     1       2.728  -3.564  28.332  0.00  0.00    +0.000 A 
ATOM     38  C   UNL     1       5.495  -6.204  26.473  0.00  0.00    +0.069 C 
ATOM     39  C   UNL     1       4.080  -3.236  28.189  0.00  0.00    +0.006 A 
ATOM     40  C   UNL     1       6.783  -5.401  26.730  0.00  0.00    +0.143 C 
BRANCH  40  41
ATOM     41  O   UNL     1       7.584  -6.057  27.723  0.00  0.00    -0.389 OA
ATOM     42  H   UNL     1       8.010  -6.806  27.264  0.00  0.00    +0.210 HD
ENDBRANCH  40  41
ENDBRANCH  29  32
ENDBRANCH  27  28
BRANCH  27  43
ATOM     43  C   UNL     1       6.625  -2.117  23.279  0.00  0.00    +0.048 C 
BRANCH  43  44
ATOM     44  C   UNL     1       6.272  -3.542  22.913  0.00  0.00    -0.047 A 
ATOM     45  C   UNL     1       5.053  -4.116  23.292  0.00  0.00    +0.003 A 
ATOM     46  C   UNL     1       4.723  -5.420  22.914  0.00  0.00    +0.000 A 
ATOM     47  C   UNL     1       5.621  -6.178  22.170  0.00  0.00    +0.000 A 
ATOM     48  C   UNL     1       6.857  -5.640  21.826  0.00  0.00    +0.000 A 
ATOM     49  C   UNL     1       7.183  -4.333  22.197  0.00  0.00    +0.003 A 
ENDBRANCH  43  44
ENDBRANCH  27  43
ENDBRANCH  26  27
ENDBRANCH   1  26
TORSDOF 14
ENDMDL
