MODEL 1
REMARK VINA RESULT:      -6.0      0.000      0.000
REMARK  Name = 
REMARK  23 active torsions:
REMARK  status: ('A' for Active; 'I' for Inactive)
REMARK    1  A    between atoms: C_1  and  C_2
REMARK    2  A    between atoms: C_2  and  C_4
REMARK    3  A    between atoms: C_2  and  N_27
REMARK    4  A    between atoms: C_4  and  O_5
REMARK    5  A    between atoms: O_5  and  C_6
REMARK    6  A    between atoms: C_6  and  P_7
REMARK    7  A    between atoms: P_7  and  O_9
REMARK    8  A    between atoms: P_7  and  O_18
REMARK    9  A    between atoms: O_9  and  C_10
REMARK   10  A    between atoms: C_10  and  O_11
REMARK   11  A    between atoms: O_11  and  C_12
REMARK   12  A    between atoms: C_12  and  O_14
REMARK   13  A    between atoms: O_14  and  C_15
REMARK   14  A    between atoms: C_15  and  C_16
REMARK   15  A    between atoms: C_15  and  C_17
REMARK   16  A    between atoms: O_18  and  C_19
REMARK   17  A    between atoms: C_19  and  O_20
REMARK   18  A    between atoms: O_20  and  C_21
REMARK   19  A    between atoms: C_21  and  O_23
REMARK   20  A    between atoms: O_23  and  C_24
REMARK   21  A    between atoms: C_24  and  C_25
REMARK   22  A    between atoms: C_24  and  C_26
REMARK   23  A    between atoms: C_31  and  N_36
REMARK                            x       y       z     vdW  Elec       q    Type
REMARK                         _______ _______ _______ _____ _____    ______ ____
ROOT
ATOM      1  P   UNL     1       9.228  -1.759  23.086  0.00  0.00    +0.363 P 
ATOM      2  O   UNL     1      10.645  -1.925  22.626  0.00  0.00    -0.256 OA
ENDROOT
BRANCH   1   3
ATOM      3  C   UNL     1       8.085  -3.016  22.491  0.00  0.00    +0.286 C 
BRANCH   3   4
ATOM      4  O   UNL     1       6.727  -2.536  22.449  0.00  0.00    -0.366 OA
BRANCH   4   5
ATOM      5  C   UNL     1       5.736  -3.561  22.356  0.00  0.00    +0.185 C 
BRANCH   5   7
ATOM      6  C   UNL     1       6.228  -5.971  21.670  0.00  0.00    +0.033 C 
ATOM      7  C   UNL     1       6.317  -4.926  22.786  0.00  0.00    +0.113 C 
BRANCH   7   8
ATOM      8  N   UNL     1       5.726  -5.462  24.008  0.00  0.00    -0.310 N 
ATOM      9  C   UNL     1       6.300  -5.428  25.260  0.00  0.00    +0.166 A 
ATOM     10  C   UNL     1       5.515  -6.267  26.030  0.00  0.00    +0.147 A 
ATOM     11  C   UNL     1       5.928  -6.482  27.355  0.00  0.00    +0.147 A 
ATOM     12  N   UNL     1       7.020  -5.822  27.806  0.00  0.00    -0.219 NA
ATOM     13  C   UNL     1       7.681  -5.020  26.943  0.00  0.00    +0.225 A 
ATOM     14  N   UNL     1       4.452  -6.761  25.304  0.00  0.00    -0.231 NA
ATOM     15  N   UNL     1       7.403  -4.767  25.646  0.00  0.00    -0.216 NA
ATOM     16  C   UNL     1       4.617  -6.268  24.093  0.00  0.00    +0.202 A 
BRANCH  11  17
ATOM     17  N   UNL     1       5.276  -7.346  28.220  0.00  0.00    -0.341 N 
ATOM     18  H   UNL     1       4.831  -8.119  27.746  0.00  0.00    +0.144 HD
ATOM     19  H   UNL     1       5.792  -7.536  29.072  0.00  0.00    +0.144 HD
ENDBRANCH  11  17
ENDBRANCH   7   8
ENDBRANCH   5   7
ENDBRANCH   4   5
ENDBRANCH   3   4
ENDBRANCH   1   3
BRANCH   1  20
ATOM     20  O   UNL     1       9.046  -1.685  24.680  0.00  0.00    -0.268 OA
BRANCH  20  21
ATOM     21  C   UNL     1       8.110  -0.792  25.234  0.00  0.00    +0.410 C 
BRANCH  21  22
ATOM     22  O   UNL     1       6.810  -1.367  25.290  0.00  0.00    -0.406 OA
BRANCH  22  23
ATOM     23  C   UNL     1       5.816  -0.468  25.079  0.00  0.00    +0.512 C 
ATOM     24  O   UNL     1       5.918   0.584  24.467  0.00  0.00    -0.203 OA
BRANCH  23  25
ATOM     25  O   UNL     1       4.672  -0.962  25.618  0.00  0.00    -0.431 OA
BRANCH  25  26
ATOM     26  C   UNL     1       4.750  -2.331  26.055  0.00  0.00    +0.174 C 
ATOM     27  C   UNL     1       3.488  -3.054  25.600  0.00  0.00    +0.052 C 
ATOM     28  C   UNL     1       4.865  -2.369  27.576  0.00  0.00    +0.052 C 
ENDBRANCH  25  26
ENDBRANCH  23  25
ENDBRANCH  22  23
ENDBRANCH  21  22
ENDBRANCH  20  21
ENDBRANCH   1  20
BRANCH   1  29
ATOM     29  O   UNL     1       8.559  -0.367  22.622  0.00  0.00    -0.268 OA
BRANCH  29  30
ATOM     30  C   UNL     1       9.153   0.296  21.530  0.00  0.00    +0.410 C 
BRANCH  30  31
ATOM     31  O   UNL     1      10.134   1.246  21.929  0.00  0.00    -0.406 OA
BRANCH  31  32
ATOM     32  C   UNL     1       9.771   2.040  22.962  0.00  0.00    +0.512 C 
ATOM     33  O   UNL     1      10.091   1.895  24.131  0.00  0.00    -0.203 OA
BRANCH  32  34
ATOM     34  O   UNL     1       8.941   2.996  22.476  0.00  0.00    -0.431 OA
BRANCH  34  35
ATOM     35  C   UNL     1       7.722   3.232  23.205  0.00  0.00    +0.174 C 
ATOM     36  C   UNL     1       6.593   3.224  22.178  0.00  0.00    +0.052 C 
ATOM     37  C   UNL     1       7.758   4.572  23.931  0.00  0.00    +0.052 C 
ENDBRANCH  34  35
ENDBRANCH  32  34
ENDBRANCH  31  32
ENDBRANCH  30  31
ENDBRANCH  29  30
ENDBRANCH   1  29
TORSDOF 18
ENDMDL
MODEL 2
REMARK VINA RESULT:      -5.9      1.455      1.911
REMARK  Name = 
REMARK  23 active torsions:
REMARK  status: ('A' for Active; 'I' for Inactive)
REMARK    1  A    between atoms: C_1  and  C_2
REMARK    2  A    between atoms: C_2  and  C_4
REMARK    3  A    between atoms: C_2  and  N_27
REMARK    4  A    between atoms: C_4  and  O_5
REMARK    5  A    between atoms: O_5  and  C_6
REMARK    6  A    between atoms: C_6  and  P_7
REMARK    7  A    between atoms: P_7  and  O_9
REMARK    8  A    between atoms: P_7  and  O_18
REMARK    9  A    between atoms: O_9  and  C_10
REMARK   10  A    between atoms: C_10  and  O_11
REMARK   11  A    between atoms: O_11  and  C_12
REMARK   12  A    between atoms: C_12  and  O_14
REMARK   13  A    between atoms: O_14  and  C_15
REMARK   14  A    between atoms: C_15  and  C_16
REMARK   15  A    between atoms: C_15  and  C_17
REMARK   16  A    between atoms: O_18  and  C_19
REMARK   17  A    between atoms: C_19  and  O_20
REMARK   18  A    between atoms: O_20  and  C_21
REMARK   19  A    between atoms: C_21  and  O_23
REMARK   20  A    between atoms: O_23  and  C_24
REMARK   21  A    between atoms: C_24  and  C_25
REMARK   22  A    between atoms: C_24  and  C_26
REMARK   23  A    between atoms: C_31  and  N_36
REMARK                            x       y       z     vdW  Elec       q    Type
REMARK                         _______ _______ _______ _____ _____    ______ ____
ROOT
ATOM      1  P   UNL     1       9.525  -1.452  23.512  0.00  0.00    +0.363 P 
ATOM      2  O   UNL     1      10.293  -2.579  22.890  0.00  0.00    -0.256 OA
ENDROOT
BRANCH   1   3
ATOM      3  C   UNL     1       7.840  -1.257  22.911  0.00  0.00    +0.286 C 
BRANCH   3   4
ATOM      4  O   UNL     1       7.003  -2.371  23.276  0.00  0.00    -0.366 OA
BRANCH   4   5
ATOM      5  C   UNL     1       6.767  -3.309  22.225  0.00  0.00    +0.185 C 
BRANCH   5   7
ATOM      6  C   UNL     1       7.053  -5.749  21.528  0.00  0.00    +0.033 C 
ATOM      7  C   UNL     1       7.129  -4.742  22.679  0.00  0.00    +0.113 C 
BRANCH   7   8
ATOM      8  N   UNL     1       6.336  -5.223  23.806  0.00  0.00    -0.310 N 
ATOM      9  C   UNL     1       6.752  -5.274  25.117  0.00  0.00    +0.166 A 
ATOM     10  C   UNL     1       5.790  -6.027  25.765  0.00  0.00    +0.147 A 
ATOM     11  C   UNL     1       6.011  -6.308  27.123  0.00  0.00    +0.147 A 
ATOM     12  N   UNL     1       7.107  -5.785  27.720  0.00  0.00    -0.219 NA
ATOM     13  C   UNL     1       7.955  -5.053  26.965  0.00  0.00    +0.225 A 
ATOM     14  N   UNL     1       4.775  -6.385  24.902  0.00  0.00    -0.231 NA
ATOM     15  N   UNL     1       7.868  -4.750  25.651  0.00  0.00    -0.216 NA
ATOM     16  C   UNL     1       5.140  -5.896  23.734  0.00  0.00    +0.202 A 
BRANCH  11  17
ATOM     17  N   UNL     1       5.164  -7.103  27.878  0.00  0.00    -0.341 N 
ATOM     18  H   UNL     1       5.043  -6.766  28.822  0.00  0.00    +0.144 HD
ATOM     19  H   UNL     1       4.345  -7.422  27.371  0.00  0.00    +0.144 HD
ENDBRANCH  11  17
ENDBRANCH   7   8
ENDBRANCH   5   7
ENDBRANCH   4   5
ENDBRANCH   3   4
ENDBRANCH   1   3
BRANCH   1  20
ATOM     20  O   UNL     1       9.441  -1.506  25.116  0.00  0.00    -0.268 OA
BRANCH  20  21
ATOM     21  C   UNL     1       8.987  -0.380  25.828  0.00  0.00    +0.410 C 
BRANCH  21  22
ATOM     22  O   UNL     1       8.220  -0.759  26.966  0.00  0.00    -0.406 OA
BRANCH  22  23
ATOM     23  C   UNL     1       6.894  -0.870  26.705  0.00  0.00    +0.512 C 
ATOM     24  O   UNL     1       6.276  -1.914  26.561  0.00  0.00    -0.203 OA
BRANCH  23  25
ATOM     25  O   UNL     1       6.356   0.377  26.684  0.00  0.00    -0.431 OA
BRANCH  25  26
ATOM     26  C   UNL     1       5.207   0.527  25.831  0.00  0.00    +0.174 C 
ATOM     27  C   UNL     1       5.647   1.219  24.547  0.00  0.00    +0.052 C 
ATOM     28  C   UNL     1       4.151   1.361  26.551  0.00  0.00    +0.052 C 
ENDBRANCH  25  26
ENDBRANCH  23  25
ENDBRANCH  22  23
ENDBRANCH  21  22
ENDBRANCH  20  21
ENDBRANCH   1  20
BRANCH   1  29
ATOM     29  O   UNL     1      10.198  -0.006  23.275  0.00  0.00    -0.268 OA
BRANCH  29  30
ATOM     30  C   UNL     1       9.918   0.637  22.053  0.00  0.00    +0.410 C 
BRANCH  30  31
ATOM     31  O   UNL     1       9.732   2.040  22.199  0.00  0.00    -0.406 OA
BRANCH  31  32
ATOM     32  C   UNL     1       8.446   2.455  22.128  0.00  0.00    +0.512 C 
ATOM     33  O   UNL     1       7.549   1.919  21.499  0.00  0.00    -0.203 OA
BRANCH  32  34
ATOM     34  O   UNL     1       8.345   3.609  22.835  0.00  0.00    -0.431 OA
BRANCH  34  35
ATOM     35  C   UNL     1       9.238   3.768  23.952  0.00  0.00    +0.174 C 
ATOM     36  C   UNL     1       8.403   3.554  25.211  0.00  0.00    +0.052 C 
ATOM     37  C   UNL     1       9.864   5.159  23.970  0.00  0.00    +0.052 C 
ENDBRANCH  34  35
ENDBRANCH  32  34
ENDBRANCH  31  32
ENDBRANCH  30  31
ENDBRANCH  29  30
ENDBRANCH   1  29
TORSDOF 18
ENDMDL
MODEL 3
REMARK VINA RESULT:      -5.9      3.733      7.973
REMARK  Name = 
REMARK  23 active torsions:
REMARK  status: ('A' for Active; 'I' for Inactive)
REMARK    1  A    between atoms: C_1  and  C_2
REMARK    2  A    between atoms: C_2  and  C_4
REMARK    3  A    between atoms: C_2  and  N_27
REMARK    4  A    between atoms: C_4  and  O_5
REMARK    5  A    between atoms: O_5  and  C_6
REMARK    6  A    between atoms: C_6  and  P_7
REMARK    7  A    between atoms: P_7  and  O_9
REMARK    8  A    between atoms: P_7  and  O_18
REMARK    9  A    between atoms: O_9  and  C_10
REMARK   10  A    between atoms: C_10  and  O_11
REMARK   11  A    between atoms: O_11  and  C_12
REMARK   12  A    between atoms: C_12  and  O_14
REMARK   13  A    between atoms: O_14  and  C_15
REMARK   14  A    between atoms: C_15  and  C_16
REMARK   15  A    between atoms: C_15  and  C_17
REMARK   16  A    between atoms: O_18  and  C_19
REMARK   17  A    between atoms: C_19  and  O_20
REMARK   18  A    between atoms: O_20  and  C_21
REMARK   19  A    between atoms: C_21  and  O_23
REMARK   20  A    between atoms: O_23  and  C_24
REMARK   21  A    between atoms: C_24  and  C_25
REMARK   22  A    between atoms: C_24  and  C_26
REMARK   23  A    between atoms: C_31  and  N_36
REMARK                            x       y       z     vdW  Elec       q    Type
REMARK                         _______ _______ _______ _____ _____    ______ ____
ROOT
ATOM      1  P   UNL     1       7.092  -5.110  26.930  0.00  0.00    +0.363 P 
ATOM      2  O   UNL     1       7.299  -6.078  28.057  0.00  0.00    -0.256 OA
ENDROOT
BRANCH   1   3
ATOM      3  C   UNL     1       5.918  -3.789  27.269  0.00  0.00    +0.286 C 
BRANCH   3   4
ATOM      4  O   UNL     1       6.501  -2.486  27.083  0.00  0.00    -0.366 OA
BRANCH   4   5
ATOM      5  C   UNL     1       6.109  -1.824  25.878  0.00  0.00    +0.185 C 
BRANCH   5   7
ATOM      6  C   UNL     1       5.315   0.569  26.280  0.00  0.00    +0.033 C 
ATOM      7  C   UNL     1       6.501  -0.331  25.921  0.00  0.00    +0.113 C 
BRANCH   7   8
ATOM      8  N   UNL     1       7.130   0.151  24.695  0.00  0.00    -0.310 N 
ATOM      9  C   UNL     1       8.478   0.366  24.514  0.00  0.00    +0.166 A 
ATOM     10  C   UNL     1       8.569   1.055  23.318  0.00  0.00    +0.147 A 
ATOM     11  C   UNL     1       9.849   1.477  22.924  0.00  0.00    +0.147 A 
ATOM     12  N   UNL     1      10.906   1.142  23.699  0.00  0.00    -0.219 NA
ATOM     13  C   UNL     1      10.668   0.450  24.835  0.00  0.00    +0.225 A 
ATOM     14  N   UNL     1       7.326   1.213  22.740  0.00  0.00    -0.231 NA
ATOM     15  N   UNL     1       9.487   0.026  25.333  0.00  0.00    -0.216 NA
ATOM     16  C   UNL     1       6.486   0.671  23.598  0.00  0.00    +0.202 A 
BRANCH  11  17
ATOM     17  N   UNL     1      10.079   2.231  21.785  0.00  0.00    -0.341 N 
ATOM     18  H   UNL     1       9.967   3.222  21.937  0.00  0.00    +0.144 HD
ATOM     19  H   UNL     1      10.874   1.913  21.241  0.00  0.00    +0.144 HD
ENDBRANCH  11  17
ENDBRANCH   7   8
ENDBRANCH   5   7
ENDBRANCH   4   5
ENDBRANCH   3   4
ENDBRANCH   1   3
BRANCH   1  20
ATOM     20  O   UNL     1       8.435  -4.410  26.394  0.00  0.00    -0.268 OA
BRANCH  20  21
ATOM     21  C   UNL     1       8.991  -4.816  25.167  0.00  0.00    +0.410 C 
BRANCH  21  22
ATOM     22  O   UNL     1       9.688  -3.750  24.533  0.00  0.00    -0.406 OA
BRANCH  22  23
ATOM     23  C   UNL     1       8.987  -3.177  23.522  0.00  0.00    +0.512 C 
ATOM     24  O   UNL     1       9.394  -2.303  22.772  0.00  0.00    -0.203 OA
BRANCH  23  25
ATOM     25  O   UNL     1       7.771  -3.777  23.453  0.00  0.00    -0.431 OA
BRANCH  25  26
ATOM     26  C   UNL     1       7.170  -3.777  22.145  0.00  0.00    +0.174 C 
ATOM     27  C   UNL     1       5.860  -3.001  22.218  0.00  0.00    +0.052 C 
ATOM     28  C   UNL     1       6.912  -5.217  21.710  0.00  0.00    +0.052 C 
ENDBRANCH  25  26
ENDBRANCH  23  25
ENDBRANCH  22  23
ENDBRANCH  21  22
ENDBRANCH  20  21
ENDBRANCH   1  20
BRANCH   1  29
ATOM     29  O   UNL     1       6.531  -5.800  25.584  0.00  0.00    -0.268 OA
BRANCH  29  30
ATOM     30  C   UNL     1       5.162  -6.129  25.557  0.00  0.00    +0.410 C 
BRANCH  30  31
ATOM     31  O   UNL     1       4.792  -6.851  24.389  0.00  0.00    -0.406 OA
BRANCH  31  32
ATOM     32  C   UNL     1       3.694  -6.383  23.752  0.00  0.00    +0.512 C 
ATOM     33  O   UNL     1       3.682  -5.705  22.737  0.00  0.00    -0.203 OA
BRANCH  32  34
ATOM     34  O   UNL     1       2.608  -6.753  24.476  0.00  0.00    -0.431 OA
BRANCH  34  35
ATOM     35  C   UNL     1       2.221  -8.137  24.409  0.00  0.00    +0.174 C 
ATOM     36  C   UNL     1       1.348  -8.285  23.165  0.00  0.00    +0.052 C 
ATOM     37  C   UNL     1       1.439  -8.558  25.648  0.00  0.00    +0.052 C 
ENDBRANCH  34  35
ENDBRANCH  32  34
ENDBRANCH  31  32
ENDBRANCH  30  31
ENDBRANCH  29  30
ENDBRANCH   1  29
TORSDOF 18
ENDMDL
MODEL 4
REMARK VINA RESULT:      -5.9      1.717      3.914
REMARK  Name = 
REMARK  23 active torsions:
REMARK  status: ('A' for Active; 'I' for Inactive)
REMARK    1  A    between atoms: C_1  and  C_2
REMARK    2  A    between atoms: C_2  and  C_4
REMARK    3  A    between atoms: C_2  and  N_27
REMARK    4  A    between atoms: C_4  and  O_5
REMARK    5  A    between atoms: O_5  and  C_6
REMARK    6  A    between atoms: C_6  and  P_7
REMARK    7  A    between atoms: P_7  and  O_9
REMARK    8  A    between atoms: P_7  and  O_18
REMARK    9  A    between atoms: O_9  and  C_10
REMARK   10  A    between atoms: C_10  and  O_11
REMARK   11  A    between atoms: O_11  and  C_12
REMARK   12  A    between atoms: C_12  and  O_14
REMARK   13  A    between atoms: O_14  and  C_15
REMARK   14  A    between atoms: C_15  and  C_16
REMARK   15  A    between atoms: C_15  and  C_17
REMARK   16  A    between atoms: O_18  and  C_19
REMARK   17  A    between atoms: C_19  and  O_20
REMARK   18  A    between atoms: O_20  and  C_21
REMARK   19  A    between atoms: C_21  and  O_23
REMARK   20  A    between atoms: O_23  and  C_24
REMARK   21  A    between atoms: C_24  and  C_25
REMARK   22  A    between atoms: C_24  and  C_26
REMARK   23  A    between atoms: C_31  and  N_36
REMARK                            x       y       z     vdW  Elec       q    Type
REMARK                         _______ _______ _______ _____ _____    ______ ____
ROOT
ATOM      1  P   UNL     1       6.145  -0.817  24.974  0.00  0.00    +0.363 P 
ATOM      2  O   UNL     1       5.845  -1.961  25.896  0.00  0.00    -0.256 OA
ENDROOT
BRANCH   1   3
ATOM      3  C   UNL     1       6.410  -1.277  23.254  0.00  0.00    +0.286 C 
BRANCH   3   4
ATOM      4  O   UNL     1       7.124  -2.522  23.132  0.00  0.00    -0.366 OA
BRANCH   4   5
ATOM      5  C   UNL     1       6.519  -3.472  22.252  0.00  0.00    +0.185 C 
BRANCH   5   7
ATOM      6  C   UNL     1       6.706  -5.914  21.530  0.00  0.00    +0.033 C 
ATOM      7  C   UNL     1       6.871  -4.915  22.679  0.00  0.00    +0.113 C 
BRANCH   7   8
ATOM      8  N   UNL     1       6.132  -5.383  23.846  0.00  0.00    -0.310 N 
ATOM      9  C   UNL     1       6.593  -5.381  25.144  0.00  0.00    +0.166 A 
ATOM     10  C   UNL     1       5.677  -6.142  25.847  0.00  0.00    +0.147 A 
ATOM     11  C   UNL     1       5.952  -6.373  27.204  0.00  0.00    +0.147 A 
ATOM     12  N   UNL     1       7.052  -5.800  27.747  0.00  0.00    -0.219 NA
ATOM     13  C   UNL     1       7.851  -5.067  26.941  0.00  0.00    +0.225 A 
ATOM     14  N   UNL     1       4.644  -6.555  25.031  0.00  0.00    -0.231 NA
ATOM     15  N   UNL     1       7.711  -4.809  25.623  0.00  0.00    -0.216 NA
ATOM     16  C   UNL     1       4.955  -6.093  23.837  0.00  0.00    +0.202 A 
BRANCH  11  17
ATOM     17  N   UNL     1       5.156  -7.168  28.012  0.00  0.00    -0.341 N 
ATOM     18  H   UNL     1       4.808  -6.683  28.826  0.00  0.00    +0.144 HD
ATOM     19  H   UNL     1       4.516  -7.762  27.495  0.00  0.00    +0.144 HD
ENDBRANCH  11  17
ENDBRANCH   7   8
ENDBRANCH   5   7
ENDBRANCH   4   5
ENDBRANCH   3   4
ENDBRANCH   1   3
BRANCH   1  20
ATOM     20  O   UNL     1       5.041   0.350  24.976  0.00  0.00    -0.268 OA
BRANCH  20  21
ATOM     21  C   UNL     1       5.449   1.696  25.041  0.00  0.00    +0.410 C 
BRANCH  21  22
ATOM     22  O   UNL     1       5.148   2.390  23.837  0.00  0.00    -0.406 OA
BRANCH  22  23
ATOM     23  C   UNL     1       6.238   2.615  23.061  0.00  0.00    +0.512 C 
ATOM     24  O   UNL     1       6.537   2.003  22.048  0.00  0.00    -0.203 OA
BRANCH  23  25
ATOM     25  O   UNL     1       6.916   3.674  23.574  0.00  0.00    -0.431 OA
BRANCH  25  26
ATOM     26  C   UNL     1       6.372   4.964  23.235  0.00  0.00    +0.174 C 
ATOM     27  C   UNL     1       7.281   5.612  22.198  0.00  0.00    +0.052 C 
ATOM     28  C   UNL     1       6.300   5.825  24.493  0.00  0.00    +0.052 C 
ENDBRANCH  25  26
ENDBRANCH  23  25
ENDBRANCH  22  23
ENDBRANCH  21  22
ENDBRANCH  20  21
ENDBRANCH   1  20
BRANCH   1  29
ATOM     29  O   UNL     1       7.476   0.001  25.373  0.00  0.00    -0.268 OA
BRANCH  29  30
ATOM     30  C   UNL     1       8.555  -0.745  25.887  0.00  0.00    +0.410 C 
BRANCH  30  31
ATOM     31  O   UNL     1       9.803  -0.377  25.313  0.00  0.00    -0.406 OA
BRANCH  31  32
ATOM     32  C   UNL     1      10.131  -1.046  24.184  0.00  0.00    +0.512 C 
ATOM     33  O   UNL     1      10.066  -2.253  24.016  0.00  0.00    -0.203 OA
BRANCH  32  34
ATOM     34  O   UNL     1      10.601  -0.142  23.289  0.00  0.00    -0.431 OA
BRANCH  34  35
ATOM     35  C   UNL     1       9.623   0.631  22.569  0.00  0.00    +0.174 C 
ATOM     36  C   UNL     1       9.357  -0.112  21.263  0.00  0.00    +0.052 C 
ATOM     37  C   UNL     1      10.131   2.038  22.276  0.00  0.00    +0.052 C 
ENDBRANCH  34  35
ENDBRANCH  32  34
ENDBRANCH  31  32
ENDBRANCH  30  31
ENDBRANCH  29  30
ENDBRANCH   1  29
TORSDOF 18
ENDMDL
MODEL 5
REMARK VINA RESULT:      -5.8      1.888      4.320
REMARK  Name = 
REMARK  23 active torsions:
REMARK  status: ('A' for Active; 'I' for Inactive)
REMARK    1  A    between atoms: C_1  and  C_2
REMARK    2  A    between atoms: C_2  and  C_4
REMARK    3  A    between atoms: C_2  and  N_27
REMARK    4  A    between atoms: C_4  and  O_5
REMARK    5  A    between atoms: O_5  and  C_6
REMARK    6  A    between atoms: C_6  and  P_7
REMARK    7  A    between atoms: P_7  and  O_9
REMARK    8  A    between atoms: P_7  and  O_18
REMARK    9  A    between atoms: O_9  and  C_10
REMARK   10  A    between atoms: C_10  and  O_11
REMARK   11  A    between atoms: O_11  and  C_12
REMARK   12  A    between atoms: C_12  and  O_14
REMARK   13  A    between atoms: O_14  and  C_15
REMARK   14  A    between atoms: C_15  and  C_16
REMARK   15  A    between atoms: C_15  and  C_17
REMARK   16  A    between atoms: O_18  and  C_19
REMARK   17  A    between atoms: C_19  and  O_20
REMARK   18  A    between atoms: O_20  and  C_21
REMARK   19  A    between atoms: C_21  and  O_23
REMARK   20  A    between atoms: O_23  and  C_24
REMARK   21  A    between atoms: C_24  and  C_25
REMARK   22  A    between atoms: C_24  and  C_26
REMARK   23  A    between atoms: C_31  and  N_36
REMARK                            x       y       z     vdW  Elec       q    Type
REMARK                         _______ _______ _______ _____ _____    ______ ____
ROOT
ATOM      1  P   UNL     1       6.152  -1.020  25.870  0.00  0.00    +0.363 P 
ATOM      2  O   UNL     1       6.012  -1.107  24.379  0.00  0.00    -0.256 OA
ENDROOT
BRANCH   1   3
ATOM      3  C   UNL     1       4.762  -1.680  26.803  0.00  0.00    +0.286 C 
BRANCH   3   4
ATOM      4  O   UNL     1       4.019  -2.656  26.049  0.00  0.00    -0.366 OA
BRANCH   4   5
ATOM      5  C   UNL     1       3.511  -3.745  26.822  0.00  0.00    +0.185 C 
BRANCH   5   7
ATOM      6  C   UNL     1       3.554  -6.282  27.108  0.00  0.00    +0.033 C 
ATOM      7  C   UNL     1       4.170  -5.075  26.394  0.00  0.00    +0.113 C 
BRANCH   7   8
ATOM      8  N   UNL     1       5.620  -5.096  26.558  0.00  0.00    -0.310 N 
ATOM      9  C   UNL     1       6.545  -4.935  25.551  0.00  0.00    +0.166 A 
ATOM     10  C   UNL     1       7.755  -5.286  26.122  0.00  0.00    +0.147 A 
ATOM     11  C   UNL     1       8.878  -5.289  25.279  0.00  0.00    +0.147 A 
ATOM     12  N   UNL     1       8.720  -4.900  23.992  0.00  0.00    -0.219 NA
ATOM     13  C   UNL     1       7.479  -4.568  23.575  0.00  0.00    +0.225 A 
ATOM     14  N   UNL     1       7.603  -5.598  27.457  0.00  0.00    -0.231 NA
ATOM     15  N   UNL     1       6.326  -4.564  24.278  0.00  0.00    -0.216 NA
ATOM     16  C   UNL     1       6.309  -5.485  27.682  0.00  0.00    +0.202 A 
BRANCH  11  17
ATOM     17  N   UNL     1      10.138  -5.680  25.700  0.00  0.00    -0.341 N 
ATOM     18  H   UNL     1      10.413  -6.583  25.340  0.00  0.00    +0.144 HD
ATOM     19  H   UNL     1      10.821  -4.930  25.692  0.00  0.00    +0.144 HD
ENDBRANCH  11  17
ENDBRANCH   7   8
ENDBRANCH   5   7
ENDBRANCH   4   5
ENDBRANCH   3   4
ENDBRANCH   1   3
BRANCH   1  20
ATOM     20  O   UNL     1       7.476  -1.715  26.458  0.00  0.00    -0.268 OA
BRANCH  20  21
ATOM     21  C   UNL     1       8.678  -1.656  25.729  0.00  0.00    +0.410 C 
BRANCH  21  22
ATOM     22  O   UNL     1       9.397  -0.459  26.005  0.00  0.00    -0.406 OA
BRANCH  22  23
ATOM     23  C   UNL     1      10.038   0.044  24.920  0.00  0.00    +0.512 C 
ATOM     24  O   UNL     1      11.171   0.498  24.903  0.00  0.00    -0.203 OA
BRANCH  23  25
ATOM     25  O   UNL     1       9.222  -0.091  23.843  0.00  0.00    -0.431 OA
BRANCH  25  26
ATOM     26  C   UNL     1       9.900  -0.146  22.574  0.00  0.00    +0.174 C 
ATOM     27  C   UNL     1       9.517   1.090  21.770  0.00  0.00    +0.052 C 
ATOM     28  C   UNL     1       9.479  -1.413  21.834  0.00  0.00    +0.052 C 
ENDBRANCH  25  26
ENDBRANCH  23  25
ENDBRANCH  22  23
ENDBRANCH  21  22
ENDBRANCH  20  21
ENDBRANCH   1  20
BRANCH   1  29
ATOM     29  O   UNL     1       6.313   0.489  26.415  0.00  0.00    -0.268 OA
BRANCH  29  30
ATOM     30  C   UNL     1       6.498   1.500  25.451  0.00  0.00    +0.410 C 
BRANCH  30  31
ATOM     31  O   UNL     1       7.412   2.504  25.876  0.00  0.00    -0.406 OA
BRANCH  31  32
ATOM     32  C   UNL     1       7.998   3.202  24.876  0.00  0.00    +0.512 C 
ATOM     33  O   UNL     1       9.192   3.238  24.624  0.00  0.00    -0.203 OA
BRANCH  32  34
ATOM     34  O   UNL     1       7.028   3.902  24.236  0.00  0.00    -0.431 OA
BRANCH  34  35
ATOM     35  C   UNL     1       7.001   3.814  22.800  0.00  0.00    +0.174 C 
ATOM     36  C   UNL     1       7.245   5.226  22.273  0.00  0.00    +0.052 C 
ATOM     37  C   UNL     1       5.657   3.295  22.299  0.00  0.00    +0.052 C 
ENDBRANCH  34  35
ENDBRANCH  32  34
ENDBRANCH  31  32
ENDBRANCH  30  31
ENDBRANCH  29  30
ENDBRANCH   1  29
TORSDOF 18
ENDMDL
MODEL 6
REMARK VINA RESULT:      -5.8      4.248      8.278
REMARK  Name = 
REMARK  23 active torsions:
REMARK  status: ('A' for Active; 'I' for Inactive)
REMARK    1  A    between atoms: C_1  and  C_2
REMARK    2  A    between atoms: C_2  and  C_4
REMARK    3  A    between atoms: C_2  and  N_27
REMARK    4  A    between atoms: C_4  and  O_5
REMARK    5  A    between atoms: O_5  and  C_6
REMARK    6  A    between atoms: C_6  and  P_7
REMARK    7  A    between atoms: P_7  and  O_9
REMARK    8  A    between atoms: P_7  and  O_18
REMARK    9  A    between atoms: O_9  and  C_10
REMARK   10  A    between atoms: C_10  and  O_11
REMARK   11  A    between atoms: O_11  and  C_12
REMARK   12  A    between atoms: C_12  and  O_14
REMARK   13  A    between atoms: O_14  and  C_15
REMARK   14  A    between atoms: C_15  and  C_16
REMARK   15  A    between atoms: C_15  and  C_17
REMARK   16  A    between atoms: O_18  and  C_19
REMARK   17  A    between atoms: C_19  and  O_20
REMARK   18  A    between atoms: O_20  and  C_21
REMARK   19  A    between atoms: C_21  and  O_23
REMARK   20  A    between atoms: O_23  and  C_24
REMARK   21  A    between atoms: C_24  and  C_25
REMARK   22  A    between atoms: C_24  and  C_26
REMARK   23  A    between atoms: C_31  and  N_36
REMARK                            x       y       z     vdW  Elec       q    Type
REMARK                         _______ _______ _______ _____ _____    ______ ____
ROOT
ATOM      1  P   UNL     1       8.543  -4.740  25.436  0.00  0.00    +0.363 P 
ATOM      2  O   UNL     1       9.890  -5.275  25.051  0.00  0.00    -0.256 OA
ENDROOT
BRANCH   1   3
ATOM      3  C   UNL     1       8.576  -3.210  26.383  0.00  0.00    +0.286 C 
BRANCH   3   4
ATOM      4  O   UNL     1       8.216  -2.069  25.580  0.00  0.00    -0.366 OA
BRANCH   4   5
ATOM      5  C   UNL     1       9.265  -1.572  24.748  0.00  0.00    +0.185 C 
BRANCH   5   7
ATOM      6  C   UNL     1       8.805  -1.642  22.237  0.00  0.00    +0.033 C 
ATOM      7  C   UNL     1       8.686  -0.824  23.526  0.00  0.00    +0.113 C 
BRANCH   7   8
ATOM      8  N   UNL     1       9.258   0.503  23.320  0.00  0.00    -0.310 N 
ATOM      9  C   UNL     1       8.926   1.639  24.024  0.00  0.00    +0.166 A 
ATOM     10  C   UNL     1       9.513   2.675  23.319  0.00  0.00    +0.147 A 
ATOM     11  C   UNL     1       9.263   3.978  23.781  0.00  0.00    +0.147 A 
ATOM     12  N   UNL     1       8.522   4.134  24.902  0.00  0.00    -0.219 NA
ATOM     13  C   UNL     1       8.025   3.027  25.497  0.00  0.00    +0.225 A 
ATOM     14  N   UNL     1      10.237   2.200  22.246  0.00  0.00    -0.231 NA
ATOM     15  N   UNL     1       8.164   1.736  25.125  0.00  0.00    -0.216 NA
ATOM     16  C   UNL     1      10.053   0.895  22.270  0.00  0.00    +0.202 A 
BRANCH  11  17
ATOM     17  N   UNL     1       9.733   5.111  23.137  0.00  0.00    -0.341 N 
ATOM     18  H   UNL     1      10.304   4.900  22.332  0.00  0.00    +0.144 HD
ATOM     19  H   UNL     1       9.042   5.850  23.059  0.00  0.00    +0.144 HD
ENDBRANCH  11  17
ENDBRANCH   7   8
ENDBRANCH   5   7
ENDBRANCH   4   5
ENDBRANCH   3   4
ENDBRANCH   1   3
BRANCH   1  20
ATOM     20  O   UNL     1       7.541  -4.501  24.204  0.00  0.00    -0.268 OA
BRANCH  20  21
ATOM     21  C   UNL     1       7.561  -5.383  23.107  0.00  0.00    +0.410 C 
BRANCH  21  22
ATOM     22  O   UNL     1       6.296  -6.005  22.915  0.00  0.00    -0.406 OA
BRANCH  22  23
ATOM     23  C   UNL     1       5.598  -5.488  21.873  0.00  0.00    +0.512 C 
ATOM     24  O   UNL     1       5.843  -5.659  20.689  0.00  0.00    -0.203 OA
BRANCH  23  25
ATOM     25  O   UNL     1       4.545  -4.789  22.369  0.00  0.00    -0.431 OA
BRANCH  25  26
ATOM     26  C   UNL     1       3.913  -5.380  23.520  0.00  0.00    +0.174 C 
ATOM     27  C   UNL     1       2.529  -5.869  23.111  0.00  0.00    +0.052 C 
ATOM     28  C   UNL     1       3.803  -4.335  24.626  0.00  0.00    +0.052 C 
ENDBRANCH  25  26
ENDBRANCH  23  25
ENDBRANCH  22  23
ENDBRANCH  21  22
ENDBRANCH  20  21
ENDBRANCH   1  20
BRANCH   1  29
ATOM     29  O   UNL     1       7.687  -5.753  26.353  0.00  0.00    -0.268 OA
BRANCH  29  30
ATOM     30  C   UNL     1       6.600  -5.208  27.066  0.00  0.00    +0.410 C 
BRANCH  30  31
ATOM     31  O   UNL     1       6.679  -5.454  28.464  0.00  0.00    -0.406 OA
BRANCH  31  32
ATOM     32  C   UNL     1       6.165  -6.640  28.865  0.00  0.00    +0.512 C 
ATOM     33  O   UNL     1       6.768  -7.528  29.447  0.00  0.00    -0.203 OA
BRANCH  32  34
ATOM     34  O   UNL     1       4.874  -6.691  28.453  0.00  0.00    -0.431 OA
BRANCH  34  35
ATOM     35  C   UNL     1       3.874  -6.245  29.388  0.00  0.00    +0.174 C 
ATOM     36  C   UNL     1       2.963  -7.440  29.654  0.00  0.00    +0.052 C 
ATOM     37  C   UNL     1       3.062  -5.084  28.824  0.00  0.00    +0.052 C 
ENDBRANCH  34  35
ENDBRANCH  32  34
ENDBRANCH  31  32
ENDBRANCH  30  31
ENDBRANCH  29  30
ENDBRANCH   1  29
TORSDOF 18
ENDMDL
MODEL 7
REMARK VINA RESULT:      -5.6      4.431      8.456
REMARK  Name = 
REMARK  23 active torsions:
REMARK  status: ('A' for Active; 'I' for Inactive)
REMARK    1  A    between atoms: C_1  and  C_2
REMARK    2  A    between atoms: C_2  and  C_4
REMARK    3  A    between atoms: C_2  and  N_27
REMARK    4  A    between atoms: C_4  and  O_5
REMARK    5  A    between atoms: O_5  and  C_6
REMARK    6  A    between atoms: C_6  and  P_7
REMARK    7  A    between atoms: P_7  and  O_9
REMARK    8  A    between atoms: P_7  and  O_18
REMARK    9  A    between atoms: O_9  and  C_10
REMARK   10  A    between atoms: C_10  and  O_11
REMARK   11  A    between atoms: O_11  and  C_12
REMARK   12  A    between atoms: C_12  and  O_14
REMARK   13  A    between atoms: O_14  and  C_15
REMARK   14  A    between atoms: C_15  and  C_16
REMARK   15  A    between atoms: C_15  and  C_17
REMARK   16  A    between atoms: O_18  and  C_19
REMARK   17  A    between atoms: C_19  and  O_20
REMARK   18  A    between atoms: O_20  and  C_21
REMARK   19  A    between atoms: C_21  and  O_23
REMARK   20  A    between atoms: O_23  and  C_24
REMARK   21  A    between atoms: C_24  and  C_25
REMARK   22  A    between atoms: C_24  and  C_26
REMARK   23  A    between atoms: C_31  and  N_36
REMARK                            x       y       z     vdW  Elec       q    Type
REMARK                         _______ _______ _______ _____ _____    ______ ____
ROOT
ATOM      1  P   UNL     1       8.521  -2.349  23.038  0.00  0.00    +0.363 P 
ATOM      2  O   UNL     1       9.556  -1.640  22.217  0.00  0.00    -0.256 OA
ENDROOT
BRANCH   1   3
ATOM      3  C   UNL     1       7.372  -1.271  23.908  0.00  0.00    +0.286 C 
BRANCH   3   4
ATOM      4  O   UNL     1       7.036  -0.102  23.135  0.00  0.00    -0.366 OA
BRANCH   4   5
ATOM      5  C   UNL     1       7.308   1.140  23.786  0.00  0.00    +0.185 C 
BRANCH   5   7
ATOM      6  C   UNL     1       8.127   1.556  21.403  0.00  0.00    +0.033 C 
ATOM      7  C   UNL     1       7.887   2.167  22.787  0.00  0.00    +0.113 C 
BRANCH   7   8
ATOM      8  N   UNL     1       9.105   2.822  23.252  0.00  0.00    -0.310 N 
ATOM      9  C   UNL     1       9.239   4.164  23.533  0.00  0.00    +0.166 A 
ATOM     10  C   UNL     1      10.600   4.361  23.678  0.00  0.00    +0.147 A 
ATOM     11  C   UNL     1      11.031   5.680  23.896  0.00  0.00    +0.147 A 
ATOM     12  N   UNL     1      10.098   6.654  24.004  0.00  0.00    -0.219 NA
ATOM     13  C   UNL     1       8.799   6.311  23.856  0.00  0.00    +0.225 A 
ATOM     14  N   UNL     1      11.291   3.174  23.552  0.00  0.00    -0.231 NA
ATOM     15  N   UNL     1       8.272   5.093  23.607  0.00  0.00    -0.216 NA
ATOM     16  C   UNL     1      10.365   2.275  23.285  0.00  0.00    +0.202 A 
BRANCH  11  17
ATOM     17  N   UNL     1      12.367   6.032  23.995  0.00  0.00    -0.341 N 
ATOM     18  H   UNL     1      12.552   6.674  24.752  0.00  0.00    +0.144 HD
ATOM     19  H   UNL     1      13.004   5.255  23.855  0.00  0.00    +0.144 HD
ENDBRANCH  11  17
ENDBRANCH   7   8
ENDBRANCH   5   7
ENDBRANCH   4   5
ENDBRANCH   3   4
ENDBRANCH   1   3
BRANCH   1  20
ATOM     20  O   UNL     1       7.633  -3.410  22.222  0.00  0.00    -0.268 OA
BRANCH  20  21
ATOM     21  C   UNL     1       6.265  -3.157  22.008  0.00  0.00    +0.410 C 
BRANCH  21  22
ATOM     22  O   UNL     1       5.617  -4.269  21.402  0.00  0.00    -0.406 OA
BRANCH  22  23
ATOM     23  C   UNL     1       5.802  -5.431  22.078  0.00  0.00    +0.512 C 
ATOM     24  O   UNL     1       6.490  -6.372  21.714  0.00  0.00    -0.203 OA
BRANCH  23  25
ATOM     25  O   UNL     1       5.132  -5.350  23.256  0.00  0.00    -0.431 OA
BRANCH  25  26
ATOM     26  C   UNL     1       3.859  -6.023  23.277  0.00  0.00    +0.174 C 
ATOM     27  C   UNL     1       2.773  -4.990  23.552  0.00  0.00    +0.052 C 
ATOM     28  C   UNL     1       3.871  -7.086  24.372  0.00  0.00    +0.052 C 
ENDBRANCH  25  26
ENDBRANCH  23  25
ENDBRANCH  22  23
ENDBRANCH  21  22
ENDBRANCH  20  21
ENDBRANCH   1  20
BRANCH   1  29
ATOM     29  O   UNL     1       9.145  -3.279  24.199  0.00  0.00    -0.268 OA
BRANCH  29  30
ATOM     30  C   UNL     1       8.627  -4.583  24.321  0.00  0.00    +0.410 C 
BRANCH  30  31
ATOM     31  O   UNL     1       7.501  -4.650  25.189  0.00  0.00    -0.406 OA
BRANCH  31  32
ATOM     32  C   UNL     1       7.761  -5.139  26.423  0.00  0.00    +0.512 C 
ATOM     33  O   UNL     1       8.759  -4.920  27.091  0.00  0.00    -0.203 OA
BRANCH  32  34
ATOM     34  O   UNL     1       6.739  -5.963  26.764  0.00  0.00    -0.431 OA
BRANCH  34  35
ATOM     35  C   UNL     1       5.864  -5.514  27.815  0.00  0.00    +0.174 C 
ATOM     36  C   UNL     1       5.474  -6.754  28.616  0.00  0.00    +0.052 C 
ATOM     37  C   UNL     1       4.616  -4.843  27.252  0.00  0.00    +0.052 C 
ENDBRANCH  34  35
ENDBRANCH  32  34
ENDBRANCH  31  32
ENDBRANCH  30  31
ENDBRANCH  29  30
ENDBRANCH   1  29
TORSDOF 18
ENDMDL
MODEL 8
REMARK VINA RESULT:      -5.6      1.930      3.619
REMARK  Name = 
REMARK  23 active torsions:
REMARK  status: ('A' for Active; 'I' for Inactive)
REMARK    1  A    between atoms: C_1  and  C_2
REMARK    2  A    between atoms: C_2  and  C_4
REMARK    3  A    between atoms: C_2  and  N_27
REMARK    4  A    between atoms: C_4  and  O_5
REMARK    5  A    between atoms: O_5  and  C_6
REMARK    6  A    between atoms: C_6  and  P_7
REMARK    7  A    between atoms: P_7  and  O_9
REMARK    8  A    between atoms: P_7  and  O_18
REMARK    9  A    between atoms: O_9  and  C_10
REMARK   10  A    between atoms: C_10  and  O_11
REMARK   11  A    between atoms: O_11  and  C_12
REMARK   12  A    between atoms: C_12  and  O_14
REMARK   13  A    between atoms: O_14  and  C_15
REMARK   14  A    between atoms: C_15  and  C_16
REMARK   15  A    between atoms: C_15  and  C_17
REMARK   16  A    between atoms: O_18  and  C_19
REMARK   17  A    between atoms: C_19  and  O_20
REMARK   18  A    between atoms: O_20  and  C_21
REMARK   19  A    between atoms: C_21  and  O_23
REMARK   20  A    between atoms: O_23  and  C_24
REMARK   21  A    between atoms: C_24  and  C_25
REMARK   22  A    between atoms: C_24  and  C_26
REMARK   23  A    between atoms: C_31  and  N_36
REMARK                            x       y       z     vdW  Elec       q    Type
REMARK                         _______ _______ _______ _____ _____    ______ ____
ROOT
ATOM      1  P   UNL     1       6.168  -0.806  24.667  0.00  0.00    +0.363 P 
ATOM      2  O   UNL     1       4.829  -0.805  25.343  0.00  0.00    -0.256 OA
ENDROOT
BRANCH   1   3
ATOM      3  C   UNL     1       6.498  -2.245  23.637  0.00  0.00    +0.286 C 
BRANCH   3   4
ATOM      4  O   UNL     1       5.285  -2.856  23.158  0.00  0.00    -0.366 OA
BRANCH   4   5
ATOM      5  C   UNL     1       5.484  -3.982  22.300  0.00  0.00    +0.185 C 
BRANCH   5   7
ATOM      6  C   UNL     1       6.680  -6.226  22.072  0.00  0.00    +0.033 C 
ATOM      7  C   UNL     1       6.319  -5.071  23.010  0.00  0.00    +0.113 C 
BRANCH   7   8
ATOM      8  N   UNL     1       5.698  -5.597  24.221  0.00  0.00    -0.310 N 
ATOM      9  C   UNL     1       6.236  -5.546  25.487  0.00  0.00    +0.166 A 
ATOM     10  C   UNL     1       5.436  -6.381  26.245  0.00  0.00    +0.147 A 
ATOM     11  C   UNL     1       5.813  -6.579  27.584  0.00  0.00    +0.147 A 
ATOM     12  N   UNL     1       6.887  -5.906  28.058  0.00  0.00    -0.219 NA
ATOM     13  C   UNL     1       7.566  -5.109  27.204  0.00  0.00    +0.225 A 
ATOM     14  N   UNL     1       4.397  -6.891  25.495  0.00  0.00    -0.231 NA
ATOM     15  N   UNL     1       7.323  -4.872  25.897  0.00  0.00    -0.216 NA
ATOM     16  C   UNL     1       4.592  -6.411  24.283  0.00  0.00    +0.202 A 
BRANCH  11  17
ATOM     17  N   UNL     1       5.142  -7.438  28.439  0.00  0.00    -0.341 N 
ATOM     18  H   UNL     1       5.015  -7.055  29.365  0.00  0.00    +0.144 HD
ATOM     19  H   UNL     1       4.361  -7.918  28.004  0.00  0.00    +0.144 HD
ENDBRANCH  11  17
ENDBRANCH   7   8
ENDBRANCH   5   7
ENDBRANCH   4   5
ENDBRANCH   3   4
ENDBRANCH   1   3
BRANCH   1  20
ATOM     20  O   UNL     1       6.460   0.488  23.762  0.00  0.00    -0.268 OA
BRANCH  20  21
ATOM     21  C   UNL     1       6.190   1.772  24.271  0.00  0.00    +0.410 C 
BRANCH  21  22
ATOM     22  O   UNL     1       5.024   2.333  23.679  0.00  0.00    -0.406 OA
BRANCH  22  23
ATOM     23  C   UNL     1       5.296   3.161  22.640  0.00  0.00    +0.512 C 
ATOM     24  O   UNL     1       6.404   3.404  22.187  0.00  0.00    -0.203 OA
BRANCH  23  25
ATOM     25  O   UNL     1       4.121   3.635  22.153  0.00  0.00    -0.431 OA
BRANCH  25  26
ATOM     26  C   UNL     1       3.014   3.570  23.071  0.00  0.00    +0.174 C 
ATOM     27  C   UNL     1       1.796   3.045  22.321  0.00  0.00    +0.052 C 
ATOM     28  C   UNL     1       2.737   4.965  23.624  0.00  0.00    +0.052 C 
ENDBRANCH  25  26
ENDBRANCH  23  25
ENDBRANCH  22  23
ENDBRANCH  21  22
ENDBRANCH  20  21
ENDBRANCH   1  20
BRANCH   1  29
ATOM     29  O   UNL     1       7.409  -0.764  25.696  0.00  0.00    -0.268 OA
BRANCH  29  30
ATOM     30  C   UNL     1       8.533  -1.551  25.374  0.00  0.00    +0.410 C 
BRANCH  30  31
ATOM     31  O   UNL     1       9.659  -0.771  24.989  0.00  0.00    -0.406 OA
BRANCH  31  32
ATOM     32  C   UNL     1      10.128  -1.020  23.745  0.00  0.00    +0.512 C 
ATOM     33  O   UNL     1      10.122  -2.099  23.175  0.00  0.00    -0.203 OA
BRANCH  32  34
ATOM     34  O   UNL     1      10.658   0.133  23.265  0.00  0.00    -0.431 OA
BRANCH  34  35
ATOM     35  C   UNL     1       9.744   1.218  23.021  0.00  0.00    +0.174 C 
ATOM     36  C   UNL     1       9.258   1.063  21.582  0.00  0.00    +0.052 C 
ATOM     37  C   UNL     1      10.425   2.570  23.200  0.00  0.00    +0.052 C 
ENDBRANCH  34  35
ENDBRANCH  32  34
ENDBRANCH  31  32
ENDBRANCH  30  31
ENDBRANCH  29  30
ENDBRANCH   1  29
TORSDOF 18
ENDMDL
MODEL 9
REMARK VINA RESULT:      -5.5      1.945      5.690
REMARK  Name = 
REMARK  23 active torsions:
REMARK  status: ('A' for Active; 'I' for Inactive)
REMARK    1  A    between atoms: C_1  and  C_2
REMARK    2  A    between atoms: C_2  and  C_4
REMARK    3  A    between atoms: C_2  and  N_27
REMARK    4  A    between atoms: C_4  and  O_5
REMARK    5  A    between atoms: O_5  and  C_6
REMARK    6  A    between atoms: C_6  and  P_7
REMARK    7  A    between atoms: P_7  and  O_9
REMARK    8  A    between atoms: P_7  and  O_18
REMARK    9  A    between atoms: O_9  and  C_10
REMARK   10  A    between atoms: C_10  and  O_11
REMARK   11  A    between atoms: O_11  and  C_12
REMARK   12  A    between atoms: C_12  and  O_14
REMARK   13  A    between atoms: O_14  and  C_15
REMARK   14  A    between atoms: C_15  and  C_16
REMARK   15  A    between atoms: C_15  and  C_17
REMARK   16  A    between atoms: O_18  and  C_19
REMARK   17  A    between atoms: C_19  and  O_20
REMARK   18  A    between atoms: O_20  and  C_21
REMARK   19  A    between atoms: C_21  and  O_23
REMARK   20  A    between atoms: O_23  and  C_24
REMARK   21  A    between atoms: C_24  and  C_25
REMARK   22  A    between atoms: C_24  and  C_26
REMARK   23  A    between atoms: C_31  and  N_36
REMARK                            x       y       z     vdW  Elec       q    Type
REMARK                         _______ _______ _______ _____ _____    ______ ____
ROOT
ATOM      1  P   UNL     1       6.148  -0.935  24.602  0.00  0.00    +0.363 P 
ATOM      2  O   UNL     1       5.532   0.432  24.623  0.00  0.00    -0.256 OA
ENDROOT
BRANCH   1   3
ATOM      3  C   UNL     1       6.565  -1.555  22.964  0.00  0.00    +0.286 C 
BRANCH   3   4
ATOM      4  O   UNL     1       5.667  -2.595  22.534  0.00  0.00    -0.366 OA
BRANCH   4   5
ATOM      5  C   UNL     1       6.140  -3.373  21.433  0.00  0.00    +0.185 C 
BRANCH   5   7
ATOM      6  C   UNL     1       6.129  -5.911  21.144  0.00  0.00    +0.033 C 
ATOM      7  C   UNL     1       6.707  -4.725  21.922  0.00  0.00    +0.113 C 
BRANCH   7   8
ATOM      8  N   UNL     1       6.545  -4.952  23.354  0.00  0.00    -0.310 N 
ATOM      9  C   UNL     1       7.532  -4.819  24.306  0.00  0.00    +0.166 A 
ATOM     10  C   UNL     1       6.996  -5.378  25.451  0.00  0.00    +0.147 A 
ATOM     11  C   UNL     1       7.834  -5.448  26.576  0.00  0.00    +0.147 A 
ATOM     12  N   UNL     1       9.077  -4.921  26.487  0.00  0.00    -0.219 NA
ATOM     13  C   UNL     1       9.462  -4.391  25.306  0.00  0.00    +0.225 A 
ATOM     14  N   UNL     1       5.697  -5.793  25.242  0.00  0.00    -0.231 NA
ATOM     15  N   UNL     1       8.763  -4.303  24.154  0.00  0.00    -0.216 NA
ATOM     16  C   UNL     1       5.464  -5.533  23.971  0.00  0.00    +0.202 A 
BRANCH  11  17
ATOM     17  N   UNL     1       7.452  -6.041  27.768  0.00  0.00    -0.341 N 
ATOM     18  H   UNL     1       8.216  -6.493  28.248  0.00  0.00    +0.144 HD
ATOM     19  H   UNL     1       6.805  -5.479  28.312  0.00  0.00    +0.144 HD
ENDBRANCH  11  17
ENDBRANCH   7   8
ENDBRANCH   5   7
ENDBRANCH   4   5
ENDBRANCH   3   4
ENDBRANCH   1   3
BRANCH   1  20
ATOM     20  O   UNL     1       7.467  -1.089  25.505  0.00  0.00    -0.268 OA
BRANCH  20  21
ATOM     21  C   UNL     1       8.723  -0.749  24.969  0.00  0.00    +0.410 C 
BRANCH  21  22
ATOM     22  O   UNL     1       8.886   0.661  24.876  0.00  0.00    -0.406 OA
BRANCH  22  23
ATOM     23  C   UNL     1      10.049   1.028  24.281  0.00  0.00    +0.512 C 
ATOM     24  O   UNL     1      11.173   0.746  24.667  0.00  0.00    -0.203 OA
BRANCH  23  25
ATOM     25  O   UNL     1       9.751   1.721  23.152  0.00  0.00    -0.431 OA
BRANCH  25  26
ATOM     26  C   UNL     1       8.448   2.332  23.143  0.00  0.00    +0.174 C 
ATOM     27  C   UNL     1       7.793   2.051  21.796  0.00  0.00    +0.052 C 
ATOM     28  C   UNL     1       8.596   3.836  23.358  0.00  0.00    +0.052 C 
ENDBRANCH  25  26
ENDBRANCH  23  25
ENDBRANCH  22  23
ENDBRANCH  21  22
ENDBRANCH  20  21
ENDBRANCH   1  20
BRANCH   1  29
ATOM     29  O   UNL     1       5.197  -2.079  25.225  0.00  0.00    -0.268 OA
BRANCH  29  30
ATOM     30  C   UNL     1       4.856  -1.955  26.587  0.00  0.00    +0.410 C 
BRANCH  30  31
ATOM     31  O   UNL     1       5.506  -2.917  27.407  0.00  0.00    -0.406 OA
BRANCH  31  32
ATOM     32  C   UNL     1       4.678  -3.772  28.050  0.00  0.00    +0.512 C 
ATOM     33  O   UNL     1       4.994  -4.563  28.924  0.00  0.00    -0.203 OA
BRANCH  32  34
ATOM     34  O   UNL     1       3.441  -3.634  27.510  0.00  0.00    -0.431 OA
BRANCH  34  35
ATOM     35  C   UNL     1       2.744  -4.844  27.160  0.00  0.00    +0.174 C 
ATOM     36  C   UNL     1       2.250  -4.662  25.727  0.00  0.00    +0.052 C 
ATOM     37  C   UNL     1       1.564  -5.096  28.092  0.00  0.00    +0.052 C 
ENDBRANCH  34  35
ENDBRANCH  32  34
ENDBRANCH  31  32
ENDBRANCH  30  31
ENDBRANCH  29  30
ENDBRANCH   1  29
TORSDOF 18
ENDMDL
