MODEL 1
REMARK VINA RESULT:      -6.0      0.000      0.000
REMARK  Name = 
REMARK  21 active torsions:
REMARK  status: ('A' for Active; 'I' for Inactive)
REMARK    1  A    between atoms: C_1  and  C_2
REMARK    2  A    between atoms: C_2  and  C_3
REMARK    3  A    between atoms: C_2  and  C_4
REMARK    4  A    between atoms: C_9  and  C_12
REMARK    5  A    between atoms: C_18  and  O_21
REMARK    6  A    between atoms: O_21  and  C_22
REMARK    7  A    between atoms: C_23  and  O_25
REMARK    8  A    between atoms: O_25  and  C_26
REMARK    9  A    between atoms: C_28  and  C_49
REMARK   10  A    between atoms: C_32  and  C_34
REMARK   11  A    between atoms: C_34  and  C_36
REMARK   12  A    between atoms: C_34  and  N_40
REMARK   13  A    between atoms: C_36  and  C_37
REMARK   14  A    between atoms: C_36  and  C_38
REMARK   15  A    between atoms: C_36  and  C_39
REMARK   16  A    between atoms: C_41  and  O_43
REMARK   17  A    between atoms: O_43  and  C_44
REMARK   18  A    between atoms: N_51  and  C_52
REMARK   19  A    between atoms: C_52  and  C_58
REMARK   20  A    between atoms: C_54  and  C_56
REMARK   21  A    between atoms: C_58  and  O_60
REMARK                            x       y       z     vdW  Elec       q    Type
REMARK                         _______ _______ _______ _____ _____    ______ ____
ROOT
ATOM      1  C   UNL     1       7.327   1.235  27.915  0.00  0.00    +0.193 C 
ATOM      2  C   UNL     1       7.558   1.530  26.415  0.00  0.00    +0.153 C 
ATOM      3  N   UNL     1       8.322   0.389  25.880  0.00  0.00    -0.285 N 
ATOM      4  C   UNL     1       9.042   0.336  24.686  0.00  0.00    +0.237 C 
ATOM      5  O   UNL     1       9.934  -0.511  24.541  0.00  0.00    -0.274 OA
ATOM      6  C   UNL     1       8.507  -0.631  26.917  0.00  0.00    +0.166 C 
ATOM      7  C   UNL     1       7.380  -0.301  27.913  0.00  0.00    +0.078 C 
ENDROOT
BRANCH   6   8
ATOM      8  C   UNL     1       8.344  -2.054  26.332  0.00  0.00    +0.235 C 
ATOM      9  N   UNL     1       7.390  -2.161  25.326  0.00  0.00    -0.298 N 
ATOM     10  H   UNL     1       6.806  -1.356  25.118  0.00  0.00    +0.150 HD
ATOM     11  O   UNL     1       8.929  -3.030  26.807  0.00  0.00    -0.274 OA
BRANCH   9  12
ATOM     12  C   UNL     1       6.997  -3.438  24.716  0.00  0.00    +0.138 C 
ATOM     13  C   UNL     1       6.886  -3.423  23.181  0.00  0.00    +0.048 C 
ATOM     14  C   UNL     1       7.997  -4.183  23.836  0.00  0.00    +0.048 C 
BRANCH  12  15
ATOM     15  C   UNL     1       6.044  -4.323  25.527  0.00  0.00    +0.329 C 
ATOM     16  O   UNL     1       6.085  -5.548  25.507  0.00  0.00    -0.249 OA
BRANCH  15  17
ATOM     17  O   UNL     1       5.144  -3.658  26.287  0.00  0.00    -0.479 OA
ATOM     18  H   UNL     1       4.767  -4.197  27.021  0.00  0.00    +0.295 HD
ENDBRANCH  15  17
ENDBRANCH  12  15
BRANCH  13  19
ATOM     19  C   UNL     1       5.843  -4.169  22.465  0.00  0.00    -0.028 C 
ATOM     20  C   UNL     1       6.043  -5.189  21.622  0.00  0.00    +0.004 C 
ENDBRANCH  13  19
ENDBRANCH   9  12
ENDBRANCH   6   8
BRANCH   1  21
ATOM     21  O   UNL     1       6.060   1.687  28.422  0.00  0.00    -0.486 OA
BRANCH  21  24
ATOM     22  C   UNL     1       3.008   0.005  27.199  0.00  0.00    +0.094 A 
ATOM     23  C   UNL     1       4.219   0.155  27.862  0.00  0.00    +0.076 A 
ATOM     24  C   UNL     1       4.879   1.380  27.769  0.00  0.00    +0.132 A 
ATOM     25  C   UNL     1       4.338   2.390  26.909  0.00  0.00    +0.043 A 
ATOM     26  C   UNL     1       5.006   3.596  26.594  0.00  0.00    +0.017 A 
ATOM     27  C   UNL     1       4.478   4.518  25.684  0.00  0.00    +0.047 A 
ATOM     28  C   UNL     1       3.226   4.304  25.108  0.00  0.00    +0.136 A 
ATOM     29  C   UNL     1       2.523   3.142  25.467  0.00  0.00    +0.085 A 
ATOM     30 BR   UNL     1       0.753   2.871  24.766  0.00  0.00    -0.044 Br
ATOM     31  C   UNL     1       3.082   2.160  26.309  0.00  0.00    +0.093 A 
ATOM     32  N   UNL     1       2.430   1.002  26.493  0.00  0.00    -0.244 NA
BRANCH  22  39
ATOM     33  C   UNL     1       2.297  -4.762  24.698  0.00  0.00    +0.221 C 
ATOM     34  N   UNL     1       1.637  -4.493  25.873  0.00  0.00    -0.264 N 
ATOM     35  H   UNL     1       0.923  -5.116  26.221  0.00  0.00    +0.157 HD
ATOM     36  C   UNL     1       1.750  -3.290  26.518  0.00  0.00    +0.165 A 
ATOM     37  S   UNL     1       0.559  -3.065  27.719  0.00  0.00    -0.060 S 
ATOM     38  C   UNL     1       1.151  -1.479  27.965  0.00  0.00    +0.078 A 
ATOM     39  C   UNL     1       2.272  -1.259  27.178  0.00  0.00    +0.098 A 
ATOM     40  N   UNL     1       2.604  -2.316  26.340  0.00  0.00    -0.223 NA
ATOM     41  O   UNL     1       3.052  -3.999  24.102  0.00  0.00    -0.275 OA
BRANCH  33  43
ATOM     42  C   UNL     1       3.189  -7.035  24.078  0.00  0.00    +0.017 C 
ATOM     43  C   UNL     1       1.947  -6.149  24.140  0.00  0.00    +0.069 C 
ATOM     44  C   UNL     1       0.857  -6.824  24.969  0.00  0.00    +0.017 C 
ENDBRANCH  33  43
ENDBRANCH  22  39
BRANCH  28  45
ATOM     45  O   UNL     1       2.626   5.146  24.208  0.00  0.00    -0.494 OA
ATOM     46  C   UNL     1       2.955   6.527  24.269  0.00  0.00    +0.277 C 
ENDBRANCH  28  45
ENDBRANCH  21  24
ENDBRANCH   1  21
BRANCH   4  47
ATOM     47  C   UNL     1       8.697   1.343  23.553  0.00  0.00    +0.168 C 
BRANCH  47  48
ATOM     48  N   UNL     1       9.856   2.201  23.354  0.00  0.00    -0.269 N 
ATOM     49  H   UNL     1      10.788   1.817  23.462  0.00  0.00    +0.153 HD
ATOM     50  C   UNL     1       9.745   3.544  23.523  0.00  0.00    +0.401 C 
ATOM     51  O   UNL     1       8.685   4.145  23.626  0.00  0.00    -0.226 OA
BRANCH  50  52
ATOM     52  O   UNL     1      10.972   4.102  23.636  0.00  0.00    -0.447 OA
BRANCH  52  53
ATOM     53  C   UNL     1      10.930   5.496  23.941  0.00  0.00    +0.178 C 
ATOM     54  C   UNL     1      12.322   6.021  24.276  0.00  0.00    +0.045 C 
ATOM     55  C   UNL     1      12.112   7.101  25.339  0.00  0.00    +0.004 C 
ATOM     56  C   UNL     1      10.620   7.108  25.654  0.00  0.00    +0.004 C 
ATOM     57  C   UNL     1      10.134   5.745  25.217  0.00  0.00    +0.045 C 
ENDBRANCH  52  53
ENDBRANCH  50  52
ENDBRANCH  47  48
BRANCH  47  58
ATOM     58  C   UNL     1       8.207   0.706  22.207  0.00  0.00    -0.011 C 
ATOM     59  C   UNL     1       7.786   1.867  21.264  0.00  0.00    +0.013 C 
ATOM     60  C   UNL     1       6.999  -0.219  22.470  0.00  0.00    +0.013 C 
ATOM     61  C   UNL     1       9.268  -0.128  21.453  0.00  0.00    +0.013 C 
ENDBRANCH  47  58
ENDBRANCH   4  47
TORSDOF 15
ENDMDL
MODEL 2
REMARK VINA RESULT:      -5.7      3.156      6.617
REMARK  Name = 
REMARK  21 active torsions:
REMARK  status: ('A' for Active; 'I' for Inactive)
REMARK    1  A    between atoms: C_1  and  C_2
REMARK    2  A    between atoms: C_2  and  C_3
REMARK    3  A    between atoms: C_2  and  C_4
REMARK    4  A    between atoms: C_9  and  C_12
REMARK    5  A    between atoms: C_18  and  O_21
REMARK    6  A    between atoms: O_21  and  C_22
REMARK    7  A    between atoms: C_23  and  O_25
REMARK    8  A    between atoms: O_25  and  C_26
REMARK    9  A    between atoms: C_28  and  C_49
REMARK   10  A    between atoms: C_32  and  C_34
REMARK   11  A    between atoms: C_34  and  C_36
REMARK   12  A    between atoms: C_34  and  N_40
REMARK   13  A    between atoms: C_36  and  C_37
REMARK   14  A    between atoms: C_36  and  C_38
REMARK   15  A    between atoms: C_36  and  C_39
REMARK   16  A    between atoms: C_41  and  O_43
REMARK   17  A    between atoms: O_43  and  C_44
REMARK   18  A    between atoms: N_51  and  C_52
REMARK   19  A    between atoms: C_52  and  C_58
REMARK   20  A    between atoms: C_54  and  C_56
REMARK   21  A    between atoms: C_58  and  O_60
REMARK                            x       y       z     vdW  Elec       q    Type
REMARK                         _______ _______ _______ _____ _____    ______ ____
ROOT
ATOM      1  C   UNL     1       7.761   0.744  24.156  0.00  0.00    +0.193 C 
ATOM      2  C   UNL     1       7.967   2.192  24.654  0.00  0.00    +0.153 C 
ATOM      3  N   UNL     1       7.000   3.027  23.918  0.00  0.00    -0.285 N 
ATOM      4  C   UNL     1       7.016   4.415  23.774  0.00  0.00    +0.237 C 
ATOM      5  O   UNL     1       6.398   4.944  22.840  0.00  0.00    -0.274 OA
ATOM      6  C   UNL     1       6.152   2.190  23.064  0.00  0.00    +0.166 C 
ATOM      7  C   UNL     1       6.289   0.802  23.715  0.00  0.00    +0.078 C 
ENDROOT
BRANCH   6   8
ATOM      8  C   UNL     1       4.685   2.681  23.085  0.00  0.00    +0.235 C 
ATOM      9  N   UNL     1       4.232   3.205  21.880  0.00  0.00    -0.298 N 
ATOM     10  H   UNL     1       4.895   3.328  21.120  0.00  0.00    +0.150 HD
ATOM     11  O   UNL     1       4.018   2.713  24.122  0.00  0.00    -0.274 OA
BRANCH   9  12
ATOM     12  C   UNL     1       2.913   3.829  21.713  0.00  0.00    +0.138 C 
ATOM     13  C   UNL     1       2.126   3.374  20.470  0.00  0.00    +0.048 C 
ATOM     14  C   UNL     1       1.659   2.967  21.834  0.00  0.00    +0.048 C 
BRANCH  12  15
ATOM     15  C   UNL     1       2.770   5.275  22.202  0.00  0.00    +0.329 C 
ATOM     16  O   UNL     1       1.880   5.641  22.961  0.00  0.00    -0.249 OA
BRANCH  15  17
ATOM     17  O   UNL     1       3.708   6.135  21.743  0.00  0.00    -0.479 OA
ATOM     18  H   UNL     1       4.375   6.395  22.422  0.00  0.00    +0.295 HD
ENDBRANCH  15  17
ENDBRANCH  12  15
BRANCH  13  19
ATOM     19  C   UNL     1       1.300   4.302  19.686  0.00  0.00    -0.028 C 
ATOM     20  C   UNL     1       1.542   4.703  18.432  0.00  0.00    +0.004 C 
ENDBRANCH  13  19
ENDBRANCH   9  12
ENDBRANCH   6   8
BRANCH   1  21
ATOM     21  O   UNL     1       7.937  -0.264  25.164  0.00  0.00    -0.486 OA
BRANCH  21  24
ATOM     22  C   UNL     1       5.755  -3.231  24.899  0.00  0.00    +0.094 A 
ATOM     23  C   UNL     1       6.713  -2.299  24.524  0.00  0.00    +0.076 A 
ATOM     24  C   UNL     1       6.972  -1.232  25.383  0.00  0.00    +0.132 A 
ATOM     25  C   UNL     1       6.164  -1.081  26.558  0.00  0.00    +0.043 A 
ATOM     26  C   UNL     1       6.211   0.050  27.404  0.00  0.00    +0.017 A 
ATOM     27  C   UNL     1       5.345   0.194  28.495  0.00  0.00    +0.047 A 
ATOM     28  C   UNL     1       4.450  -0.824  28.824  0.00  0.00    +0.136 A 
ATOM     29  C   UNL     1       4.444  -1.983  28.030  0.00  0.00    +0.085 A 
ATOM     30 BR   UNL     1       3.292  -3.441  28.520  0.00  0.00    -0.044 Br
ATOM     31  C   UNL     1       5.243  -2.101  26.875  0.00  0.00    +0.093 A 
ATOM     32  N   UNL     1       5.083  -3.163  26.071  0.00  0.00    -0.244 NA
BRANCH  22  39
ATOM     33  C   UNL     1       1.819  -6.720  23.548  0.00  0.00    +0.221 C 
ATOM     34  N   UNL     1       2.987  -6.681  22.824  0.00  0.00    -0.264 N 
ATOM     35  H   UNL     1       3.182  -7.376  22.118  0.00  0.00    +0.157 HD
ATOM     36  C   UNL     1       4.024  -5.851  23.152  0.00  0.00    +0.165 A 
ATOM     37  S   UNL     1       5.479  -6.256  22.356  0.00  0.00    -0.060 S 
ATOM     38  C   UNL     1       6.275  -5.040  23.257  0.00  0.00    +0.078 A 
ATOM     39  C   UNL     1       5.361  -4.348  24.039  0.00  0.00    +0.098 A 
ATOM     40  N   UNL     1       4.061  -4.833  23.973  0.00  0.00    -0.223 NA
ATOM     41  O   UNL     1       1.557  -6.037  24.533  0.00  0.00    -0.275 OA
BRANCH  33  43
ATOM     42  C   UNL     1       1.170  -8.144  21.574  0.00  0.00    +0.017 C 
ATOM     43  C   UNL     1       0.845  -7.785  23.023  0.00  0.00    +0.069 C 
ATOM     44  C   UNL     1       0.867  -9.038  23.895  0.00  0.00    +0.017 C 
ENDBRANCH  33  43
ENDBRANCH  22  39
BRANCH  28  45
ATOM     45  O   UNL     1       3.565  -0.777  29.870  0.00  0.00    -0.494 OA
ATOM     46  C   UNL     1       2.397   0.017  29.716  0.00  0.00    +0.277 C 
ENDBRANCH  28  45
ENDBRANCH  21  24
ENDBRANCH   1  21
BRANCH   4  47
ATOM     47  C   UNL     1       7.803   5.271  24.806  0.00  0.00    +0.168 C 
BRANCH  47  48
ATOM     48  N   UNL     1       7.817   4.543  26.067  0.00  0.00    -0.269 N 
ATOM     49  H   UNL     1       7.933   3.536  26.062  0.00  0.00    +0.153 HD
ATOM     50  C   UNL     1       7.205   5.065  27.160  0.00  0.00    +0.401 C 
ATOM     51  O   UNL     1       6.808   6.218  27.249  0.00  0.00    -0.226 OA
BRANCH  50  52
ATOM     52  O   UNL     1       7.032   4.106  28.099  0.00  0.00    -0.447 OA
BRANCH  52  53
ATOM     53  C   UNL     1       5.858   4.297  28.888  0.00  0.00    +0.178 C 
ATOM     54  C   UNL     1       5.937   3.492  30.182  0.00  0.00    +0.045 C 
ATOM     55  C   UNL     1       4.503   3.055  30.485  0.00  0.00    +0.004 C 
ATOM     56  C   UNL     1       3.652   3.538  29.315  0.00  0.00    +0.004 C 
ATOM     57  C   UNL     1       4.635   3.725  28.182  0.00  0.00    +0.045 C 
ENDBRANCH  52  53
ENDBRANCH  50  52
ENDBRANCH  47  48
BRANCH  47  58
ATOM     58  C   UNL     1       9.245   5.704  24.367  0.00  0.00    -0.011 C 
ATOM     59  C   UNL     1       9.869   6.512  25.539  0.00  0.00    +0.013 C 
ATOM     60  C   UNL     1       9.168   6.588  23.104  0.00  0.00    +0.013 C 
ATOM     61  C   UNL     1      10.212   4.538  24.055  0.00  0.00    +0.013 C 
ENDBRANCH  47  58
ENDBRANCH   4  47
TORSDOF 15
ENDMDL
MODEL 3
REMARK VINA RESULT:      -5.5      1.898      3.723
REMARK  Name = 
REMARK  21 active torsions:
REMARK  status: ('A' for Active; 'I' for Inactive)
REMARK    1  A    between atoms: C_1  and  C_2
REMARK    2  A    between atoms: C_2  and  C_3
REMARK    3  A    between atoms: C_2  and  C_4
REMARK    4  A    between atoms: C_9  and  C_12
REMARK    5  A    between atoms: C_18  and  O_21
REMARK    6  A    between atoms: O_21  and  C_22
REMARK    7  A    between atoms: C_23  and  O_25
REMARK    8  A    between atoms: O_25  and  C_26
REMARK    9  A    between atoms: C_28  and  C_49
REMARK   10  A    between atoms: C_32  and  C_34
REMARK   11  A    between atoms: C_34  and  C_36
REMARK   12  A    between atoms: C_34  and  N_40
REMARK   13  A    between atoms: C_36  and  C_37
REMARK   14  A    between atoms: C_36  and  C_38
REMARK   15  A    between atoms: C_36  and  C_39
REMARK   16  A    between atoms: C_41  and  O_43
REMARK   17  A    between atoms: O_43  and  C_44
REMARK   18  A    between atoms: N_51  and  C_52
REMARK   19  A    between atoms: C_52  and  C_58
REMARK   20  A    between atoms: C_54  and  C_56
REMARK   21  A    between atoms: C_58  and  O_60
REMARK                            x       y       z     vdW  Elec       q    Type
REMARK                         _______ _______ _______ _____ _____    ______ ____
ROOT
ATOM      1  C   UNL     1       8.058   0.654  27.699  0.00  0.00    +0.193 C 
ATOM      2  C   UNL     1       7.586   1.460  26.468  0.00  0.00    +0.153 C 
ATOM      3  N   UNL     1       8.231   0.843  25.294  0.00  0.00    -0.285 N 
ATOM      4  C   UNL     1       8.380   1.396  24.022  0.00  0.00    +0.237 C 
ATOM      5  O   UNL     1       9.255   0.961  23.260  0.00  0.00    -0.274 OA
ATOM      6  C   UNL     1       9.000  -0.338  25.699  0.00  0.00    +0.166 C 
ATOM      7  C   UNL     1       8.359  -0.707  27.049  0.00  0.00    +0.078 C 
ENDROOT
BRANCH   6   8
ATOM      8  C   UNL     1       8.844  -1.481  24.668  0.00  0.00    +0.235 C 
ATOM      9  N   UNL     1       7.581  -2.061  24.633  0.00  0.00    -0.298 N 
ATOM     10  H   UNL     1       6.896  -1.784  25.330  0.00  0.00    +0.150 HD
ATOM     11  O   UNL     1       9.799  -1.917  24.022  0.00  0.00    -0.274 OA
BRANCH   9  12
ATOM     12  C   UNL     1       7.251  -3.233  23.812  0.00  0.00    +0.138 C 
ATOM     13  C   UNL     1       5.930  -3.131  23.027  0.00  0.00    +0.048 C 
ATOM     14  C   UNL     1       7.235  -3.098  22.292  0.00  0.00    +0.048 C 
BRANCH  12  15
ATOM     15  C   UNL     1       7.699  -4.597  24.349  0.00  0.00    +0.329 C 
ATOM     16  O   UNL     1       8.520  -5.306  23.778  0.00  0.00    -0.249 OA
BRANCH  15  17
ATOM     17  O   UNL     1       7.130  -4.973  25.517  0.00  0.00    -0.479 OA
ATOM     18  H   UNL     1       7.444  -4.457  26.297  0.00  0.00    +0.295 HD
ENDBRANCH  15  17
ENDBRANCH  12  15
BRANCH  13  19
ATOM     19  C   UNL     1       5.041  -4.285  22.840  0.00  0.00    -0.028 C 
ATOM     20  C   UNL     1       5.321  -5.389  22.137  0.00  0.00    +0.004 C 
ENDBRANCH  13  19
ENDBRANCH   9  12
ENDBRANCH   6   8
BRANCH   1  21
ATOM     21  O   UNL     1       7.067   0.502  28.728  0.00  0.00    -0.486 OA
BRANCH  21  24
ATOM     22  C   UNL     1       3.550  -0.135  27.800  0.00  0.00    +0.094 A 
ATOM     23  C   UNL     1       4.901  -0.395  27.984  0.00  0.00    +0.076 A 
ATOM     24  C   UNL     1       5.718   0.636  28.446  0.00  0.00    +0.132 A 
ATOM     25  C   UNL     1       5.154   1.944  28.605  0.00  0.00    +0.043 A 
ATOM     26  C   UNL     1       5.916   3.099  28.891  0.00  0.00    +0.017 A 
ATOM     27  C   UNL     1       5.335   4.371  28.956  0.00  0.00    +0.047 A 
ATOM     28  C   UNL     1       3.956   4.525  28.809  0.00  0.00    +0.136 A 
ATOM     29  C   UNL     1       3.181   3.374  28.592  0.00  0.00    +0.085 A 
ATOM     30 BR   UNL     1       1.269   3.546  28.486  0.00  0.00    -0.044 Br
ATOM     31  C   UNL     1       3.762   2.101  28.432  0.00  0.00    +0.093 A 
ATOM     32  N   UNL     1       2.989   1.065  28.074  0.00  0.00    -0.244 NA
BRANCH  22  39
ATOM     33  C   UNL     1       2.975  -5.134  25.758  0.00  0.00    +0.221 C 
ATOM     34  N   UNL     1       1.869  -4.357  26.007  0.00  0.00    -0.264 N 
ATOM     35  H   UNL     1       0.951  -4.649  25.701  0.00  0.00    +0.157 HD
ATOM     36  C   UNL     1       1.964  -3.076  26.479  0.00  0.00    +0.165 A 
ATOM     37  S   UNL     1       0.503  -2.204  26.340  0.00  0.00    -0.060 S 
ATOM     38  C   UNL     1       1.315  -0.812  26.912  0.00  0.00    +0.078 A 
ATOM     39  C   UNL     1       2.622  -1.127  27.255  0.00  0.00    +0.098 A 
ATOM     40  N   UNL     1       2.986  -2.442  26.993  0.00  0.00    -0.223 NA
ATOM     41  O   UNL     1       4.144  -4.802  25.931  0.00  0.00    -0.275 OA
BRANCH  33  43
ATOM     42  C   UNL     1       1.868  -6.328  23.837  0.00  0.00    +0.017 C 
ATOM     43  C   UNL     1       2.604  -6.500  25.164  0.00  0.00    +0.069 C 
ATOM     44  C   UNL     1       3.839  -7.379  24.973  0.00  0.00    +0.017 C 
ENDBRANCH  33  43
ENDBRANCH  22  39
BRANCH  28  45
ATOM     45  O   UNL     1       3.295   5.725  28.856  0.00  0.00    -0.494 OA
ATOM     46  C   UNL     1       3.932   6.857  28.277  0.00  0.00    +0.277 C 
ENDBRANCH  28  45
ENDBRANCH  21  24
ENDBRANCH   1  21
BRANCH   4  47
ATOM     47  C   UNL     1       7.430   2.544  23.583  0.00  0.00    +0.168 C 
BRANCH  47  48
ATOM     48  N   UNL     1       6.195   2.414  24.343  0.00  0.00    -0.269 N 
ATOM     49  H   UNL     1       6.191   1.875  25.202  0.00  0.00    +0.153 HD
ATOM     50  C   UNL     1       4.996   2.547  23.722  0.00  0.00    +0.401 C 
ATOM     51  O   UNL     1       4.845   2.987  22.591  0.00  0.00    -0.226 OA
BRANCH  50  52
ATOM     52  O   UNL     1       4.008   2.055  24.505  0.00  0.00    -0.447 OA
BRANCH  52  53
ATOM     53  C   UNL     1       3.096   3.056  24.955  0.00  0.00    +0.178 C 
ATOM     54  C   UNL     1       2.047   3.355  23.887  0.00  0.00    +0.045 C 
ATOM     55  C   UNL     1       1.734   4.846  24.021  0.00  0.00    +0.004 C 
ATOM     56  C   UNL     1       2.671   5.386  25.096  0.00  0.00    +0.004 C 
ATOM     57  C   UNL     1       3.808   4.390  25.143  0.00  0.00    +0.045 C 
ENDBRANCH  52  53
ENDBRANCH  50  52
ENDBRANCH  47  48
BRANCH  47  58
ATOM     58  C   UNL     1       8.024   3.992  23.682  0.00  0.00    -0.011 C 
ATOM     59  C   UNL     1       7.493   4.629  24.996  0.00  0.00    +0.013 C 
ATOM     60  C   UNL     1       7.568   4.833  22.470  0.00  0.00    +0.013 C 
ATOM     61  C   UNL     1       9.568   4.064  23.736  0.00  0.00    +0.013 C 
ENDBRANCH  47  58
ENDBRANCH   4  47
TORSDOF 15
ENDMDL
MODEL 4
REMARK VINA RESULT:      -5.2      3.189      7.025
REMARK  Name = 
REMARK  21 active torsions:
REMARK  status: ('A' for Active; 'I' for Inactive)
REMARK    1  A    between atoms: C_1  and  C_2
REMARK    2  A    between atoms: C_2  and  C_3
REMARK    3  A    between atoms: C_2  and  C_4
REMARK    4  A    between atoms: C_9  and  C_12
REMARK    5  A    between atoms: C_18  and  O_21
REMARK    6  A    between atoms: O_21  and  C_22
REMARK    7  A    between atoms: C_23  and  O_25
REMARK    8  A    between atoms: O_25  and  C_26
REMARK    9  A    between atoms: C_28  and  C_49
REMARK   10  A    between atoms: C_32  and  C_34
REMARK   11  A    between atoms: C_34  and  C_36
REMARK   12  A    between atoms: C_34  and  N_40
REMARK   13  A    between atoms: C_36  and  C_37
REMARK   14  A    between atoms: C_36  and  C_38
REMARK   15  A    between atoms: C_36  and  C_39
REMARK   16  A    between atoms: C_41  and  O_43
REMARK   17  A    between atoms: O_43  and  C_44
REMARK   18  A    between atoms: N_51  and  C_52
REMARK   19  A    between atoms: C_52  and  C_58
REMARK   20  A    between atoms: C_54  and  C_56
REMARK   21  A    between atoms: C_58  and  O_60
REMARK                            x       y       z     vdW  Elec       q    Type
REMARK                         _______ _______ _______ _____ _____    ______ ____
ROOT
ATOM      1  C   UNL     1       7.592   0.611  24.493  0.00  0.00    +0.193 C 
ATOM      2  C   UNL     1       7.862   2.077  24.898  0.00  0.00    +0.153 C 
ATOM      3  N   UNL     1       6.885   2.899  24.160  0.00  0.00    -0.285 N 
ATOM      4  C   UNL     1       6.934   4.276  23.936  0.00  0.00    +0.237 C 
ATOM      5  O   UNL     1       6.289   4.771  23.002  0.00  0.00    -0.274 OA
ATOM      6  C   UNL     1       5.975   2.042  23.393  0.00  0.00    +0.166 C 
ATOM      7  C   UNL     1       6.103   0.690  24.117  0.00  0.00    +0.078 C 
ENDROOT
BRANCH   6   8
ATOM      8  C   UNL     1       4.525   2.579  23.453  0.00  0.00    +0.235 C 
ATOM      9  N   UNL     1       4.025   3.033  22.237  0.00  0.00    -0.298 N 
ATOM     10  H   UNL     1       4.652   3.083  21.439  0.00  0.00    +0.150 HD
ATOM     11  O   UNL     1       3.914   2.703  24.516  0.00  0.00    -0.274 OA
BRANCH   9  12
ATOM     12  C   UNL     1       2.717   3.685  22.093  0.00  0.00    +0.138 C 
ATOM     13  C   UNL     1       1.882   3.216  20.887  0.00  0.00    +0.048 C 
ATOM     14  C   UNL     1       1.448   2.858  22.275  0.00  0.00    +0.048 C 
BRANCH  12  15
ATOM     15  C   UNL     1       2.624   5.146  22.545  0.00  0.00    +0.329 C 
ATOM     16  O   UNL     1       1.760   5.558  23.311  0.00  0.00    -0.249 OA
BRANCH  15  17
ATOM     17  O   UNL     1       3.576   5.967  22.045  0.00  0.00    -0.479 OA
ATOM     18  H   UNL     1       4.198   5.522  21.423  0.00  0.00    +0.295 HD
ENDBRANCH  15  17
ENDBRANCH  12  15
BRANCH  13  19
ATOM     19  C   UNL     1       1.055   4.141  20.102  0.00  0.00    -0.028 C 
ATOM     20  C   UNL     1       1.455   4.841  19.033  0.00  0.00    +0.004 C 
ENDBRANCH  13  19
ENDBRANCH   9  12
ENDBRANCH   6   8
BRANCH   1  21
ATOM     21  O   UNL     1       7.786  -0.345  25.548  0.00  0.00    -0.486 OA
BRANCH  21  24
ATOM     22  C   UNL     1       5.349  -2.881  26.674  0.00  0.00    +0.094 A 
ATOM     23  C   UNL     1       6.145  -1.744  26.730  0.00  0.00    +0.076 A 
ATOM     24  C   UNL     1       6.984  -1.468  25.652  0.00  0.00    +0.132 A 
ATOM     25  C   UNL     1       7.073  -2.422  24.586  0.00  0.00    +0.043 A 
ATOM     26  C   UNL     1       8.015  -2.342  23.535  0.00  0.00    +0.017 A 
ATOM     27  C   UNL     1       8.121  -3.340  22.559  0.00  0.00    +0.047 A 
ATOM     28  C   UNL     1       7.239  -4.420  22.556  0.00  0.00    +0.136 A 
ATOM     29  C   UNL     1       6.254  -4.474  23.557  0.00  0.00    +0.085 A 
ATOM     30 BR   UNL     1       4.964  -5.898  23.517  0.00  0.00    -0.044 Br
ATOM     31  C   UNL     1       6.195  -3.527  24.598  0.00  0.00    +0.093 A 
ATOM     32  N   UNL     1       5.334  -3.714  25.609  0.00  0.00    -0.244 NA
BRANCH  22  39
ATOM     33  C   UNL     1       2.002  -6.696  28.604  0.00  0.00    +0.221 C 
ATOM     34  N   UNL     1       2.361  -5.629  29.392  0.00  0.00    -0.264 N 
ATOM     35  H   UNL     1       1.917  -5.471  30.286  0.00  0.00    +0.157 HD
ATOM     36  C   UNL     1       3.166  -4.620  28.937  0.00  0.00    +0.165 A 
ATOM     37  S   UNL     1       3.151  -3.246  29.949  0.00  0.00    -0.060 S 
ATOM     38  C   UNL     1       4.138  -2.435  28.813  0.00  0.00    +0.078 A 
ATOM     39  C   UNL     1       4.486  -3.295  27.781  0.00  0.00    +0.098 A 
ATOM     40  N   UNL     1       3.910  -4.556  27.863  0.00  0.00    -0.223 NA
ATOM     41  O   UNL     1       2.349  -6.885  27.443  0.00  0.00    -0.275 OA
BRANCH  33  43
ATOM     42  C   UNL     1       0.447  -8.660  28.341  0.00  0.00    +0.017 C 
ATOM     43  C   UNL     1       1.035  -7.648  29.323  0.00  0.00    +0.069 C 
ATOM     44  C   UNL     1       1.721  -8.372  30.479  0.00  0.00    +0.017 C 
ENDBRANCH  33  43
ENDBRANCH  22  39
BRANCH  28  45
ATOM     45  O   UNL     1       7.263  -5.445  21.646  0.00  0.00    -0.494 OA
ATOM     46  C   UNL     1       6.223  -5.498  20.677  0.00  0.00    +0.277 C 
ENDBRANCH  28  45
ENDBRANCH  21  24
ENDBRANCH   1  21
BRANCH   4  47
ATOM     47  C   UNL     1       7.792   5.163  24.880  0.00  0.00    +0.168 C 
BRANCH  47  48
ATOM     48  N   UNL     1       7.930   4.459  26.146  0.00  0.00    -0.269 N 
ATOM     49  H   UNL     1       8.258   3.500  26.153  0.00  0.00    +0.153 HD
ATOM     50  C   UNL     1       7.193   4.840  27.221  0.00  0.00    +0.401 C 
ATOM     51  O   UNL     1       6.556   5.882  27.291  0.00  0.00    -0.226 OA
BRANCH  50  52
ATOM     52  O   UNL     1       7.205   3.870  28.163  0.00  0.00    -0.447 OA
BRANCH  52  53
ATOM     53  C   UNL     1       6.277   2.818  27.900  0.00  0.00    +0.178 C 
ATOM     54  C   UNL     1       4.879   3.377  27.655  0.00  0.00    +0.045 C 
ATOM     55  C   UNL     1       3.912   2.338  28.227  0.00  0.00    +0.004 C 
ATOM     56  C   UNL     1       4.776   1.255  28.866  0.00  0.00    +0.004 C 
ATOM     57  C   UNL     1       6.101   1.933  29.128  0.00  0.00    +0.045 C 
ENDBRANCH  52  53
ENDBRANCH  50  52
ENDBRANCH  47  48
BRANCH  47  58
ATOM     58  C   UNL     1       9.183   5.612  24.310  0.00  0.00    -0.011 C 
ATOM     59  C   UNL     1       9.950   6.329  25.455  0.00  0.00    +0.013 C 
ATOM     60  C   UNL     1       8.978   6.584  23.127  0.00  0.00    +0.013 C 
ATOM     61  C   UNL     1      10.087   4.462  23.808  0.00  0.00    +0.013 C 
ENDBRANCH  47  58
ENDBRANCH   4  47
TORSDOF 15
ENDMDL
MODEL 5
REMARK VINA RESULT:      -4.9      3.341      8.596
REMARK  Name = 
REMARK  21 active torsions:
REMARK  status: ('A' for Active; 'I' for Inactive)
REMARK    1  A    between atoms: C_1  and  C_2
REMARK    2  A    between atoms: C_2  and  C_3
REMARK    3  A    between atoms: C_2  and  C_4
REMARK    4  A    between atoms: C_9  and  C_12
REMARK    5  A    between atoms: C_18  and  O_21
REMARK    6  A    between atoms: O_21  and  C_22
REMARK    7  A    between atoms: C_23  and  O_25
REMARK    8  A    between atoms: O_25  and  C_26
REMARK    9  A    between atoms: C_28  and  C_49
REMARK   10  A    between atoms: C_32  and  C_34
REMARK   11  A    between atoms: C_34  and  C_36
REMARK   12  A    between atoms: C_34  and  N_40
REMARK   13  A    between atoms: C_36  and  C_37
REMARK   14  A    between atoms: C_36  and  C_38
REMARK   15  A    between atoms: C_36  and  C_39
REMARK   16  A    between atoms: C_41  and  O_43
REMARK   17  A    between atoms: O_43  and  C_44
REMARK   18  A    between atoms: N_51  and  C_52
REMARK   19  A    between atoms: C_52  and  C_58
REMARK   20  A    between atoms: C_54  and  C_56
REMARK   21  A    between atoms: C_58  and  O_60
REMARK                            x       y       z     vdW  Elec       q    Type
REMARK                         _______ _______ _______ _____ _____    ______ ____
ROOT
ATOM      1  C   UNL     1       6.836   0.501  23.077  0.00  0.00    +0.193 C 
ATOM      2  C   UNL     1       6.161   0.767  24.442  0.00  0.00    +0.153 C 
ATOM      3  N   UNL     1       5.918  -0.554  25.050  0.00  0.00    -0.285 N 
ATOM      4  C   UNL     1       5.056  -0.856  26.104  0.00  0.00    +0.237 C 
ATOM      5  O   UNL     1       4.655  -2.018  26.260  0.00  0.00    -0.274 OA
ATOM      6  C   UNL     1       6.470  -1.614  24.200  0.00  0.00    +0.166 C 
ATOM      7  C   UNL     1       7.506  -0.855  23.351  0.00  0.00    +0.078 C 
ENDROOT
BRANCH   6   8
ATOM      8  C   UNL     1       7.140  -2.717  25.054  0.00  0.00    +0.235 C 
ATOM      9  N   UNL     1       6.447  -3.922  25.091  0.00  0.00    -0.298 N 
ATOM     10  H   UNL     1       5.527  -3.971  24.662  0.00  0.00    +0.150 HD
ATOM     11  O   UNL     1       8.142  -2.500  25.739  0.00  0.00    -0.274 OA
BRANCH   9  12
ATOM     12  C   UNL     1       6.846  -5.059  25.930  0.00  0.00    +0.138 C 
ATOM     13  C   UNL     1       5.935  -5.331  27.141  0.00  0.00    +0.048 C 
ATOM     14  C   UNL     1       5.949  -6.291  25.992  0.00  0.00    +0.048 C 
BRANCH  12  15
ATOM     15  C   UNL     1       8.350  -5.331  26.050  0.00  0.00    +0.329 C 
ATOM     16  O   UNL     1       8.988  -5.955  25.210  0.00  0.00    -0.249 OA
BRANCH  15  17
ATOM     17  O   UNL     1       8.943  -4.823  27.154  0.00  0.00    -0.479 OA
ATOM     18  H   UNL     1       8.411  -4.932  27.977  0.00  0.00    +0.295 HD
ENDBRANCH  15  17
ENDBRANCH  12  15
BRANCH  13  19
ATOM     19  C   UNL     1       6.468  -5.769  28.438  0.00  0.00    -0.028 C 
ATOM     20  C   UNL     1       5.805  -6.475  29.363  0.00  0.00    +0.004 C 
ENDBRANCH  13  19
ENDBRANCH   9  12
ENDBRANCH   6   8
BRANCH   1  21
ATOM     21  O   UNL     1       7.824   1.475  22.701  0.00  0.00    -0.486 OA
BRANCH  21  24
ATOM     22  C   UNL     1       6.668   4.746  23.969  0.00  0.00    +0.094 A 
ATOM     23  C   UNL     1       6.581   3.467  23.437  0.00  0.00    +0.076 A 
ATOM     24  C   UNL     1       7.763   2.774  23.176  0.00  0.00    +0.132 A 
ATOM     25  C   UNL     1       9.013   3.450  23.364  0.00  0.00    +0.043 A 
ATOM     26  C   UNL     1      10.261   2.920  22.965  0.00  0.00    +0.017 A 
ATOM     27  C   UNL     1      11.449   3.649  23.092  0.00  0.00    +0.047 A 
ATOM     28  C   UNL     1      11.442   4.910  23.690  0.00  0.00    +0.136 A 
ATOM     29  C   UNL     1      10.217   5.417  24.151  0.00  0.00    +0.085 A 
ATOM     30 BR   UNL     1      10.195   7.106  25.068  0.00  0.00    -0.044 Br
ATOM     31  C   UNL     1       9.001   4.735  23.946  0.00  0.00    +0.093 A 
ATOM     32  N   UNL     1       7.847   5.337  24.269  0.00  0.00    -0.244 NA
BRANCH  22  39
ATOM     33  C   UNL     1       2.986   6.402  27.600  0.00  0.00    +0.221 C 
ATOM     34  N   UNL     1       3.018   6.960  26.344  0.00  0.00    -0.264 N 
ATOM     35  H   UNL     1       2.289   7.588  26.037  0.00  0.00    +0.157 HD
ATOM     36  C   UNL     1       3.898   6.546  25.381  0.00  0.00    +0.165 A 
ATOM     37  S   UNL     1       3.492   7.108  23.821  0.00  0.00    -0.060 S 
ATOM     38  C   UNL     1       4.782   6.184  23.185  0.00  0.00    +0.078 A 
ATOM     39  C   UNL     1       5.491   5.580  24.214  0.00  0.00    +0.098 A 
ATOM     40  N   UNL     1       4.963   5.794  25.481  0.00  0.00    -0.223 NA
ATOM     41  O   UNL     1       3.717   5.507  28.011  0.00  0.00    -0.275 OA
BRANCH  33  43
ATOM     42  C   UNL     1       0.533   6.963  27.716  0.00  0.00    +0.017 C 
ATOM     43  C   UNL     1       1.862   6.988  28.467  0.00  0.00    +0.069 C 
ATOM     44  C   UNL     1       1.734   6.241  29.793  0.00  0.00    +0.017 C 
ENDBRANCH  33  43
ENDBRANCH  22  39
BRANCH  28  45
ATOM     45  O   UNL     1      12.550   5.699  23.858  0.00  0.00    -0.494 OA
ATOM     46  C   UNL     1      13.578   5.619  22.880  0.00  0.00    +0.277 C 
ENDBRANCH  28  45
ENDBRANCH  21  24
ENDBRANCH   1  21
BRANCH   4  47
ATOM     47  C   UNL     1       4.625   0.280  27.074  0.00  0.00    +0.168 C 
BRANCH  47  48
ATOM     48  N   UNL     1       3.665  -0.280  28.014  0.00  0.00    -0.269 N 
ATOM     49  H   UNL     1       3.980  -0.931  28.724  0.00  0.00    +0.153 HD
ATOM     50  C   UNL     1       2.352  -0.359  27.679  0.00  0.00    +0.401 C 
ATOM     51  O   UNL     1       1.845   0.202  26.717  0.00  0.00    -0.226 OA
BRANCH  50  52
ATOM     52  O   UNL     1       1.707  -1.204  28.517  0.00  0.00    -0.447 OA
BRANCH  52  53
ATOM     53  C   UNL     1       1.725  -2.560  28.071  0.00  0.00    +0.178 C 
ATOM     54  C   UNL     1       0.447  -3.284  28.483  0.00  0.00    +0.045 C 
ATOM     55  C   UNL     1       0.863  -4.729  28.767  0.00  0.00    +0.004 C 
ATOM     56  C   UNL     1       2.379  -4.778  28.601  0.00  0.00    +0.004 C 
ATOM     57  C   UNL     1       2.826  -3.344  28.774  0.00  0.00    +0.045 C 
ENDBRANCH  52  53
ENDBRANCH  50  52
ENDBRANCH  47  48
BRANCH  47  58
ATOM     58  C   UNL     1       5.794   1.023  27.809  0.00  0.00    -0.011 C 
ATOM     59  C   UNL     1       5.912   2.443  27.189  0.00  0.00    +0.013 C 
ATOM     60  C   UNL     1       7.116   0.252  27.610  0.00  0.00    +0.013 C 
ATOM     61  C   UNL     1       5.595   1.209  29.332  0.00  0.00    +0.013 C 
ENDBRANCH  47  58
ENDBRANCH   4  47
TORSDOF 15
ENDMDL
MODEL 6
REMARK VINA RESULT:      -4.9      2.869      6.666
REMARK  Name = 
REMARK  21 active torsions:
REMARK  status: ('A' for Active; 'I' for Inactive)
REMARK    1  A    between atoms: C_1  and  C_2
REMARK    2  A    between atoms: C_2  and  C_3
REMARK    3  A    between atoms: C_2  and  C_4
REMARK    4  A    between atoms: C_9  and  C_12
REMARK    5  A    between atoms: C_18  and  O_21
REMARK    6  A    between atoms: O_21  and  C_22
REMARK    7  A    between atoms: C_23  and  O_25
REMARK    8  A    between atoms: O_25  and  C_26
REMARK    9  A    between atoms: C_28  and  C_49
REMARK   10  A    between atoms: C_32  and  C_34
REMARK   11  A    between atoms: C_34  and  C_36
REMARK   12  A    between atoms: C_34  and  N_40
REMARK   13  A    between atoms: C_36  and  C_37
REMARK   14  A    between atoms: C_36  and  C_38
REMARK   15  A    between atoms: C_36  and  C_39
REMARK   16  A    between atoms: C_41  and  O_43
REMARK   17  A    between atoms: O_43  and  C_44
REMARK   18  A    between atoms: N_51  and  C_52
REMARK   19  A    between atoms: C_52  and  C_58
REMARK   20  A    between atoms: C_54  and  C_56
REMARK   21  A    between atoms: C_58  and  O_60
REMARK                            x       y       z     vdW  Elec       q    Type
REMARK                         _______ _______ _______ _____ _____    ______ ____
ROOT
ATOM      1  C   UNL     1       5.693   2.152  26.395  0.00  0.00    +0.193 C 
ATOM      2  C   UNL     1       5.224   2.629  25.002  0.00  0.00    +0.153 C 
ATOM      3  N   UNL     1       5.396   4.093  24.984  0.00  0.00    -0.285 N 
ATOM      4  C   UNL     1       4.822   5.002  24.095  0.00  0.00    +0.237 C 
ATOM      5  O   UNL     1       4.728   6.197  24.411  0.00  0.00    -0.274 OA
ATOM      6  C   UNL     1       6.017   4.547  26.232  0.00  0.00    +0.166 C 
ATOM      7  C   UNL     1       6.689   3.265  26.756  0.00  0.00    +0.078 C 
ENDROOT
BRANCH   6   8
ATOM      8  C   UNL     1       7.057   5.660  25.961  0.00  0.00    +0.235 C 
ATOM      9  N   UNL     1       8.218   5.227  25.331  0.00  0.00    -0.298 N 
ATOM     10  H   UNL     1       8.355   4.230  25.189  0.00  0.00    +0.150 HD
ATOM     11  O   UNL     1       6.912   6.810  26.381  0.00  0.00    -0.274 OA
BRANCH   9  12
ATOM     12  C   UNL     1       9.377   6.095  25.085  0.00  0.00    +0.138 C 
ATOM     13  C   UNL     1      10.147   5.805  23.783  0.00  0.00    +0.048 C 
ATOM     14  C   UNL     1       9.346   7.064  23.907  0.00  0.00    +0.048 C 
BRANCH  12  15
ATOM     15  C   UNL     1      10.148   6.579  26.318  0.00  0.00    +0.329 C 
ATOM     16  O   UNL     1      11.347   6.831  26.303  0.00  0.00    -0.249 OA
BRANCH  15  17
ATOM     17  O   UNL     1       9.409   6.722  27.442  0.00  0.00    -0.479 OA
ATOM     18  H   UNL     1       9.245   7.662  27.693  0.00  0.00    +0.295 HD
ENDBRANCH  15  17
ENDBRANCH  12  15
BRANCH  13  19
ATOM     19  C   UNL     1      11.610   5.901  23.703  0.00  0.00    -0.028 C 
ATOM     20  C   UNL     1      12.453   4.890  23.457  0.00  0.00    +0.004 C 
ENDBRANCH  13  19
ENDBRANCH   9  12
ENDBRANCH   6   8
BRANCH   1  21
ATOM     21  O   UNL     1       6.354   0.875  26.396  0.00  0.00    -0.486 OA
BRANCH  21  24
ATOM     22  C   UNL     1       4.965  -2.441  25.554  0.00  0.00    +0.094 A 
ATOM     23  C   UNL     1       5.704  -1.276  25.397  0.00  0.00    +0.076 A 
ATOM     24  C   UNL     1       5.630  -0.304  26.394  0.00  0.00    +0.132 A 
ATOM     25  C   UNL     1       4.712  -0.498  27.478  0.00  0.00    +0.043 A 
ATOM     26  C   UNL     1       4.418   0.490  28.445  0.00  0.00    +0.017 A 
ATOM     27  C   UNL     1       3.453   0.288  29.439  0.00  0.00    +0.047 A 
ATOM     28  C   UNL     1       2.799  -0.940  29.548  0.00  0.00    +0.136 A 
ATOM     29  C   UNL     1       3.135  -1.952  28.634  0.00  0.00    +0.085 A 
ATOM     30 BR   UNL     1       2.322  -3.683  28.824  0.00  0.00    -0.044 Br
ATOM     31  C   UNL     1       4.034  -1.732  27.572  0.00  0.00    +0.093 A 
ATOM     32  N   UNL     1       4.199  -2.683  26.641  0.00  0.00    -0.244 NA
BRANCH  22  39
ATOM     33  C   UNL     1       2.276  -6.743  23.617  0.00  0.00    +0.221 C 
ATOM     34  N   UNL     1       3.363  -6.244  22.939  0.00  0.00    -0.264 N 
ATOM     35  H   UNL     1       3.751  -6.738  22.148  0.00  0.00    +0.157 HD
ATOM     36  C   UNL     1       4.099  -5.191  23.409  0.00  0.00    +0.165 A 
ATOM     37  S   UNL     1       5.593  -5.011  22.605  0.00  0.00    -0.060 S 
ATOM     38  C   UNL     1       5.990  -3.750  23.690  0.00  0.00    +0.078 A 
ATOM     39  C   UNL     1       4.921  -3.490  24.535  0.00  0.00    +0.098 A 
ATOM     40  N   UNL     1       3.833  -4.337  24.365  0.00  0.00    -0.223 NA
ATOM     41  O   UNL     1       1.833  -6.322  24.681  0.00  0.00    -0.275 OA
BRANCH  33  43
ATOM     42  C   UNL     1       1.012  -8.898  23.940  0.00  0.00    +0.017 C 
ATOM     43  C   UNL     1       1.670  -7.970  22.921  0.00  0.00    +0.069 C 
ATOM     44  C   UNL     1       0.661  -7.562  21.850  0.00  0.00    +0.017 C 
ENDBRANCH  33  43
ENDBRANCH  22  39
BRANCH  28  45
ATOM     45  O   UNL     1       1.843  -1.234  30.485  0.00  0.00    -0.494 OA
ATOM     46  C   UNL     1       0.479  -1.106  30.104  0.00  0.00    +0.277 C 
ENDBRANCH  28  45
ENDBRANCH  21  24
ENDBRANCH   1  21
BRANCH   4  47
ATOM     47  C   UNL     1       4.321   4.494  22.715  0.00  0.00    +0.168 C 
BRANCH  47  48
ATOM     48  N   UNL     1       5.168   3.377  22.320  0.00  0.00    -0.269 N 
ATOM     49  H   UNL     1       4.910   2.434  22.589  0.00  0.00    +0.153 HD
ATOM     50  C   UNL     1       6.485   3.580  22.060  0.00  0.00    +0.401 C 
ATOM     51  O   UNL     1       7.003   4.679  21.917  0.00  0.00    -0.226 OA
BRANCH  50  52
ATOM     52  O   UNL     1       7.147   2.400  22.057  0.00  0.00    -0.447 OA
BRANCH  52  53
ATOM     53  C   UNL     1       8.517   2.523  22.436  0.00  0.00    +0.178 C 
ATOM     54  C   UNL     1       9.367   1.455  21.754  0.00  0.00    +0.045 C 
ATOM     55  C   UNL     1      10.464   1.096  22.759  0.00  0.00    +0.004 C 
ATOM     56  C   UNL     1      10.166   1.897  24.022  0.00  0.00    +0.004 C 
ATOM     57  C   UNL     1       8.695   2.232  23.921  0.00  0.00    +0.045 C 
ENDBRANCH  52  53
ENDBRANCH  50  52
ENDBRANCH  47  48
BRANCH  47  58
ATOM     58  C   UNL     1       2.799   4.126  22.638  0.00  0.00    -0.011 C 
ATOM     59  C   UNL     1       1.994   5.454  22.631  0.00  0.00    +0.013 C 
ATOM     60  C   UNL     1       2.400   3.277  23.865  0.00  0.00    +0.013 C 
ATOM     61  C   UNL     1       2.380   3.335  21.377  0.00  0.00    +0.013 C 
ENDBRANCH  47  58
ENDBRANCH   4  47
TORSDOF 15
ENDMDL
MODEL 7
REMARK VINA RESULT:      -4.8      3.220      7.993
REMARK  Name = 
REMARK  21 active torsions:
REMARK  status: ('A' for Active; 'I' for Inactive)
REMARK    1  A    between atoms: C_1  and  C_2
REMARK    2  A    between atoms: C_2  and  C_3
REMARK    3  A    between atoms: C_2  and  C_4
REMARK    4  A    between atoms: C_9  and  C_12
REMARK    5  A    between atoms: C_18  and  O_21
REMARK    6  A    between atoms: O_21  and  C_22
REMARK    7  A    between atoms: C_23  and  O_25
REMARK    8  A    between atoms: O_25  and  C_26
REMARK    9  A    between atoms: C_28  and  C_49
REMARK   10  A    between atoms: C_32  and  C_34
REMARK   11  A    between atoms: C_34  and  C_36
REMARK   12  A    between atoms: C_34  and  N_40
REMARK   13  A    between atoms: C_36  and  C_37
REMARK   14  A    between atoms: C_36  and  C_38
REMARK   15  A    between atoms: C_36  and  C_39
REMARK   16  A    between atoms: C_41  and  O_43
REMARK   17  A    between atoms: O_43  and  C_44
REMARK   18  A    between atoms: N_51  and  C_52
REMARK   19  A    between atoms: C_52  and  C_58
REMARK   20  A    between atoms: C_54  and  C_56
REMARK   21  A    between atoms: C_58  and  O_60
REMARK                            x       y       z     vdW  Elec       q    Type
REMARK                         _______ _______ _______ _____ _____    ______ ____
ROOT
ATOM      1  C   UNL     1       6.948   0.313  23.024  0.00  0.00    +0.193 C 
ATOM      2  C   UNL     1       6.253   0.272  24.403  0.00  0.00    +0.153 C 
ATOM      3  N   UNL     1       5.770  -1.108  24.586  0.00  0.00    -0.285 N 
ATOM      4  C   UNL     1       4.816  -1.558  25.499  0.00  0.00    +0.237 C 
ATOM      5  O   UNL     1       4.227  -2.629  25.297  0.00  0.00    -0.274 OA
ATOM      6  C   UNL     1       6.189  -1.947  23.458  0.00  0.00    +0.166 C 
ATOM      7  C   UNL     1       7.376  -1.157  22.878  0.00  0.00    +0.078 C 
ENDROOT
BRANCH   6   8
ATOM      8  C   UNL     1       6.627  -3.349  23.942  0.00  0.00    +0.235 C 
ATOM      9  N   UNL     1       6.493  -3.559  25.310  0.00  0.00    -0.298 N 
ATOM     10  H   UNL     1       6.228  -2.776  25.901  0.00  0.00    +0.150 HD
ATOM     11  O   UNL     1       7.162  -4.166  23.189  0.00  0.00    -0.274 OA
BRANCH   9  12
ATOM     12  C   UNL     1       6.955  -4.775  25.992  0.00  0.00    +0.138 C 
ATOM     13  C   UNL     1       6.003  -5.322  27.071  0.00  0.00    +0.048 C 
ATOM     14  C   UNL     1       6.189  -6.079  25.792  0.00  0.00    +0.048 C 
BRANCH  12  15
ATOM     15  C   UNL     1       8.468  -4.921  26.186  0.00  0.00    +0.329 C 
ATOM     16  O   UNL     1       9.142  -4.124  26.830  0.00  0.00    -0.249 OA
BRANCH  15  17
ATOM     17  O   UNL     1       9.024  -6.006  25.601  0.00  0.00    -0.479 OA
ATOM     18  H   UNL     1       8.433  -6.795  25.584  0.00  0.00    +0.295 HD
ENDBRANCH  15  17
ENDBRANCH  12  15
BRANCH  13  19
ATOM     19  C   UNL     1       6.495  -5.912  28.322  0.00  0.00    -0.028 C 
ATOM     20  C   UNL     1       5.740  -6.359  29.333  0.00  0.00    +0.004 C 
ENDBRANCH  13  19
ENDBRANCH   9  12
ENDBRANCH   6   8
BRANCH   1  21
ATOM     21  O   UNL     1       8.097   1.173  22.960  0.00  0.00    -0.486 OA
BRANCH  21  24
ATOM     22  C   UNL     1       6.985   4.403  24.361  0.00  0.00    +0.094 A 
ATOM     23  C   UNL     1       6.880   3.123  23.834  0.00  0.00    +0.076 A 
ATOM     24  C   UNL     1       8.048   2.468  23.446  0.00  0.00    +0.132 A 
ATOM     25  C   UNL     1       9.290   3.182  23.502  0.00  0.00    +0.043 A 
ATOM     26  C   UNL     1      10.504   2.691  22.970  0.00  0.00    +0.017 A 
ATOM     27  C   UNL     1      11.676   3.456  22.974  0.00  0.00    +0.047 A 
ATOM     28  C   UNL     1      11.695   4.714  23.576  0.00  0.00    +0.136 A 
ATOM     29  C   UNL     1      10.511   5.183  24.168  0.00  0.00    +0.085 A 
ATOM     30 BR   UNL     1      10.536   6.869  25.091  0.00  0.00    -0.044 Br
ATOM     31  C   UNL     1       9.301   4.464  24.090  0.00  0.00    +0.093 A 
ATOM     32  N   UNL     1       8.170   5.030  24.538  0.00  0.00    -0.244 NA
BRANCH  22  39
ATOM     33  C   UNL     1       3.748   6.052  28.397  0.00  0.00    +0.221 C 
ATOM     34  N   UNL     1       3.590   6.563  27.132  0.00  0.00    -0.264 N 
ATOM     35  H   UNL     1       2.800   7.151  26.905  0.00  0.00    +0.157 HD
ATOM     36  C   UNL     1       4.351   6.148  26.073  0.00  0.00    +0.165 A 
ATOM     37  S   UNL     1       3.719   6.636  24.565  0.00  0.00    -0.060 S 
ATOM     38  C   UNL     1       4.952   5.739  23.791  0.00  0.00    +0.078 A 
ATOM     39  C   UNL     1       5.816   5.201  24.735  0.00  0.00    +0.098 A 
ATOM     40  N   UNL     1       5.452   5.441  26.053  0.00  0.00    -0.223 NA
ATOM     41  O   UNL     1       4.565   5.201  28.736  0.00  0.00    -0.275 OA
BRANCH  33  43
ATOM     42  C   UNL     1       1.470   7.097  28.655  0.00  0.00    +0.017 C 
ATOM     43  C   UNL     1       2.725   6.626  29.388  0.00  0.00    +0.069 C 
ATOM     44  C   UNL     1       2.356   5.606  30.463  0.00  0.00    +0.017 C 
ENDBRANCH  33  43
ENDBRANCH  22  39
BRANCH  28  45
ATOM     45  O   UNL     1      12.790   5.537  23.629  0.00  0.00    -0.494 OA
ATOM     46  C   UNL     1      13.570   5.683  22.450  0.00  0.00    +0.277 C 
ENDBRANCH  28  45
ENDBRANCH  21  24
ENDBRANCH   1  21
BRANCH   4  47
ATOM     47  C   UNL     1       4.523  -0.705  26.765  0.00  0.00    +0.168 C 
BRANCH  47  48
ATOM     48  N   UNL     1       3.763   0.464  26.345  0.00  0.00    -0.269 N 
ATOM     49  H   UNL     1       3.108   0.385  25.576  0.00  0.00    +0.153 HD
ATOM     50  C   UNL     1       4.240   1.710  26.592  0.00  0.00    +0.401 C 
ATOM     51  O   UNL     1       5.175   1.960  27.341  0.00  0.00    -0.226 OA
BRANCH  50  52
ATOM     52  O   UNL     1       3.583   2.619  25.836  0.00  0.00    -0.447 OA
BRANCH  52  53
ATOM     53  C   UNL     1       2.194   2.714  26.150  0.00  0.00    +0.178 C 
ATOM     54  C   UNL     1       1.522   3.802  25.318  0.00  0.00    +0.045 C 
ATOM     55  C   UNL     1       0.443   4.405  26.219  0.00  0.00    +0.004 C 
ATOM     56  C   UNL     1       0.581   3.716  27.572  0.00  0.00    +0.004 C 
ATOM     57  C   UNL     1       1.997   3.186  27.586  0.00  0.00    +0.045 C 
ENDBRANCH  52  53
ENDBRANCH  50  52
ENDBRANCH  47  48
BRANCH  47  58
ATOM     58  C   UNL     1       3.822  -1.462  27.946  0.00  0.00    -0.011 C 
ATOM     59  C   UNL     1       2.338  -1.687  27.545  0.00  0.00    +0.013 C 
ATOM     60  C   UNL     1       3.894  -0.612  29.232  0.00  0.00    +0.013 C 
ATOM     61  C   UNL     1       4.417  -2.850  28.278  0.00  0.00    +0.013 C 
ENDBRANCH  47  58
ENDBRANCH   4  47
TORSDOF 15
ENDMDL
MODEL 8
REMARK VINA RESULT:      -4.5      2.940      6.306
REMARK  Name = 
REMARK  21 active torsions:
REMARK  status: ('A' for Active; 'I' for Inactive)
REMARK    1  A    between atoms: C_1  and  C_2
REMARK    2  A    between atoms: C_2  and  C_3
REMARK    3  A    between atoms: C_2  and  C_4
REMARK    4  A    between atoms: C_9  and  C_12
REMARK    5  A    between atoms: C_18  and  O_21
REMARK    6  A    between atoms: O_21  and  C_22
REMARK    7  A    between atoms: C_23  and  O_25
REMARK    8  A    between atoms: O_25  and  C_26
REMARK    9  A    between atoms: C_28  and  C_49
REMARK   10  A    between atoms: C_32  and  C_34
REMARK   11  A    between atoms: C_34  and  C_36
REMARK   12  A    between atoms: C_34  and  N_40
REMARK   13  A    between atoms: C_36  and  C_37
REMARK   14  A    between atoms: C_36  and  C_38
REMARK   15  A    between atoms: C_36  and  C_39
REMARK   16  A    between atoms: C_41  and  O_43
REMARK   17  A    between atoms: O_43  and  C_44
REMARK   18  A    between atoms: N_51  and  C_52
REMARK   19  A    between atoms: C_52  and  C_58
REMARK   20  A    between atoms: C_54  and  C_56
REMARK   21  A    between atoms: C_58  and  O_60
REMARK                            x       y       z     vdW  Elec       q    Type
REMARK                         _______ _______ _______ _____ _____    ______ ____
ROOT
ATOM      1  C   UNL     1       7.119   1.141  24.704  0.00  0.00    +0.193 C 
ATOM      2  C   UNL     1       7.218   2.514  25.405  0.00  0.00    +0.153 C 
ATOM      3  N   UNL     1       6.129   3.342  24.854  0.00  0.00    -0.285 N 
ATOM      4  C   UNL     1       6.002   4.730  24.922  0.00  0.00    +0.237 C 
ATOM      5  O   UNL     1       5.277   5.322  24.111  0.00  0.00    -0.274 OA
ATOM      6  C   UNL     1       5.311   2.554  23.927  0.00  0.00    +0.166 C 
ATOM      7  C   UNL     1       5.622   1.108  24.353  0.00  0.00    +0.078 C 
ENDROOT
BRANCH   6   8
ATOM      8  C   UNL     1       3.808   2.881  24.098  0.00  0.00    +0.235 C 
ATOM      9  N   UNL     1       3.422   3.171  25.401  0.00  0.00    -0.298 N 
ATOM     10  H   UNL     1       4.099   3.050  26.150  0.00  0.00    +0.150 HD
ATOM     11  O   UNL     1       3.003   2.774  23.169  0.00  0.00    -0.274 OA
BRANCH   9  12
ATOM     12  C   UNL     1       2.027   3.396  25.801  0.00  0.00    +0.138 C 
ATOM     13  C   UNL     1       1.762   4.725  26.532  0.00  0.00    +0.048 C 
ATOM     14  C   UNL     1       1.235   4.523  25.145  0.00  0.00    +0.048 C 
BRANCH  12  15
ATOM     15  C   UNL     1       1.214   2.155  26.187  0.00  0.00    +0.329 C 
ATOM     16  O   UNL     1       0.519   1.535  25.391  0.00  0.00    -0.249 OA
BRANCH  15  17
ATOM     17  O   UNL     1       1.319   1.775  27.481  0.00  0.00    -0.479 OA
ATOM     18  H   UNL     1       1.639   0.849  27.598  0.00  0.00    +0.295 HD
ENDBRANCH  15  17
ENDBRANCH  12  15
BRANCH  13  19
ATOM     19  C   UNL     1       0.808   4.830  27.644  0.00  0.00    -0.028 C 
ATOM     20  C   UNL     1       1.089   5.246  28.885  0.00  0.00    +0.004 C 
ENDBRANCH  13  19
ENDBRANCH   9  12
ENDBRANCH   6   8
BRANCH   1  21
ATOM     21  O   UNL     1       7.457   0.020  25.538  0.00  0.00    -0.486 OA
BRANCH  21  24
ATOM     22  C   UNL     1       5.471  -3.071  25.167  0.00  0.00    +0.094 A 
ATOM     23  C   UNL     1       6.352  -2.056  24.818  0.00  0.00    +0.076 A 
ATOM     24  C   UNL     1       6.567  -1.022  25.729  0.00  0.00    +0.132 A 
ATOM     25  C   UNL     1       5.790  -0.993  26.933  0.00  0.00    +0.043 A 
ATOM     26  C   UNL     1       5.788   0.090  27.841  0.00  0.00    +0.017 A 
ATOM     27  C   UNL     1       4.952   0.113  28.964  0.00  0.00    +0.047 A 
ATOM     28  C   UNL     1       4.139  -0.981  29.259  0.00  0.00    +0.136 A 
ATOM     29  C   UNL     1       4.184  -2.091  28.401  0.00  0.00    +0.085 A 
ATOM     30 BR   UNL     1       3.149  -3.650  28.840  0.00  0.00    -0.044 Br
ATOM     31  C   UNL     1       4.950  -2.090  27.218  0.00  0.00    +0.093 A 
ATOM     32  N   UNL     1       4.836  -3.114  26.359  0.00  0.00    -0.244 NA
BRANCH  22  39
ATOM     33  C   UNL     1       1.690  -6.662  23.654  0.00  0.00    +0.221 C 
ATOM     34  N   UNL     1       2.853  -6.539  22.933  0.00  0.00    -0.264 N 
ATOM     35  H   UNL     1       3.077  -7.191  22.195  0.00  0.00    +0.157 HD
ATOM     36  C   UNL     1       3.854  -5.680  23.299  0.00  0.00    +0.165 A 
ATOM     37  S   UNL     1       5.323  -5.984  22.486  0.00  0.00    -0.060 S 
ATOM     38  C   UNL     1       6.067  -4.777  23.443  0.00  0.00    +0.078 A 
ATOM     39  C   UNL     1       5.126  -4.163  24.255  0.00  0.00    +0.098 A 
ATOM     40  N   UNL     1       3.848  -4.700  24.166  0.00  0.00    -0.223 NA
ATOM     41  O   UNL     1       1.399  -6.038  24.669  0.00  0.00    -0.275 OA
BRANCH  33  43
ATOM     42  C   UNL     1       1.111  -8.033  21.621  0.00  0.00    +0.017 C 
ATOM     43  C   UNL     1       0.762  -7.743  23.079  0.00  0.00    +0.069 C 
ATOM     44  C   UNL     1       0.827  -9.028  23.903  0.00  0.00    +0.017 C 
ENDBRANCH  33  43
ENDBRANCH  22  39
BRANCH  28  45
ATOM     45  O   UNL     1       3.288  -1.053  30.332  0.00  0.00    -0.494 OA
ATOM     46  C   UNL     1       2.121  -0.241  30.310  0.00  0.00    +0.277 C 
ENDBRANCH  28  45
ENDBRANCH  21  24
ENDBRANCH   1  21
BRANCH   4  47
ATOM     47  C   UNL     1       6.771   5.504  26.029  0.00  0.00    +0.168 C 
BRANCH  47  48
ATOM     48  N   UNL     1       7.669   6.442  25.372  0.00  0.00    -0.269 N 
ATOM     49  H   UNL     1       7.326   7.012  24.608  0.00  0.00    +0.153 HD
ATOM     50  C   UNL     1       9.010   6.233  25.400  0.00  0.00    +0.401 C 
ATOM     51  O   UNL     1       9.571   5.421  26.122  0.00  0.00    -0.226 OA
BRANCH  50  52
ATOM     52  O   UNL     1       9.620   6.997  24.464  0.00  0.00    -0.447 OA
BRANCH  52  53
ATOM     53  C   UNL     1      10.463   6.247  23.589  0.00  0.00    +0.178 C 
ATOM     54  C   UNL     1      10.056   4.777  23.570  0.00  0.00    +0.045 C 
ATOM     55  C   UNL     1      11.356   3.990  23.395  0.00  0.00    +0.004 C 
ATOM     56  C   UNL     1      12.484   5.017  23.409  0.00  0.00    +0.004 C 
ATOM     57  C   UNL     1      11.894   6.218  24.113  0.00  0.00    +0.045 C 
ENDBRANCH  52  53
ENDBRANCH  50  52
ENDBRANCH  47  48
BRANCH  47  58
ATOM     58  C   UNL     1       5.878   6.210  27.107  0.00  0.00    -0.011 C 
ATOM     59  C   UNL     1       5.167   5.100  27.929  0.00  0.00    +0.013 C 
ATOM     60  C   UNL     1       4.826   7.105  26.415  0.00  0.00    +0.013 C 
ATOM     61  C   UNL     1       6.646   7.098  28.113  0.00  0.00    +0.013 C 
ENDBRANCH  47  58
ENDBRANCH   4  47
TORSDOF 15
ENDMDL
MODEL 9
REMARK VINA RESULT:      -4.4      2.948      6.613
REMARK  Name = 
REMARK  21 active torsions:
REMARK  status: ('A' for Active; 'I' for Inactive)
REMARK    1  A    between atoms: C_1  and  C_2
REMARK    2  A    between atoms: C_2  and  C_3
REMARK    3  A    between atoms: C_2  and  C_4
REMARK    4  A    between atoms: C_9  and  C_12
REMARK    5  A    between atoms: C_18  and  O_21
REMARK    6  A    between atoms: O_21  and  C_22
REMARK    7  A    between atoms: C_23  and  O_25
REMARK    8  A    between atoms: O_25  and  C_26
REMARK    9  A    between atoms: C_28  and  C_49
REMARK   10  A    between atoms: C_32  and  C_34
REMARK   11  A    between atoms: C_34  and  C_36
REMARK   12  A    between atoms: C_34  and  N_40
REMARK   13  A    between atoms: C_36  and  C_37
REMARK   14  A    between atoms: C_36  and  C_38
REMARK   15  A    between atoms: C_36  and  C_39
REMARK   16  A    between atoms: C_41  and  O_43
REMARK   17  A    between atoms: O_43  and  C_44
REMARK   18  A    between atoms: N_51  and  C_52
REMARK   19  A    between atoms: C_52  and  C_58
REMARK   20  A    between atoms: C_54  and  C_56
REMARK   21  A    between atoms: C_58  and  O_60
REMARK                            x       y       z     vdW  Elec       q    Type
REMARK                         _______ _______ _______ _____ _____    ______ ____
ROOT
ATOM      1  C   UNL     1       7.325   0.907  24.575  0.00  0.00    +0.193 C 
ATOM      2  C   UNL     1       7.614   2.352  25.039  0.00  0.00    +0.153 C 
ATOM      3  N   UNL     1       6.661   3.218  24.320  0.00  0.00    -0.285 N 
ATOM      4  C   UNL     1       6.735   4.600  24.148  0.00  0.00    +0.237 C 
ATOM      5  O   UNL     1       6.110   5.141  23.226  0.00  0.00    -0.274 OA
ATOM      6  C   UNL     1       5.747   2.405  23.510  0.00  0.00    +0.166 C 
ATOM      7  C   UNL     1       5.843   1.024  24.184  0.00  0.00    +0.078 C 
ENDROOT
BRANCH   6   8
ATOM      8  C   UNL     1       4.306   2.964  23.571  0.00  0.00    +0.235 C 
ATOM      9  N   UNL     1       3.853   3.261  24.852  0.00  0.00    -0.298 N 
ATOM     10  H   UNL     1       4.431   3.004  25.647  0.00  0.00    +0.150 HD
ATOM     11  O   UNL     1       3.582   3.024  22.575  0.00  0.00    -0.274 OA
BRANCH   9  12
ATOM     12  C   UNL     1       2.480   3.693  25.145  0.00  0.00    +0.138 C 
ATOM     13  C   UNL     1       2.315   5.196  25.435  0.00  0.00    +0.048 C 
ATOM     14  C   UNL     1       1.765   4.621  24.167  0.00  0.00    +0.048 C 
BRANCH  12  15
ATOM     15  C   UNL     1       1.585   2.687  25.876  0.00  0.00    +0.329 C 
ATOM     16  O   UNL     1       1.738   2.386  27.055  0.00  0.00    -0.249 OA
BRANCH  15  17
ATOM     17  O   UNL     1       0.592   2.149  25.132  0.00  0.00    -0.479 OA
ATOM     18  H   UNL     1      -0.123   2.788  24.901  0.00  0.00    +0.295 HD
ENDBRANCH  15  17
ENDBRANCH  12  15
BRANCH  13  19
ATOM     19  C   UNL     1       1.380   5.698  26.450  0.00  0.00    -0.028 C 
ATOM     20  C   UNL     1       1.579   6.752  27.252  0.00  0.00    +0.004 C 
ENDBRANCH  13  19
ENDBRANCH   9  12
ENDBRANCH   6   8
BRANCH   1  21
ATOM     21  O   UNL     1       7.490  -0.091  25.597  0.00  0.00    -0.486 OA
BRANCH  21  24
ATOM     22  C   UNL     1       5.451  -3.134  25.129  0.00  0.00    +0.094 A 
ATOM     23  C   UNL     1       6.363  -2.134  24.819  0.00  0.00    +0.076 A 
ATOM     24  C   UNL     1       6.573  -1.116  25.749  0.00  0.00    +0.132 A 
ATOM     25  C   UNL     1       5.762  -1.084  26.930  0.00  0.00    +0.043 A 
ATOM     26  C   UNL     1       5.756  -0.012  27.851  0.00  0.00    +0.017 A 
ATOM     27  C   UNL     1       4.887   0.016  28.948  0.00  0.00    +0.047 A 
ATOM     28  C   UNL     1       4.042  -1.063  29.206  0.00  0.00    +0.136 A 
ATOM     29  C   UNL     1       4.090  -2.164  28.336  0.00  0.00    +0.085 A 
ATOM     30 BR   UNL     1       3.009  -3.706  28.725  0.00  0.00    -0.044 Br
ATOM     31  C   UNL     1       4.890  -2.166  27.176  0.00  0.00    +0.093 A 
ATOM     32  N   UNL     1       4.780  -3.177  26.302  0.00  0.00    -0.244 NA
BRANCH  22  39
ATOM     33  C   UNL     1       1.719  -6.768  23.598  0.00  0.00    +0.221 C 
ATOM     34  N   UNL     1       2.862  -6.598  22.855  0.00  0.00    -0.264 N 
ATOM     35  H   UNL     1       3.084  -7.223  22.094  0.00  0.00    +0.157 HD
ATOM     36  C   UNL     1       3.851  -5.727  23.224  0.00  0.00    +0.165 A 
ATOM     37  S   UNL     1       5.308  -5.972  22.370  0.00  0.00    -0.060 S 
ATOM     38  C   UNL     1       6.046  -4.777  23.344  0.00  0.00    +0.078 A 
ATOM     39  C   UNL     1       5.110  -4.207  24.195  0.00  0.00    +0.098 A 
ATOM     40  N   UNL     1       3.843  -4.772  24.119  0.00  0.00    -0.223 NA
ATOM     41  O   UNL     1       1.437  -6.180  24.638  0.00  0.00    -0.275 OA
BRANCH  33  43
ATOM     42  C   UNL     1       1.154  -8.125  21.552  0.00  0.00    +0.017 C 
ATOM     43  C   UNL     1       0.803  -7.854  23.014  0.00  0.00    +0.069 C 
ATOM     44  C   UNL     1       0.884  -9.147  23.824  0.00  0.00    +0.017 C 
ENDBRANCH  33  43
ENDBRANCH  22  39
BRANCH  28  45
ATOM     45  O   UNL     1       3.158  -1.130  30.252  0.00  0.00    -0.494 OA
ATOM     46  C   UNL     1       2.108  -0.173  30.296  0.00  0.00    +0.277 C 
ENDBRANCH  28  45
ENDBRANCH  21  24
ENDBRANCH   1  21
BRANCH   4  47
ATOM     47  C   UNL     1       7.595   5.437  25.136  0.00  0.00    +0.168 C 
BRANCH  47  48
ATOM     48  N   UNL     1       7.729   4.671  26.367  0.00  0.00    -0.269 N 
ATOM     49  H   UNL     1       7.838   3.664  26.320  0.00  0.00    +0.153 HD
ATOM     50  C   UNL     1       7.229   5.160  27.530  0.00  0.00    +0.401 C 
ATOM     51  O   UNL     1       6.848   6.311  27.693  0.00  0.00    -0.226 OA
BRANCH  50  52
ATOM     52  O   UNL     1       7.144   4.173  28.452  0.00  0.00    -0.447 OA
BRANCH  52  53
ATOM     53  C   UNL     1       5.822   3.657  28.603  0.00  0.00    +0.178 C 
ATOM     54  C   UNL     1       4.782   4.711  28.237  0.00  0.00    +0.045 C 
ATOM     55  C   UNL     1       3.594   4.462  29.169  0.00  0.00    +0.004 C 
ATOM     56  C   UNL     1       4.014   3.334  30.105  0.00  0.00    +0.004 C 
ATOM     57  C   UNL     1       5.525   3.352  30.066  0.00  0.00    +0.045 C 
ENDBRANCH  52  53
ENDBRANCH  50  52
ENDBRANCH  47  48
BRANCH  47  58
ATOM     58  C   UNL     1       8.988   5.909  24.591  0.00  0.00    -0.011 C 
ATOM     59  C   UNL     1       9.739   6.604  25.760  0.00  0.00    +0.013 C 
ATOM     60  C   UNL     1       8.788   6.907  23.429  0.00  0.00    +0.013 C 
ATOM     61  C   UNL     1       9.905   4.777  24.071  0.00  0.00    +0.013 C 
ENDBRANCH  47  58
ENDBRANCH   4  47
TORSDOF 15
ENDMDL
