MODEL 1
REMARK VINA RESULT:      -6.5      0.000      0.000
REMARK  Name = 
REMARK  11 active torsions:
REMARK  status: ('A' for Active; 'I' for Inactive)
REMARK    1  A    between atoms: C_1  and  C_2
REMARK    2  A    between atoms: N_4  and  C_5
REMARK    3  A    between atoms: C_6  and  N_20
REMARK    4  A    between atoms: C_8  and  C_17
REMARK    5  A    between atoms: C_10  and  C_11
REMARK    6  A    between atoms: C_11  and  C_12
REMARK    7  A    between atoms: C_11  and  O_16
REMARK    8  A    between atoms: C_12  and  C_13
REMARK    9  A    between atoms: C_12  and  O_15
REMARK   10  A    between atoms: C_13  and  O_14
REMARK   11  A    between atoms: C_17  and  O_19
REMARK                            x       y       z     vdW  Elec       q    Type
REMARK                         _______ _______ _______ _____ _____    ______ ____
ROOT
ATOM      1  C   UNL     1       8.674  -2.347  23.967  0.00  0.00    +0.160 C 
ATOM      2  C   UNL     1       8.268  -1.675  22.627  0.00  0.00    +0.229 C 
ATOM      3  O   UNL     1       7.367  -2.389  21.767  0.00  0.00    -0.477 OA
ATOM      4  C   UNL     1       6.949  -3.652  22.085  0.00  0.00    +0.204 C 
ATOM      5  C   UNL     1       7.410  -4.369  23.115  0.00  0.00    +0.071 C 
ATOM      6  C   UNL     1       8.476  -3.879  24.024  0.00  0.00    +0.238 C 
ENDROOT
BRANCH   6   7
ATOM      7  N   UNL     1       8.110  -4.278  25.390  0.00  0.00    -0.104 NA
ATOM      8  C   UNL     1       8.707  -5.268  25.942  0.00  0.00    +0.377 C 
ATOM      9  N   UNL     1       8.373  -5.600  27.204  0.00  0.00    -0.289 N 
ATOM     10  H   UNL     1       9.142  -5.831  27.821  0.00  0.00    +0.255 HD
ATOM     11  H   UNL     1       7.758  -4.905  27.621  0.00  0.00    +0.255 HD
ATOM     12  N   UNL     1       9.647  -6.095  25.454  0.00  0.00    -0.289 N 
ATOM     13  H   UNL     1      10.192  -6.665  26.084  0.00  0.00    +0.255 HD
ATOM     14  H   UNL     1      10.048  -5.959  24.539  0.00  0.00    +0.255 HD
ENDBRANCH   6   7
BRANCH   1  17
ATOM     15  C   UNL     1       7.895  -0.216  27.031  0.00  0.00    +0.109 C 
ATOM     16  C   UNL     1       8.654  -0.710  25.835  0.00  0.00    +0.210 C 
ATOM     17  N   UNL     1       8.001  -1.657  25.086  0.00  0.00    -0.305 N 
ATOM     18  H   UNL     1       7.109  -2.046  25.377  0.00  0.00    +0.149 HD
ATOM     19  O   UNL     1       9.780  -0.304  25.552  0.00  0.00    -0.276 OA
ENDBRANCH   1  17
BRANCH   4  20
ATOM     20  C   UNL     1       5.951  -4.289  21.169  0.00  0.00    +0.372 C 
ATOM     21  O   UNL     1       5.802  -4.031  19.987  0.00  0.00    -0.242 OA
BRANCH  20  22
ATOM     22  O   UNL     1       5.190  -5.183  21.845  0.00  0.00    -0.475 OA
ATOM     23  H   UNL     1       5.749  -5.759  22.412  0.00  0.00    +0.296 HD
ENDBRANCH  20  22
ENDBRANCH   4  20
BRANCH   2  24
ATOM     24  C   UNL     1       9.503  -1.201  21.817  0.00  0.00    +0.187 C 
BRANCH  24  25
ATOM     25  O   UNL     1      10.700  -1.884  22.196  0.00  0.00    -0.385 OA
ATOM     26  H   UNL     1      11.088  -2.330  21.407  0.00  0.00    +0.210 HD
ENDBRANCH  24  25
BRANCH  24  27
ATOM     27  C   UNL     1       9.738   0.328  21.925  0.00  0.00    +0.172 C 
BRANCH  27  28
ATOM     28  O   UNL     1      10.494   0.670  23.100  0.00  0.00    -0.387 OA
ATOM     29  H   UNL     1      11.430   0.476  22.916  0.00  0.00    +0.210 HD
ENDBRANCH  27  28
BRANCH  27  30
ATOM     30  C   UNL     1       8.407   1.097  21.965  0.00  0.00    +0.189 C 
BRANCH  30  31
ATOM     31  O   UNL     1       8.595   2.434  21.506  0.00  0.00    -0.392 OA
ATOM     32  H   UNL     1       7.773   2.916  21.719  0.00  0.00    +0.210 HD
ENDBRANCH  30  31
ENDBRANCH  27  30
ENDBRANCH  24  27
ENDBRANCH   2  24
TORSDOF 10
ENDMDL
MODEL 2
REMARK VINA RESULT:      -6.2      1.365      1.467
REMARK  Name = 
REMARK  11 active torsions:
REMARK  status: ('A' for Active; 'I' for Inactive)
REMARK    1  A    between atoms: C_1  and  C_2
REMARK    2  A    between atoms: N_4  and  C_5
REMARK    3  A    between atoms: C_6  and  N_20
REMARK    4  A    between atoms: C_8  and  C_17
REMARK    5  A    between atoms: C_10  and  C_11
REMARK    6  A    between atoms: C_11  and  C_12
REMARK    7  A    between atoms: C_11  and  O_16
REMARK    8  A    between atoms: C_12  and  C_13
REMARK    9  A    between atoms: C_12  and  O_15
REMARK   10  A    between atoms: C_13  and  O_14
REMARK   11  A    between atoms: C_17  and  O_19
REMARK                            x       y       z     vdW  Elec       q    Type
REMARK                         _______ _______ _______ _____ _____    ______ ____
ROOT
ATOM      1  C   UNL     1       7.924  -2.640  24.503  0.00  0.00    +0.160 C 
ATOM      2  C   UNL     1       8.127  -2.400  22.982  0.00  0.00    +0.229 C 
ATOM      3  O   UNL     1       7.569  -3.361  22.072  0.00  0.00    -0.477 OA
ATOM      4  C   UNL     1       6.952  -4.490  22.540  0.00  0.00    +0.204 C 
ATOM      5  C   UNL     1       6.917  -4.861  23.823  0.00  0.00    +0.071 C 
ATOM      6  C   UNL     1       7.587  -4.095  24.903  0.00  0.00    +0.238 C 
ENDROOT
BRANCH   6   7
ATOM      7  N   UNL     1       6.689  -4.091  26.065  0.00  0.00    -0.104 NA
ATOM      8  C   UNL     1       6.912  -4.892  27.040  0.00  0.00    +0.377 C 
ATOM      9  N   UNL     1       6.090  -4.853  28.107  0.00  0.00    -0.289 N 
ATOM     10  H   UNL     1       6.537  -4.910  29.014  0.00  0.00    +0.255 HD
ATOM     11  H   UNL     1       5.452  -4.063  28.056  0.00  0.00    +0.255 HD
ATOM     12  N   UNL     1       7.859  -5.833  27.190  0.00  0.00    -0.289 N 
ATOM     13  H   UNL     1       8.054  -6.209  28.106  0.00  0.00    +0.255 HD
ATOM     14  H   UNL     1       8.588  -5.963  26.505  0.00  0.00    +0.255 HD
ENDBRANCH   6   7
BRANCH   1  17
ATOM     15  C   UNL     1       6.214   0.279  26.261  0.00  0.00    +0.109 C 
ATOM     16  C   UNL     1       7.327  -0.517  25.646  0.00  0.00    +0.210 C 
ATOM     17  N   UNL     1       6.933  -1.676  25.024  0.00  0.00    -0.305 N 
ATOM     18  H   UNL     1       5.971  -2.000  25.058  0.00  0.00    +0.149 HD
ATOM     19  O   UNL     1       8.503  -0.164  25.703  0.00  0.00    -0.276 OA
ENDBRANCH   1  17
BRANCH   4  20
ATOM     20  C   UNL     1       6.334  -5.398  21.522  0.00  0.00    +0.372 C 
ATOM     21  O   UNL     1       5.915  -5.061  20.428  0.00  0.00    -0.242 OA
BRANCH  20  22
ATOM     22  O   UNL     1       6.263  -6.663  21.997  0.00  0.00    -0.475 OA
ATOM     23  H   UNL     1       5.329  -6.921  22.166  0.00  0.00    +0.296 HD
ENDBRANCH  20  22
ENDBRANCH   4  20
BRANCH   2  24
ATOM     24  C   UNL     1       9.614  -2.143  22.627  0.00  0.00    +0.187 C 
BRANCH  24  25
ATOM     25  O   UNL     1      10.509  -2.682  23.602  0.00  0.00    -0.385 OA
ATOM     26  H   UNL     1      10.247  -3.608  23.812  0.00  0.00    +0.210 HD
ENDBRANCH  24  25
BRANCH  24  27
ATOM     27  C   UNL     1       9.930  -0.638  22.430  0.00  0.00    +0.172 C 
BRANCH  27  28
ATOM     28  O   UNL     1      10.478  -0.045  23.620  0.00  0.00    -0.387 OA
ATOM     29  H   UNL     1      10.098   0.847  23.708  0.00  0.00    +0.210 HD
ENDBRANCH  27  28
BRANCH  27  30
ATOM     30  C   UNL     1       8.671   0.151  22.032  0.00  0.00    +0.189 C 
BRANCH  30  31
ATOM     31  O   UNL     1       9.016   1.228  21.163  0.00  0.00    -0.392 OA
ATOM     32  H   UNL     1       8.367   1.211  20.433  0.00  0.00    +0.210 HD
ENDBRANCH  30  31
ENDBRANCH  27  30
ENDBRANCH  24  27
ENDBRANCH   2  24
TORSDOF 10
ENDMDL
MODEL 3
REMARK VINA RESULT:      -5.9      2.692      4.941
REMARK  Name = 
REMARK  11 active torsions:
REMARK  status: ('A' for Active; 'I' for Inactive)
REMARK    1  A    between atoms: C_1  and  C_2
REMARK    2  A    between atoms: N_4  and  C_5
REMARK    3  A    between atoms: C_6  and  N_20
REMARK    4  A    between atoms: C_8  and  C_17
REMARK    5  A    between atoms: C_10  and  C_11
REMARK    6  A    between atoms: C_11  and  C_12
REMARK    7  A    between atoms: C_11  and  O_16
REMARK    8  A    between atoms: C_12  and  C_13
REMARK    9  A    between atoms: C_12  and  O_15
REMARK   10  A    between atoms: C_13  and  O_14
REMARK   11  A    between atoms: C_17  and  O_19
REMARK                            x       y       z     vdW  Elec       q    Type
REMARK                         _______ _______ _______ _____ _____    ______ ____
ROOT
ATOM      1  C   UNL     1       8.023  -2.463  24.016  0.00  0.00    +0.160 C 
ATOM      2  C   UNL     1       8.427  -3.914  23.636  0.00  0.00    +0.229 C 
ATOM      3  O   UNL     1       7.386  -4.808  23.213  0.00  0.00    -0.477 OA
ATOM      4  C   UNL     1       6.076  -4.413  23.225  0.00  0.00    +0.204 C 
ATOM      5  C   UNL     1       5.636  -3.255  23.727  0.00  0.00    +0.071 C 
ATOM      6  C   UNL     1       6.532  -2.264  24.373  0.00  0.00    +0.238 C 
ENDROOT
BRANCH   6   7
ATOM      7  N   UNL     1       6.097  -0.928  23.943  0.00  0.00    -0.104 NA
ATOM      8  C   UNL     1       5.860  -0.026  24.821  0.00  0.00    +0.377 C 
ATOM      9  N   UNL     1       5.487   1.199  24.403  0.00  0.00    -0.289 N 
ATOM     10  H   UNL     1       5.911   1.982  24.886  0.00  0.00    +0.255 HD
ATOM     11  H   UNL     1       5.578   1.291  23.394  0.00  0.00    +0.255 HD
ATOM     12  N   UNL     1       5.898  -0.091  26.163  0.00  0.00    -0.289 N 
ATOM     13  H   UNL     1       5.926   0.758  26.707  0.00  0.00    +0.255 HD
ATOM     14  H   UNL     1       6.206  -0.923  26.644  0.00  0.00    +0.255 HD
ENDBRANCH   6   7
BRANCH   1  17
ATOM     15  C   UNL     1       9.814   0.258  22.035  0.00  0.00    +0.109 C 
ATOM     16  C   UNL     1       9.579  -0.742  23.128  0.00  0.00    +0.210 C 
ATOM     17  N   UNL     1       8.472  -1.535  22.958  0.00  0.00    -0.305 N 
ATOM     18  H   UNL     1       7.822  -1.389  22.190  0.00  0.00    +0.149 HD
ATOM     19  O   UNL     1      10.317  -0.838  24.107  0.00  0.00    -0.276 OA
ENDBRANCH   1  17
BRANCH   4  20
ATOM     20  C   UNL     1       5.068  -5.385  22.696  0.00  0.00    +0.372 C 
ATOM     21  O   UNL     1       3.858  -5.237  22.712  0.00  0.00    -0.242 OA
BRANCH  20  22
ATOM     22  O   UNL     1       5.683  -6.494  22.221  0.00  0.00    -0.475 OA
ATOM     23  H   UNL     1       5.035  -7.096  21.791  0.00  0.00    +0.296 HD
ENDBRANCH  20  22
ENDBRANCH   4  20
BRANCH   2  24
ATOM     24  C   UNL     1       9.283  -4.588  24.740  0.00  0.00    +0.187 C 
BRANCH  24  25
ATOM     25  O   UNL     1       9.478  -5.983  24.503  0.00  0.00    -0.385 OA
ATOM     26  H   UNL     1      10.107  -6.345  25.170  0.00  0.00    +0.210 HD
ENDBRANCH  24  25
BRANCH  24  27
ATOM     27  C   UNL     1       8.688  -4.396  26.158  0.00  0.00    +0.172 C 
BRANCH  27  28
ATOM     28  O   UNL     1       9.675  -4.603  27.185  0.00  0.00    -0.387 OA
ATOM     29  H   UNL     1       9.477  -3.988  27.913  0.00  0.00    +0.210 HD
ENDBRANCH  27  28
BRANCH  27  30
ATOM     30  C   UNL     1       7.518  -5.361  26.410  0.00  0.00    +0.189 C 
BRANCH  30  31
ATOM     31  O   UNL     1       7.661  -5.991  27.681  0.00  0.00    -0.392 OA
ATOM     32  H   UNL     1       8.105  -5.344  28.261  0.00  0.00    +0.210 HD
ENDBRANCH  30  31
ENDBRANCH  27  30
ENDBRANCH  24  27
ENDBRANCH   2  24
TORSDOF 10
ENDMDL
MODEL 4
REMARK VINA RESULT:      -5.7      2.423      5.080
REMARK  Name = 
REMARK  11 active torsions:
REMARK  status: ('A' for Active; 'I' for Inactive)
REMARK    1  A    between atoms: C_1  and  C_2
REMARK    2  A    between atoms: N_4  and  C_5
REMARK    3  A    between atoms: C_6  and  N_20
REMARK    4  A    between atoms: C_8  and  C_17
REMARK    5  A    between atoms: C_10  and  C_11
REMARK    6  A    between atoms: C_11  and  C_12
REMARK    7  A    between atoms: C_11  and  O_16
REMARK    8  A    between atoms: C_12  and  C_13
REMARK    9  A    between atoms: C_12  and  O_15
REMARK   10  A    between atoms: C_13  and  O_14
REMARK   11  A    between atoms: C_17  and  O_19
REMARK                            x       y       z     vdW  Elec       q    Type
REMARK                         _______ _______ _______ _____ _____    ______ ____
ROOT
ATOM      1  C   UNL     1       7.557  -2.895  23.917  0.00  0.00    +0.160 C 
ATOM      2  C   UNL     1       7.068  -1.594  23.222  0.00  0.00    +0.229 C 
ATOM      3  O   UNL     1       8.027  -0.544  23.019  0.00  0.00    -0.477 OA
ATOM      4  C   UNL     1       9.304  -0.661  23.498  0.00  0.00    +0.204 C 
ATOM      5  C   UNL     1       9.737  -1.658  24.274  0.00  0.00    +0.071 C 
ATOM      6  C   UNL     1       8.854  -2.755  24.745  0.00  0.00    +0.238 C 
ENDROOT
BRANCH   6   7
ATOM      7  N   UNL     1       9.623  -4.004  24.672  0.00  0.00    -0.104 NA
ATOM      8  C   UNL     1       9.505  -4.876  25.603  0.00  0.00    +0.377 C 
ATOM      9  N   UNL     1      10.200  -6.025  25.502  0.00  0.00    -0.289 N 
ATOM     10  H   UNL     1       9.701  -6.870  25.754  0.00  0.00    +0.255 HD
ATOM     11  H   UNL     1      10.644  -6.113  24.591  0.00  0.00    +0.255 HD
ATOM     12  N   UNL     1       8.788  -4.839  26.739  0.00  0.00    -0.289 N 
ATOM     13  H   UNL     1       8.605  -5.693  27.246  0.00  0.00    +0.255 HD
ATOM     14  H   UNL     1       8.170  -4.071  26.950  0.00  0.00    +0.255 HD
ENDBRANCH   6   7
BRANCH   1  17
ATOM     15  C   UNL     1       6.952  -6.034  21.839  0.00  0.00    +0.109 C 
ATOM     16  C   UNL     1       6.644  -4.906  22.779  0.00  0.00    +0.210 C 
ATOM     17  N   UNL     1       7.648  -3.980  22.918  0.00  0.00    -0.305 N 
ATOM     18  H   UNL     1       8.556  -4.105  22.479  0.00  0.00    +0.149 HD
ATOM     19  O   UNL     1       5.578  -4.822  23.386  0.00  0.00    -0.276 OA
ENDBRANCH   1  17
BRANCH   4  20
ATOM     20  C   UNL     1      10.255   0.450  23.173  0.00  0.00    +0.372 C 
ATOM     21  O   UNL     1      10.273   1.093  22.139  0.00  0.00    -0.242 OA
BRANCH  20  22
ATOM     22  O   UNL     1      11.138   0.627  24.185  0.00  0.00    -0.475 OA
ATOM     23  H   UNL     1      10.942   1.455  24.678  0.00  0.00    +0.296 HD
ENDBRANCH  20  22
ENDBRANCH   4  20
BRANCH   2  24
ATOM     24  C   UNL     1       5.794  -1.020  23.894  0.00  0.00    +0.187 C 
BRANCH  24  25
ATOM     25  O   UNL     1       5.912   0.374  24.186  0.00  0.00    -0.385 OA
ATOM     26  H   UNL     1       5.444   0.896  23.492  0.00  0.00    +0.210 HD
ENDBRANCH  24  25
BRANCH  24  27
ATOM     27  C   UNL     1       5.408  -1.776  25.191  0.00  0.00    +0.172 C 
BRANCH  27  28
ATOM     28  O   UNL     1       4.208  -2.550  25.022  0.00  0.00    -0.387 OA
ATOM     29  H   UNL     1       4.169  -3.197  25.748  0.00  0.00    +0.210 HD
ENDBRANCH  27  28
BRANCH  27  30
ATOM     30  C   UNL     1       5.196  -0.803  26.363  0.00  0.00    +0.189 C 
BRANCH  30  31
ATOM     31  O   UNL     1       3.919  -0.176  26.260  0.00  0.00    -0.392 OA
ATOM     32  H   UNL     1       3.567  -0.119  27.168  0.00  0.00    +0.210 HD
ENDBRANCH  30  31
ENDBRANCH  27  30
ENDBRANCH  24  27
ENDBRANCH   2  24
TORSDOF 10
ENDMDL
MODEL 5
REMARK VINA RESULT:      -5.7      1.968      5.615
REMARK  Name = 
REMARK  11 active torsions:
REMARK  status: ('A' for Active; 'I' for Inactive)
REMARK    1  A    between atoms: C_1  and  C_2
REMARK    2  A    between atoms: N_4  and  C_5
REMARK    3  A    between atoms: C_6  and  N_20
REMARK    4  A    between atoms: C_8  and  C_17
REMARK    5  A    between atoms: C_10  and  C_11
REMARK    6  A    between atoms: C_11  and  C_12
REMARK    7  A    between atoms: C_11  and  O_16
REMARK    8  A    between atoms: C_12  and  C_13
REMARK    9  A    between atoms: C_12  and  O_15
REMARK   10  A    between atoms: C_13  and  O_14
REMARK   11  A    between atoms: C_17  and  O_19
REMARK                            x       y       z     vdW  Elec       q    Type
REMARK                         _______ _______ _______ _____ _____    ______ ____
ROOT
ATOM      1  C   UNL     1       6.586  -2.858  24.078  0.00  0.00    +0.160 C 
ATOM      2  C   UNL     1       7.273  -3.458  22.821  0.00  0.00    +0.229 C 
ATOM      3  O   UNL     1       8.262  -2.659  22.153  0.00  0.00    -0.477 OA
ATOM      4  C   UNL     1       8.526  -1.382  22.568  0.00  0.00    +0.204 C 
ATOM      5  C   UNL     1       7.836  -0.731  23.510  0.00  0.00    +0.071 C 
ATOM      6  C   UNL     1       6.662  -1.319  24.200  0.00  0.00    +0.238 C 
ENDROOT
BRANCH   6   7
ATOM      7  N   UNL     1       6.747  -0.941  25.617  0.00  0.00    -0.104 NA
ATOM      8  C   UNL     1       6.034   0.027  26.058  0.00  0.00    +0.377 C 
ATOM      9  N   UNL     1       6.108   0.340  27.366  0.00  0.00    -0.289 N 
ATOM     10  H   UNL     1       5.230   0.547  27.825  0.00  0.00    +0.255 HD
ATOM     11  H   UNL     1       6.644  -0.353  27.884  0.00  0.00    +0.255 HD
ATOM     12  N   UNL     1       5.191   0.849  25.409  0.00  0.00    -0.289 N 
ATOM     13  H   UNL     1       4.523   1.398  25.930  0.00  0.00    +0.255 HD
ATOM     14  H   UNL     1       4.979   0.725  24.431  0.00  0.00    +0.255 HD
ENDBRANCH   6   7
BRANCH   1  17
ATOM     15  C   UNL     1       7.005  -5.132  27.109  0.00  0.00    +0.109 C 
ATOM     16  C   UNL     1       6.469  -4.651  25.793  0.00  0.00    +0.210 C 
ATOM     17  N   UNL     1       7.094  -3.539  25.287  0.00  0.00    -0.305 N 
ATOM     18  H   UNL     1       7.806  -3.039  25.812  0.00  0.00    +0.149 HD
ATOM     19  O   UNL     1       5.535  -5.205  25.216  0.00  0.00    -0.276 OA
ENDBRANCH   1  17
BRANCH   4  20
ATOM     20  C   UNL     1       9.625  -0.651  21.861  0.00  0.00    +0.372 C 
ATOM     21  O   UNL     1       9.577   0.502  21.470  0.00  0.00    -0.242 OA
BRANCH  20  22
ATOM     22  O   UNL     1      10.690  -1.466  21.672  0.00  0.00    -0.475 OA
ATOM     23  H   UNL     1      11.516  -0.942  21.573  0.00  0.00    +0.296 HD
ENDBRANCH  20  22
ENDBRANCH   4  20
BRANCH   2  24
ATOM     24  C   UNL     1       6.241  -3.987  21.790  0.00  0.00    +0.187 C 
BRANCH  24  25
ATOM     25  O   UNL     1       4.938  -4.144  22.355  0.00  0.00    -0.385 OA
ATOM     26  H   UNL     1       4.983  -4.771  23.115  0.00  0.00    +0.210 HD
ENDBRANCH  24  25
BRANCH  24  27
ATOM     27  C   UNL     1       6.676  -5.326  21.142  0.00  0.00    +0.172 C 
BRANCH  27  28
ATOM     28  O   UNL     1       5.772  -5.734  20.099  0.00  0.00    -0.387 OA
ATOM     29  H   UNL     1       5.062  -5.070  20.048  0.00  0.00    +0.210 HD
ENDBRANCH  27  28
BRANCH  27  30
ATOM     30  C   UNL     1       6.751  -6.454  22.185  0.00  0.00    +0.189 C 
BRANCH  30  31
ATOM     31  O   UNL     1       5.445  -6.778  22.658  0.00  0.00    -0.392 OA
ATOM     32  H   UNL     1       5.239  -7.667  22.312  0.00  0.00    +0.210 HD
ENDBRANCH  30  31
ENDBRANCH  27  30
ENDBRANCH  24  27
ENDBRANCH   2  24
TORSDOF 10
ENDMDL
MODEL 6
REMARK VINA RESULT:      -5.6      4.234      6.186
REMARK  Name = 
REMARK  11 active torsions:
REMARK  status: ('A' for Active; 'I' for Inactive)
REMARK    1  A    between atoms: C_1  and  C_2
REMARK    2  A    between atoms: N_4  and  C_5
REMARK    3  A    between atoms: C_6  and  N_20
REMARK    4  A    between atoms: C_8  and  C_17
REMARK    5  A    between atoms: C_10  and  C_11
REMARK    6  A    between atoms: C_11  and  C_12
REMARK    7  A    between atoms: C_11  and  O_16
REMARK    8  A    between atoms: C_12  and  C_13
REMARK    9  A    between atoms: C_12  and  O_15
REMARK   10  A    between atoms: C_13  and  O_14
REMARK   11  A    between atoms: C_17  and  O_19
REMARK                            x       y       z     vdW  Elec       q    Type
REMARK                         _______ _______ _______ _____ _____    ______ ____
ROOT
ATOM      1  C   UNL     1       5.066  -4.784  24.197  0.00  0.00    +0.160 C 
ATOM      2  C   UNL     1       6.126  -4.112  25.112  0.00  0.00    +0.229 C 
ATOM      3  O   UNL     1       6.331  -4.671  26.419  0.00  0.00    -0.477 OA
ATOM      4  C   UNL     1       5.558  -5.708  26.866  0.00  0.00    +0.204 C 
ATOM      5  C   UNL     1       4.500  -6.202  26.216  0.00  0.00    +0.071 C 
ATOM      6  C   UNL     1       4.013  -5.648  24.928  0.00  0.00    +0.238 C 
ENDROOT
BRANCH   6   7
ATOM      7  N   UNL     1       3.628  -6.781  24.077  0.00  0.00    -0.104 NA
ATOM      8  C   UNL     1       2.414  -6.893  23.683  0.00  0.00    +0.377 C 
ATOM      9  N   UNL     1       2.088  -7.926  22.882  0.00  0.00    -0.289 N 
ATOM     10  H   UNL     1       1.471  -7.711  22.109  0.00  0.00    +0.255 HD
ATOM     11  H   UNL     1       2.915  -8.429  22.570  0.00  0.00    +0.255 HD
ATOM     12  N   UNL     1       1.340  -6.133  23.959  0.00  0.00    -0.289 N 
ATOM     13  H   UNL     1       0.513  -6.204  23.384  0.00  0.00    +0.255 HD
ATOM     14  H   UNL     1       1.414  -5.290  24.506  0.00  0.00    +0.255 HD
ENDBRANCH   6   7
BRANCH   1  17
ATOM     15  C   UNL     1       6.437  -5.954  20.837  0.00  0.00    +0.109 C 
ATOM     16  C   UNL     1       5.861  -5.014  21.855  0.00  0.00    +0.210 C 
ATOM     17  N   UNL     1       5.749  -5.532  23.121  0.00  0.00    -0.305 N 
ATOM     18  H   UNL     1       5.964  -6.504  23.322  0.00  0.00    +0.149 HD
ATOM     19  O   UNL     1       5.508  -3.871  21.574  0.00  0.00    -0.276 OA
ENDBRANCH   1  17
BRANCH   4  20
ATOM     20  C   UNL     1       5.893  -6.275  28.211  0.00  0.00    +0.372 C 
ATOM     21  O   UNL     1       6.476  -5.688  29.106  0.00  0.00    -0.242 OA
BRANCH  20  22
ATOM     22  O   UNL     1       5.491  -7.565  28.294  0.00  0.00    -0.475 OA
ATOM     23  H   UNL     1       4.609  -7.628  28.726  0.00  0.00    +0.296 HD
ENDBRANCH  20  22
ENDBRANCH   4  20
BRANCH   2  24
ATOM     24  C   UNL     1       5.912  -2.580  25.222  0.00  0.00    +0.187 C 
BRANCH  24  25
ATOM     25  O   UNL     1       4.541  -2.208  25.068  0.00  0.00    -0.385 OA
ATOM     26  H   UNL     1       4.269  -1.633  25.820  0.00  0.00    +0.210 HD
ENDBRANCH  24  25
BRANCH  24  27
ATOM     27  C   UNL     1       6.769  -1.782  24.207  0.00  0.00    +0.172 C 
BRANCH  27  28
ATOM     28  O   UNL     1       6.029  -1.465  23.015  0.00  0.00    -0.387 OA
ATOM     29  H   UNL     1       6.400  -1.995  22.287  0.00  0.00    +0.210 HD
ENDBRANCH  27  28
BRANCH  27  30
ATOM     30  C   UNL     1       8.028  -2.565  23.801  0.00  0.00    +0.189 C 
BRANCH  30  31
ATOM     31  O   UNL     1       8.184  -2.551  22.383  0.00  0.00    -0.392 OA
ATOM     32  H   UNL     1       8.342  -1.621  22.133  0.00  0.00    +0.210 HD
ENDBRANCH  30  31
ENDBRANCH  27  30
ENDBRANCH  24  27
ENDBRANCH   2  24
TORSDOF 10
ENDMDL
MODEL 7
REMARK VINA RESULT:      -5.6      2.323      4.117
REMARK  Name = 
REMARK  11 active torsions:
REMARK  status: ('A' for Active; 'I' for Inactive)
REMARK    1  A    between atoms: C_1  and  C_2
REMARK    2  A    between atoms: N_4  and  C_5
REMARK    3  A    between atoms: C_6  and  N_20
REMARK    4  A    between atoms: C_8  and  C_17
REMARK    5  A    between atoms: C_10  and  C_11
REMARK    6  A    between atoms: C_11  and  C_12
REMARK    7  A    between atoms: C_11  and  O_16
REMARK    8  A    between atoms: C_12  and  C_13
REMARK    9  A    between atoms: C_12  and  O_15
REMARK   10  A    between atoms: C_13  and  O_14
REMARK   11  A    between atoms: C_17  and  O_19
REMARK                            x       y       z     vdW  Elec       q    Type
REMARK                         _______ _______ _______ _____ _____    ______ ____
ROOT
ATOM      1  C   UNL     1       7.276  -2.739  24.908  0.00  0.00    +0.160 C 
ATOM      2  C   UNL     1       6.711  -1.419  24.314  0.00  0.00    +0.229 C 
ATOM      3  O   UNL     1       7.472  -0.769  23.285  0.00  0.00    -0.477 OA
ATOM      4  C   UNL     1       8.693  -1.256  22.904  0.00  0.00    +0.204 C 
ATOM      5  C   UNL     1       9.330  -2.265  23.506  0.00  0.00    +0.071 C 
ATOM      6  C   UNL     1       8.792  -2.960  24.702  0.00  0.00    +0.238 C 
ENDROOT
BRANCH   6   7
ATOM      7  N   UNL     1       9.063  -4.395  24.540  0.00  0.00    -0.104 NA
ATOM      8  C   UNL     1       9.376  -5.099  25.562  0.00  0.00    +0.377 C 
ATOM      9  N   UNL     1       9.596  -6.418  25.394  0.00  0.00    -0.289 N 
ATOM     10  H   UNL     1       9.203  -7.027  26.101  0.00  0.00    +0.255 HD
ATOM     11  H   UNL     1       9.339  -6.721  24.458  0.00  0.00    +0.255 HD
ATOM     12  N   UNL     1       9.557  -4.736  26.843  0.00  0.00    -0.289 N 
ATOM     13  H   UNL     1       9.560  -5.437  27.570  0.00  0.00    +0.255 HD
ATOM     14  H   UNL     1       9.386  -3.792  27.155  0.00  0.00    +0.255 HD
ENDBRANCH   6   7
BRANCH   1  17
ATOM     15  C   UNL     1       5.100  -5.860  24.658  0.00  0.00    +0.109 C 
ATOM     16  C   UNL     1       5.728  -4.646  25.278  0.00  0.00    +0.210 C 
ATOM     17  N   UNL     1       6.475  -3.880  24.418  0.00  0.00    -0.305 N 
ATOM     18  H   UNL     1       6.651  -4.168  23.460  0.00  0.00    +0.149 HD
ATOM     19  O   UNL     1       5.591  -4.364  26.467  0.00  0.00    -0.276 OA
ENDBRANCH   1  17
BRANCH   4  20
ATOM     20  C   UNL     1       9.381  -0.558  21.772  0.00  0.00    +0.372 C 
ATOM     21  O   UNL     1       9.187   0.594  21.423  0.00  0.00    -0.242 OA
BRANCH  20  22
ATOM     22  O   UNL     1      10.237  -1.400  21.147  0.00  0.00    -0.475 OA
ATOM     23  H   UNL     1      10.431  -1.086  20.235  0.00  0.00    +0.296 HD
ENDBRANCH  20  22
ENDBRANCH   4  20
BRANCH   2  24
ATOM     24  C   UNL     1       6.339  -0.397  25.419  0.00  0.00    +0.187 C 
BRANCH  24  25
ATOM     25  O   UNL     1       5.257   0.454  25.034  0.00  0.00    -0.385 OA
ATOM     26  H   UNL     1       4.415  -0.059  25.050  0.00  0.00    +0.210 HD
ENDBRANCH  24  25
BRANCH  24  27
ATOM     27  C   UNL     1       7.541   0.481  25.850  0.00  0.00    +0.172 C 
BRANCH  27  28
ATOM     28  O   UNL     1       7.686   0.525  27.281  0.00  0.00    -0.387 OA
ATOM     29  H   UNL     1       6.984  -0.028  27.666  0.00  0.00    +0.210 HD
ENDBRANCH  27  28
BRANCH  27  30
ATOM     30  C   UNL     1       7.395   1.923  25.335  0.00  0.00    +0.189 C 
BRANCH  30  31
ATOM     31  O   UNL     1       7.693   1.982  23.941  0.00  0.00    -0.392 OA
ATOM     32  H   UNL     1       7.023   2.569  23.541  0.00  0.00    +0.210 HD
ENDBRANCH  30  31
ENDBRANCH  27  30
ENDBRANCH  24  27
ENDBRANCH   2  24
TORSDOF 10
ENDMDL
MODEL 8
REMARK VINA RESULT:      -5.5      3.259      5.654
REMARK  Name = 
REMARK  11 active torsions:
REMARK  status: ('A' for Active; 'I' for Inactive)
REMARK    1  A    between atoms: C_1  and  C_2
REMARK    2  A    between atoms: N_4  and  C_5
REMARK    3  A    between atoms: C_6  and  N_20
REMARK    4  A    between atoms: C_8  and  C_17
REMARK    5  A    between atoms: C_10  and  C_11
REMARK    6  A    between atoms: C_11  and  C_12
REMARK    7  A    between atoms: C_11  and  O_16
REMARK    8  A    between atoms: C_12  and  C_13
REMARK    9  A    between atoms: C_12  and  O_15
REMARK   10  A    between atoms: C_13  and  O_14
REMARK   11  A    between atoms: C_17  and  O_19
REMARK                            x       y       z     vdW  Elec       q    Type
REMARK                         _______ _______ _______ _____ _____    ______ ____
ROOT
ATOM      1  C   UNL     1       6.488  -4.152  24.328  0.00  0.00    +0.160 C 
ATOM      2  C   UNL     1       6.597  -3.060  25.427  0.00  0.00    +0.229 C 
ATOM      3  O   UNL     1       6.833  -1.708  25.006  0.00  0.00    -0.477 OA
ATOM      4  C   UNL     1       7.036  -1.412  23.685  0.00  0.00    +0.204 C 
ATOM      5  C   UNL     1       7.155  -2.321  22.712  0.00  0.00    +0.071 C 
ATOM      6  C   UNL     1       7.118  -3.783  22.965  0.00  0.00    +0.238 C 
ENDROOT
BRANCH   6   7
ATOM      7  N   UNL     1       6.342  -4.399  21.881  0.00  0.00    -0.104 NA
ATOM      8  C   UNL     1       6.602  -5.601  21.520  0.00  0.00    +0.377 C 
ATOM      9  N   UNL     1       5.861  -6.155  20.541  0.00  0.00    -0.289 N 
ATOM     10  H   UNL     1       5.579  -7.116  20.687  0.00  0.00    +0.255 HD
ATOM     11  H   UNL     1       5.067  -5.567  20.298  0.00  0.00    +0.255 HD
ATOM     12  N   UNL     1       7.549  -6.450  21.953  0.00  0.00    -0.289 N 
ATOM     13  H   UNL     1       7.472  -7.436  21.749  0.00  0.00    +0.255 HD
ATOM     14  H   UNL     1       8.162  -6.214  22.719  0.00  0.00    +0.255 HD
ENDBRANCH   6   7
BRANCH   1  17
ATOM     15  C   UNL     1       3.212  -6.099  24.442  0.00  0.00    +0.109 C 
ATOM     16  C   UNL     1       4.619  -5.718  24.801  0.00  0.00    +0.210 C 
ATOM     17  N   UNL     1       5.079  -4.576  24.194  0.00  0.00    -0.305 N 
ATOM     18  H   UNL     1       4.532  -4.083  23.494  0.00  0.00    +0.149 HD
ATOM     19  O   UNL     1       5.309  -6.382  25.571  0.00  0.00    -0.276 OA
ENDBRANCH   1  17
BRANCH   4  20
ATOM     20  C   UNL     1       7.199   0.033  23.330  0.00  0.00    +0.372 C 
ATOM     21  O   UNL     1       8.258   0.608  23.152  0.00  0.00    -0.242 OA
BRANCH  20  22
ATOM     22  O   UNL     1       5.992   0.644  23.266  0.00  0.00    -0.475 OA
ATOM     23  H   UNL     1       5.831   1.184  24.072  0.00  0.00    +0.296 HD
ENDBRANCH  20  22
ENDBRANCH   4  20
BRANCH   2  24
ATOM     24  C   UNL     1       7.610  -3.450  26.536  0.00  0.00    +0.187 C 
BRANCH  24  25
ATOM     25  O   UNL     1       8.697  -2.527  26.630  0.00  0.00    -0.385 OA
ATOM     26  H   UNL     1       8.413  -1.737  27.146  0.00  0.00    +0.210 HD
ENDBRANCH  24  25
BRANCH  24  27
ATOM     27  C   UNL     1       8.177  -4.881  26.352  0.00  0.00    +0.172 C 
BRANCH  27  28
ATOM     28  O   UNL     1       7.822  -5.742  27.448  0.00  0.00    -0.387 OA
ATOM     29  H   UNL     1       8.622  -5.878  27.986  0.00  0.00    +0.210 HD
ENDBRANCH  27  28
BRANCH  27  30
ATOM     30  C   UNL     1       9.709  -4.863  26.226  0.00  0.00    +0.189 C 
BRANCH  30  31
ATOM     31  O   UNL     1      10.106  -5.347  24.945  0.00  0.00    -0.392 OA
ATOM     32  H   UNL     1      11.058  -5.551  25.010  0.00  0.00    +0.210 HD
ENDBRANCH  30  31
ENDBRANCH  27  30
ENDBRANCH  24  27
ENDBRANCH   2  24
TORSDOF 10
ENDMDL
MODEL 9
REMARK VINA RESULT:      -5.4      3.818      6.668
REMARK  Name = 
REMARK  11 active torsions:
REMARK  status: ('A' for Active; 'I' for Inactive)
REMARK    1  A    between atoms: C_1  and  C_2
REMARK    2  A    between atoms: N_4  and  C_5
REMARK    3  A    between atoms: C_6  and  N_20
REMARK    4  A    between atoms: C_8  and  C_17
REMARK    5  A    between atoms: C_10  and  C_11
REMARK    6  A    between atoms: C_11  and  C_12
REMARK    7  A    between atoms: C_11  and  O_16
REMARK    8  A    between atoms: C_12  and  C_13
REMARK    9  A    between atoms: C_12  and  O_15
REMARK   10  A    between atoms: C_13  and  O_14
REMARK   11  A    between atoms: C_17  and  O_19
REMARK                            x       y       z     vdW  Elec       q    Type
REMARK                         _______ _______ _______ _____ _____    ______ ____
ROOT
ATOM      1  C   UNL     1       7.425  -3.723  24.856  0.00  0.00    +0.160 C 
ATOM      2  C   UNL     1       6.356  -3.973  25.955  0.00  0.00    +0.229 C 
ATOM      3  O   UNL     1       5.563  -2.855  26.383  0.00  0.00    -0.477 OA
ATOM      4  C   UNL     1       5.802  -1.600  25.894  0.00  0.00    +0.204 C 
ATOM      5  C   UNL     1       6.829  -1.275  25.102  0.00  0.00    +0.071 C 
ATOM      6  C   UNL     1       7.866  -2.252  24.686  0.00  0.00    +0.238 C 
ENDROOT
BRANCH   6   7
ATOM      7  N   UNL     1       8.178  -1.991  23.274  0.00  0.00    -0.104 NA
ATOM      8  C   UNL     1       9.303  -1.467  22.961  0.00  0.00    +0.377 C 
ATOM      9  N   UNL     1       9.578  -1.261  21.658  0.00  0.00    -0.289 N 
ATOM     10  H   UNL     1      10.518  -1.493  21.360  0.00  0.00    +0.255 HD
ATOM     11  H   UNL     1       8.880  -1.693  21.058  0.00  0.00    +0.255 HD
ATOM     12  N   UNL     1      10.310  -1.042  23.743  0.00  0.00    -0.289 N 
ATOM     13  H   UNL     1      11.224  -0.881  23.345  0.00  0.00    +0.255 HD
ATOM     14  H   UNL     1      10.290  -1.165  24.744  0.00  0.00    +0.255 HD
ENDBRANCH   6   7
BRANCH   1  17
ATOM     15  C   UNL     1       7.148  -5.766  21.649  0.00  0.00    +0.109 C 
ATOM     16  C   UNL     1       7.633  -5.377  23.014  0.00  0.00    +0.210 C 
ATOM     17  N   UNL     1       6.969  -4.319  23.584  0.00  0.00    -0.305 N 
ATOM     18  H   UNL     1       6.262  -3.795  23.075  0.00  0.00    +0.149 HD
ATOM     19  O   UNL     1       8.562  -5.955  23.576  0.00  0.00    -0.276 OA
ENDBRANCH   1  17
BRANCH   4  20
ATOM     20  C   UNL     1       4.877  -0.509  26.339  0.00  0.00    +0.372 C 
ATOM     21  O   UNL     1       4.288  -0.466  27.404  0.00  0.00    -0.242 OA
BRANCH  20  22
ATOM     22  O   UNL     1       4.746   0.426  25.368  0.00  0.00    -0.475 OA
ATOM     23  H   UNL     1       5.150   0.114  24.527  0.00  0.00    +0.296 HD
ENDBRANCH  20  22
ENDBRANCH   4  20
BRANCH   2  24
ATOM     24  C   UNL     1       6.950  -4.699  27.190  0.00  0.00    +0.187 C 
BRANCH  24  25
ATOM     25  O   UNL     1       7.767  -5.815  26.827  0.00  0.00    -0.385 OA
ATOM     26  H   UNL     1       8.690  -5.508  26.670  0.00  0.00    +0.210 HD
ENDBRANCH  24  25
BRANCH  24  27
ATOM     27  C   UNL     1       5.861  -5.174  28.186  0.00  0.00    +0.172 C 
BRANCH  27  28
ATOM     28  O   UNL     1       6.419  -5.512  29.468  0.00  0.00    -0.387 OA
ATOM     29  H   UNL     1       7.138  -4.882  29.653  0.00  0.00    +0.210 HD
ENDBRANCH  27  28
BRANCH  27  30
ATOM     30  C   UNL     1       5.108  -6.402  27.647  0.00  0.00    +0.189 C 
BRANCH  30  31
ATOM     31  O   UNL     1       5.582  -7.590  28.279  0.00  0.00    -0.392 OA
ATOM     32  H   UNL     1       6.201  -7.302  28.977  0.00  0.00    +0.210 HD
ENDBRANCH  30  31
ENDBRANCH  27  30
ENDBRANCH  24  27
ENDBRANCH   2  24
TORSDOF 10
ENDMDL
