MODEL 1
REMARK VINA RESULT:      -6.1      0.000      0.000
REMARK  Name = 
REMARK  7 active torsions:
REMARK  status: ('A' for Active; 'I' for Inactive)
REMARK    1  A    between atoms: C_1  and  C_2
REMARK    2  A    between atoms: C_4  and  C_25
REMARK    3  A    between atoms: C_6  and  C_24
REMARK    4  A    between atoms: C_7  and  N_8
REMARK    5  A    between atoms: N_15  and  C_16
REMARK    6  A    between atoms: C_19  and  C_22
REMARK    7  A    between atoms: C_26  and  C_27
REMARK                            x       y       z     vdW  Elec       q    Type
REMARK                         _______ _______ _______ _____ _____    ______ ____
ROOT
ATOM      1  N   UNL     1       8.418   5.964  24.145  0.00  0.00    -0.299 N 
ATOM      2  H   UNL     1       8.497   6.682  24.853  0.00  0.00    +0.154 HD
ATOM      3  C   UNL     1       9.654   5.329  23.920  0.00  0.00    +0.128 A 
ATOM      4  C   UNL     1      10.773   6.111  23.736  0.00  0.00    +0.063 A 
ATOM      5  C   UNL     1      11.942   5.447  23.456  0.00  0.00    +0.118 A 
ATOM      6  N   UNL     1      12.032   4.108  23.360  0.00  0.00    -0.223 NA
ATOM      7  C   UNL     1      10.900   3.415  23.549  0.00  0.00    +0.221 A 
ATOM      8  N   UNL     1      10.990   2.030  23.407  0.00  0.00    -0.284 N 
ATOM      9  H   UNL     1      11.943   1.773  23.196  0.00  0.00    +0.155 HD
ATOM     10  N   UNL     1       9.730   3.996  23.843  0.00  0.00    -0.199 NA
ENDROOT
BRANCH   1  13
ATOM     11  C   UNL     1       7.068   4.197  26.223  0.00  0.00    +0.046 C 
ATOM     12  C   UNL     1       6.489   4.603  24.896  0.00  0.00    -0.028 A 
ATOM     13  C   UNL     1       7.096   5.489  23.977  0.00  0.00    +0.038 A 
ATOM     14  C   UNL     1       6.369   5.848  22.809  0.00  0.00    -0.028 A 
ATOM     15  C   UNL     1       6.818   6.965  21.899  0.00  0.00    +0.046 C 
ATOM     16  C   UNL     1       5.178   5.166  22.485  0.00  0.00    +0.013 A 
ATOM     17  C   UNL     1       4.659   4.178  23.326  0.00  0.00    -0.024 A 
ATOM     18  C   UNL     1       5.302   3.942  24.535  0.00  0.00    +0.013 A 
BRANCH  17  19
ATOM     19  C   UNL     1       3.477   3.358  23.042  0.00  0.00    +0.019 C 
ATOM     20  C   UNL     1       2.887   3.358  21.849  0.00  0.00    +0.089 C 
BRANCH  20  21
ATOM     21  C   UNL     1       1.568   2.665  21.549  0.00  0.00    +0.091 C 
ATOM     22  N   UNL     1       0.473   2.089  21.301  0.00  0.00    -0.191 NA
ENDBRANCH  20  21
ENDBRANCH  17  19
ENDBRANCH   1  13
BRANCH   8  23
ATOM     23  C   UNL     1      10.003   1.041  23.284  0.00  0.00    +0.034 A 
ATOM     24  C   UNL     1       9.801   0.429  22.038  0.00  0.00    +0.024 A 
ATOM     25  C   UNL     1       8.809  -0.543  21.860  0.00  0.00    +0.020 A 
ATOM     26  C   UNL     1       7.995  -0.923  22.929  0.00  0.00    +0.052 A 
ATOM     27  C   UNL     1       8.204  -0.353  24.180  0.00  0.00    +0.020 A 
ATOM     28  C   UNL     1       9.203   0.611  24.349  0.00  0.00    +0.024 A 
BRANCH  26  29
ATOM     29  C   UNL     1       6.962  -1.895  22.747  0.00  0.00    +0.099 C 
ATOM     30  N   UNL     1       6.118  -2.682  22.608  0.00  0.00    -0.191 NA
ENDBRANCH  26  29
ENDBRANCH   8  23
TORSDOF 5
ENDMDL
MODEL 2
REMARK VINA RESULT:      -6.1      4.017      7.930
REMARK  Name = 
REMARK  7 active torsions:
REMARK  status: ('A' for Active; 'I' for Inactive)
REMARK    1  A    between atoms: C_1  and  C_2
REMARK    2  A    between atoms: C_4  and  C_25
REMARK    3  A    between atoms: C_6  and  C_24
REMARK    4  A    between atoms: C_7  and  N_8
REMARK    5  A    between atoms: N_15  and  C_16
REMARK    6  A    between atoms: C_19  and  C_22
REMARK    7  A    between atoms: C_26  and  C_27
REMARK                            x       y       z     vdW  Elec       q    Type
REMARK                         _______ _______ _______ _____ _____    ______ ____
ROOT
ATOM      1  N   UNL     1       8.359  -2.229  22.090  0.00  0.00    -0.299 N 
ATOM      2  H   UNL     1       8.258  -2.444  21.107  0.00  0.00    +0.154 HD
ATOM      3  C   UNL     1       8.532  -0.848  22.297  0.00  0.00    +0.128 A 
ATOM      4  C   UNL     1       9.456  -0.177  21.528  0.00  0.00    +0.063 A 
ATOM      5  C   UNL     1       9.635   1.155  21.812  0.00  0.00    +0.118 A 
ATOM      6  N   UNL     1       8.962   1.805  22.779  0.00  0.00    -0.223 NA
ATOM      7  C   UNL     1       8.081   1.085  23.487  0.00  0.00    +0.221 A 
ATOM      8  N   UNL     1       7.418   1.754  24.515  0.00  0.00    -0.284 N 
ATOM      9  H   UNL     1       7.714   2.719  24.538  0.00  0.00    +0.155 HD
ATOM     10  N   UNL     1       7.844  -0.212  23.252  0.00  0.00    -0.199 NA
ENDROOT
BRANCH   1  13
ATOM     11  C   UNL     1       5.729  -3.625  21.458  0.00  0.00    +0.046 C 
ATOM     12  C   UNL     1       6.560  -3.822  22.695  0.00  0.00    -0.028 A 
ATOM     13  C   UNL     1       7.819  -3.226  22.937  0.00  0.00    +0.038 A 
ATOM     14  C   UNL     1       8.522  -3.596  24.116  0.00  0.00    -0.028 A 
ATOM     15  C   UNL     1       9.964  -3.211  24.342  0.00  0.00    +0.046 C 
ATOM     16  C   UNL     1       7.877  -4.363  25.109  0.00  0.00    +0.013 A 
ATOM     17  C   UNL     1       6.571  -4.824  24.929  0.00  0.00    -0.024 A 
ATOM     18  C   UNL     1       5.950  -4.580  23.710  0.00  0.00    +0.013 A 
BRANCH  17  19
ATOM     19  C   UNL     1       5.786  -5.558  25.927  0.00  0.00    +0.019 C 
ATOM     20  C   UNL     1       6.151  -5.620  27.206  0.00  0.00    +0.089 C 
BRANCH  20  21
ATOM     21  C   UNL     1       5.475  -6.500  28.245  0.00  0.00    +0.091 C 
ATOM     22  N   UNL     1       4.915  -7.230  29.107  0.00  0.00    -0.191 NA
ENDBRANCH  20  21
ENDBRANCH  17  19
ENDBRANCH   1  13
BRANCH   8  23
ATOM     23  C   UNL     1       6.646   1.282  25.587  0.00  0.00    +0.034 A 
ATOM     24  C   UNL     1       7.284   0.948  26.792  0.00  0.00    +0.024 A 
ATOM     25  C   UNL     1       6.560   0.445  27.879  0.00  0.00    +0.020 A 
ATOM     26  C   UNL     1       5.178   0.264  27.784  0.00  0.00    +0.052 A 
ATOM     27  C   UNL     1       4.524   0.623  26.611  0.00  0.00    +0.020 A 
ATOM     28  C   UNL     1       5.256   1.133  25.532  0.00  0.00    +0.024 A 
BRANCH  26  29
ATOM     29  C   UNL     1       4.437  -0.274  28.883  0.00  0.00    +0.099 C 
ATOM     30  N   UNL     1       3.843  -0.713  29.780  0.00  0.00    -0.191 NA
ENDBRANCH  26  29
ENDBRANCH   8  23
TORSDOF 5
ENDMDL
MODEL 3
REMARK VINA RESULT:      -6.0      4.371      9.273
REMARK  Name = 
REMARK  7 active torsions:
REMARK  status: ('A' for Active; 'I' for Inactive)
REMARK    1  A    between atoms: C_1  and  C_2
REMARK    2  A    between atoms: C_4  and  C_25
REMARK    3  A    between atoms: C_6  and  C_24
REMARK    4  A    between atoms: C_7  and  N_8
REMARK    5  A    between atoms: N_15  and  C_16
REMARK    6  A    between atoms: C_19  and  C_22
REMARK    7  A    between atoms: C_26  and  C_27
REMARK                            x       y       z     vdW  Elec       q    Type
REMARK                         _______ _______ _______ _____ _____    ______ ____
ROOT
ATOM      1  N   UNL     1       6.978  -5.246  24.156  0.00  0.00    -0.299 N 
ATOM      2  H   UNL     1       7.415  -6.158  24.148  0.00  0.00    +0.154 HD
ATOM      3  C   UNL     1       5.872  -5.215  25.025  0.00  0.00    +0.128 A 
ATOM      4  C   UNL     1       4.942  -6.227  24.943  0.00  0.00    +0.063 A 
ATOM      5  C   UNL     1       3.848  -6.120  25.767  0.00  0.00    +0.118 A 
ATOM      6  N   UNL     1       3.659  -5.097  26.621  0.00  0.00    -0.223 NA
ATOM      7  C   UNL     1       4.606  -4.149  26.642  0.00  0.00    +0.221 A 
ATOM      8  N   UNL     1       4.384  -3.071  27.499  0.00  0.00    -0.284 N 
ATOM      9  H   UNL     1       3.516  -3.206  27.996  0.00  0.00    +0.155 HD
ATOM     10  N   UNL     1       5.706  -4.200  25.880  0.00  0.00    -0.199 NA
ENDROOT
BRANCH   1  13
ATOM     11  C   UNL     1       9.714  -4.817  25.421  0.00  0.00    +0.046 C 
ATOM     12  C   UNL     1       9.081  -3.952  24.367  0.00  0.00    -0.028 A 
ATOM     13  C   UNL     1       7.844  -4.209  23.733  0.00  0.00    +0.038 A 
ATOM     14  C   UNL     1       7.434  -3.343  22.682  0.00  0.00    -0.028 A 
ATOM     15  C   UNL     1       6.265  -3.670  21.786  0.00  0.00    +0.046 C 
ATOM     16  C   UNL     1       8.140  -2.146  22.442  0.00  0.00    +0.013 A 
ATOM     17  C   UNL     1       9.281  -1.820  23.179  0.00  0.00    -0.024 A 
ATOM     18  C   UNL     1       9.754  -2.747  24.100  0.00  0.00    +0.013 A 
BRANCH  17  19
ATOM     19  C   UNL     1      10.037  -0.569  23.062  0.00  0.00    +0.019 C 
ATOM     20  C   UNL     1       9.808   0.472  23.859  0.00  0.00    +0.089 C 
BRANCH  20  21
ATOM     21  C   UNL     1      10.437   1.843  23.675  0.00  0.00    +0.091 C 
ATOM     22  N   UNL     1      10.959   2.981  23.522  0.00  0.00    -0.191 NA
ENDBRANCH  20  21
ENDBRANCH  17  19
ENDBRANCH   1  13
BRANCH   8  23
ATOM     23  C   UNL     1       5.004  -1.816  27.596  0.00  0.00    +0.034 A 
ATOM     24  C   UNL     1       4.470  -0.857  28.470  0.00  0.00    +0.024 A 
ATOM     25  C   UNL     1       5.037   0.418  28.580  0.00  0.00    +0.020 A 
ATOM     26  C   UNL     1       6.154   0.762  27.814  0.00  0.00    +0.052 A 
ATOM     27  C   UNL     1       6.718  -0.187  26.969  0.00  0.00    +0.020 A 
ATOM     28  C   UNL     1       6.148  -1.461  26.873  0.00  0.00    +0.024 A 
BRANCH  26  29
ATOM     29  C   UNL     1       6.721   2.072  27.902  0.00  0.00    +0.099 C 
ATOM     30  N   UNL     1       7.175   3.140  27.968  0.00  0.00    -0.191 NA
ENDBRANCH  26  29
ENDBRANCH   8  23
TORSDOF 5
ENDMDL
MODEL 4
REMARK VINA RESULT:      -5.9      2.742      5.810
REMARK  Name = 
REMARK  7 active torsions:
REMARK  status: ('A' for Active; 'I' for Inactive)
REMARK    1  A    between atoms: C_1  and  C_2
REMARK    2  A    between atoms: C_4  and  C_25
REMARK    3  A    between atoms: C_6  and  C_24
REMARK    4  A    between atoms: C_7  and  N_8
REMARK    5  A    between atoms: N_15  and  C_16
REMARK    6  A    between atoms: C_19  and  C_22
REMARK    7  A    between atoms: C_26  and  C_27
REMARK                            x       y       z     vdW  Elec       q    Type
REMARK                         _______ _______ _______ _____ _____    ______ ____
ROOT
ATOM      1  N   UNL     1      10.339   2.733  22.886  0.00  0.00    -0.299 N 
ATOM      2  H   UNL     1      10.649   2.631  21.929  0.00  0.00    +0.154 HD
ATOM      3  C   UNL     1      10.661   4.005  23.395  0.00  0.00    +0.128 A 
ATOM      4  C   UNL     1      11.941   4.480  23.217  0.00  0.00    +0.063 A 
ATOM      5  C   UNL     1      12.225   5.697  23.787  0.00  0.00    +0.118 A 
ATOM      6  N   UNL     1      11.330   6.417  24.488  0.00  0.00    -0.223 NA
ATOM      7  C   UNL     1      10.106   5.888  24.620  0.00  0.00    +0.221 A 
ATOM      8  N   UNL     1       9.194   6.618  25.383  0.00  0.00    -0.284 N 
ATOM      9  H   UNL     1       9.628   7.472  25.703  0.00  0.00    +0.155 HD
ATOM     10  N   UNL     1       9.755   4.715  24.076  0.00  0.00    -0.199 NA
ENDROOT
BRANCH   1  13
ATOM     11  C   UNL     1      10.766   0.447  24.850  0.00  0.00    +0.046 C 
ATOM     12  C   UNL     1       9.505   0.729  24.081  0.00  0.00    -0.028 A 
ATOM     13  C   UNL     1       9.297   1.841  23.233  0.00  0.00    +0.038 A 
ATOM     14  C   UNL     1       8.009   2.015  22.657  0.00  0.00    -0.028 A 
ATOM     15  C   UNL     1       7.615   3.286  21.945  0.00  0.00    +0.046 C 
ATOM     16  C   UNL     1       7.048   0.987  22.759  0.00  0.00    +0.013 A 
ATOM     17  C   UNL     1       7.315  -0.183  23.474  0.00  0.00    -0.024 A 
ATOM     18  C   UNL     1       8.523  -0.274  24.155  0.00  0.00    +0.013 A 
BRANCH  17  19
ATOM     19  C   UNL     1       6.419  -1.339  23.575  0.00  0.00    +0.019 C 
ATOM     20  C   UNL     1       6.410  -2.307  22.660  0.00  0.00    +0.089 C 
BRANCH  20  21
ATOM     21  C   UNL     1       5.392  -3.435  22.621  0.00  0.00    +0.091 C 
ATOM     22  N   UNL     1       4.548  -4.371  22.588  0.00  0.00    -0.191 NA
ENDBRANCH  20  21
ENDBRANCH  17  19
ENDBRANCH   1  13
BRANCH   8  23
ATOM     23  C   UNL     1       7.950   6.272  25.930  0.00  0.00    +0.034 A 
ATOM     24  C   UNL     1       7.797   6.264  27.325  0.00  0.00    +0.024 A 
ATOM     25  C   UNL     1       6.583   5.897  27.919  0.00  0.00    +0.020 A 
ATOM     26  C   UNL     1       5.494   5.528  27.126  0.00  0.00    +0.052 A 
ATOM     27  C   UNL     1       5.616   5.564  25.742  0.00  0.00    +0.020 A 
ATOM     28  C   UNL     1       6.831   5.940  25.158  0.00  0.00    +0.024 A 
BRANCH  26  29
ATOM     29  C   UNL     1       4.259   5.126  27.727  0.00  0.00    +0.099 C 
ATOM     30  N   UNL     1       3.254   4.795  28.206  0.00  0.00    -0.191 NA
ENDBRANCH  26  29
ENDBRANCH   8  23
TORSDOF 5
ENDMDL
MODEL 5
REMARK VINA RESULT:      -5.8      4.567      8.407
REMARK  Name = 
REMARK  7 active torsions:
REMARK  status: ('A' for Active; 'I' for Inactive)
REMARK    1  A    between atoms: C_1  and  C_2
REMARK    2  A    between atoms: C_4  and  C_25
REMARK    3  A    between atoms: C_6  and  C_24
REMARK    4  A    between atoms: C_7  and  N_8
REMARK    5  A    between atoms: N_15  and  C_16
REMARK    6  A    between atoms: C_19  and  C_22
REMARK    7  A    between atoms: C_26  and  C_27
REMARK                            x       y       z     vdW  Elec       q    Type
REMARK                         _______ _______ _______ _____ _____    ______ ____
ROOT
ATOM      1  N   UNL     1       8.630  -3.125  23.228  0.00  0.00    -0.299 N 
ATOM      2  H   UNL     1       8.712  -3.385  22.254  0.00  0.00    +0.154 HD
ATOM      3  C   UNL     1       8.961  -1.772  23.426  0.00  0.00    +0.128 A 
ATOM      4  C   UNL     1      10.121  -1.288  22.863  0.00  0.00    +0.063 A 
ATOM      5  C   UNL     1      10.433   0.021  23.139  0.00  0.00    +0.118 A 
ATOM      6  N   UNL     1       9.674   0.820  23.911  0.00  0.00    -0.223 NA
ATOM      7  C   UNL     1       8.562   0.277  24.426  0.00  0.00    +0.221 A 
ATOM      8  N   UNL     1       7.801   1.096  25.259  0.00  0.00    -0.284 N 
ATOM      9  H   UNL     1       8.228   2.009  25.318  0.00  0.00    +0.155 HD
ATOM     10  N   UNL     1       8.188  -0.986  24.184  0.00  0.00    -0.199 NA
ENDROOT
BRANCH   1  13
ATOM     11  C   UNL     1       5.678  -3.420  22.546  0.00  0.00    +0.046 C 
ATOM     12  C   UNL     1       6.387  -4.063  23.705  0.00  0.00    -0.028 A 
ATOM     13  C   UNL     1       7.774  -3.980  23.962  0.00  0.00    +0.038 A 
ATOM     14  C   UNL     1       8.303  -4.731  25.047  0.00  0.00    -0.028 A 
ATOM     15  C   UNL     1       9.788  -4.905  25.252  0.00  0.00    +0.046 C 
ATOM     16  C   UNL     1       7.430  -5.357  25.961  0.00  0.00    +0.013 A 
ATOM     17  C   UNL     1       6.045  -5.307  25.786  0.00  0.00    -0.024 A 
ATOM     18  C   UNL     1       5.550  -4.695  24.641  0.00  0.00    +0.013 A 
BRANCH  17  19
ATOM     19  C   UNL     1       5.052  -5.854  26.717  0.00  0.00    +0.019 C 
ATOM     20  C   UNL     1       5.336  -6.087  27.997  0.00  0.00    +0.089 C 
BRANCH  20  21
ATOM     21  C   UNL     1       4.407  -6.807  28.960  0.00  0.00    +0.091 C 
ATOM     22  N   UNL     1       3.637  -7.404  29.761  0.00  0.00    -0.191 NA
ENDBRANCH  20  21
ENDBRANCH  17  19
ENDBRANCH   1  13
BRANCH   8  23
ATOM     23  C   UNL     1       6.753   0.806  26.146  0.00  0.00    +0.034 A 
ATOM     24  C   UNL     1       7.001   0.833  27.527  0.00  0.00    +0.024 A 
ATOM     25  C   UNL     1       5.994   0.523  28.449  0.00  0.00    +0.020 A 
ATOM     26  C   UNL     1       4.716   0.176  28.008  0.00  0.00    +0.052 A 
ATOM     27  C   UNL     1       4.442   0.179  26.645  0.00  0.00    +0.020 A 
ATOM     28  C   UNL     1       5.453   0.498  25.731  0.00  0.00    +0.024 A 
BRANCH  26  29
ATOM     29  C   UNL     1       3.690  -0.168  28.944  0.00  0.00    +0.099 C 
ATOM     30  N   UNL     1       2.856  -0.457  29.700  0.00  0.00    -0.191 NA
ENDBRANCH  26  29
ENDBRANCH   8  23
TORSDOF 5
ENDMDL
MODEL 6
REMARK VINA RESULT:      -5.8      3.747      5.696
REMARK  Name = 
REMARK  7 active torsions:
REMARK  status: ('A' for Active; 'I' for Inactive)
REMARK    1  A    between atoms: C_1  and  C_2
REMARK    2  A    between atoms: C_4  and  C_25
REMARK    3  A    between atoms: C_6  and  C_24
REMARK    4  A    between atoms: C_7  and  N_8
REMARK    5  A    between atoms: N_15  and  C_16
REMARK    6  A    between atoms: C_19  and  C_22
REMARK    7  A    between atoms: C_26  and  C_27
REMARK                            x       y       z     vdW  Elec       q    Type
REMARK                         _______ _______ _______ _____ _____    ______ ____
ROOT
ATOM      1  N   UNL     1       8.233   1.487  25.116  0.00  0.00    -0.299 N 
ATOM      2  H   UNL     1       8.942   2.014  25.608  0.00  0.00    +0.154 HD
ATOM      3  C   UNL     1       8.727   0.974  23.903  0.00  0.00    +0.128 A 
ATOM      4  C   UNL     1       9.412   1.820  23.060  0.00  0.00    +0.063 A 
ATOM      5  C   UNL     1       9.818   1.290  21.860  0.00  0.00    +0.118 A 
ATOM      6  N   UNL     1       9.580   0.018  21.491  0.00  0.00    -0.223 NA
ATOM      7  C   UNL     1       8.904  -0.744  22.362  0.00  0.00    +0.221 A 
ATOM      8  N   UNL     1       8.623  -2.049  21.957  0.00  0.00    -0.284 N 
ATOM      9  H   UNL     1       9.013  -2.210  21.040  0.00  0.00    +0.155 HD
ATOM     10  N   UNL     1       8.495  -0.297  23.557  0.00  0.00    -0.199 NA
ENDROOT
BRANCH   1  13
ATOM     11  C   UNL     1       8.693  -0.767  27.110  0.00  0.00    +0.046 C 
ATOM     12  C   UNL     1       7.382  -0.084  26.834  0.00  0.00    -0.028 A 
ATOM     13  C   UNL     1       7.202   1.015  25.963  0.00  0.00    +0.038 A 
ATOM     14  C   UNL     1       5.913   1.610  25.890  0.00  0.00    -0.028 A 
ATOM     15  C   UNL     1       5.677   2.925  25.188  0.00  0.00    +0.046 C 
ATOM     16  C   UNL     1       4.811   0.978  26.503  0.00  0.00    +0.013 A 
ATOM     17  C   UNL     1       4.971  -0.198  27.240  0.00  0.00    -0.024 A 
ATOM     18  C   UNL     1       6.259  -0.686  27.426  0.00  0.00    +0.013 A 
BRANCH  17  19
ATOM     19  C   UNL     1       3.884  -0.973  27.848  0.00  0.00    +0.019 C 
ATOM     20  C   UNL     1       4.084  -2.182  28.368  0.00  0.00    +0.089 C 
BRANCH  20  21
ATOM     21  C   UNL     1       2.971  -3.097  28.854  0.00  0.00    +0.091 C 
ATOM     22  N   UNL     1       2.049  -3.857  29.256  0.00  0.00    -0.191 NA
ENDBRANCH  20  21
ENDBRANCH  17  19
ENDBRANCH   1  13
BRANCH   8  23
ATOM     23  C   UNL     1       7.751  -3.017  22.476  0.00  0.00    +0.034 A 
ATOM     24  C   UNL     1       8.207  -3.873  23.490  0.00  0.00    +0.024 A 
ATOM     25  C   UNL     1       7.382  -4.873  24.019  0.00  0.00    +0.020 A 
ATOM     26  C   UNL     1       6.080  -5.040  23.541  0.00  0.00    +0.052 A 
ATOM     27  C   UNL     1       5.599  -4.179  22.561  0.00  0.00    +0.020 A 
ATOM     28  C   UNL     1       6.428  -3.177  22.045  0.00  0.00    +0.024 A 
BRANCH  26  29
ATOM     29  C   UNL     1       5.242  -6.077  24.058  0.00  0.00    +0.099 C 
ATOM     30  N   UNL     1       4.568  -6.927  24.475  0.00  0.00    -0.191 NA
ENDBRANCH  26  29
ENDBRANCH   8  23
TORSDOF 5
ENDMDL
MODEL 7
REMARK VINA RESULT:      -5.7      2.734      5.937
REMARK  Name = 
REMARK  7 active torsions:
REMARK  status: ('A' for Active; 'I' for Inactive)
REMARK    1  A    between atoms: C_1  and  C_2
REMARK    2  A    between atoms: C_4  and  C_25
REMARK    3  A    between atoms: C_6  and  C_24
REMARK    4  A    between atoms: C_7  and  N_8
REMARK    5  A    between atoms: N_15  and  C_16
REMARK    6  A    between atoms: C_19  and  C_22
REMARK    7  A    between atoms: C_26  and  C_27
REMARK                            x       y       z     vdW  Elec       q    Type
REMARK                         _______ _______ _______ _____ _____    ______ ____
ROOT
ATOM      1  N   UNL     1      10.355   2.767  22.843  0.00  0.00    -0.299 N 
ATOM      2  H   UNL     1      10.634   2.966  21.892  0.00  0.00    +0.154 HD
ATOM      3  C   UNL     1      10.139   3.951  23.572  0.00  0.00    +0.128 A 
ATOM      4  C   UNL     1      11.092   4.943  23.515  0.00  0.00    +0.063 A 
ATOM      5  C   UNL     1      10.867   6.051  24.293  0.00  0.00    +0.118 A 
ATOM      6  N   UNL     1       9.787   6.199  25.082  0.00  0.00    -0.223 NA
ATOM      7  C   UNL     1       8.905   5.190  25.087  0.00  0.00    +0.221 A 
ATOM      8  N   UNL     1       7.808   5.330  25.938  0.00  0.00    -0.284 N 
ATOM      9  H   UNL     1       7.859   6.220  26.412  0.00  0.00    +0.155 HD
ATOM     10  N   UNL     1       9.052   4.088  24.339  0.00  0.00    -0.199 NA
ENDROOT
BRANCH   1  13
ATOM     11  C   UNL     1      11.519   0.746  24.800  0.00  0.00    +0.046 C 
ATOM     12  C   UNL     1      10.381   0.502  23.848  0.00  0.00    -0.028 A 
ATOM     13  C   UNL     1       9.801   1.474  23.002  0.00  0.00    +0.038 A 
ATOM     14  C   UNL     1       8.663   1.104  22.234  0.00  0.00    -0.028 A 
ATOM     15  C   UNL     1       7.829   2.123  21.497  0.00  0.00    +0.046 C 
ATOM     16  C   UNL     1       8.274  -0.250  22.161  0.00  0.00    +0.013 A 
ATOM     17  C   UNL     1       8.950  -1.235  22.884  0.00  0.00    -0.024 A 
ATOM     18  C   UNL     1       9.966  -0.837  23.745  0.00  0.00    +0.013 A 
BRANCH  17  19
ATOM     19  C   UNL     1       8.677  -2.675  22.817  0.00  0.00    +0.019 C 
ATOM     20  C   UNL     1       7.536  -3.155  22.328  0.00  0.00    +0.089 C 
BRANCH  20  21
ATOM     21  C   UNL     1       7.129  -4.618  22.390  0.00  0.00    +0.091 C 
ATOM     22  N   UNL     1       6.791  -5.832  22.440  0.00  0.00    -0.191 NA
ENDBRANCH  20  21
ENDBRANCH  17  19
ENDBRANCH   1  13
BRANCH   8  23
ATOM     23  C   UNL     1       6.852   4.406  26.383  0.00  0.00    +0.034 A 
ATOM     24  C   UNL     1       5.580   4.399  25.788  0.00  0.00    +0.024 A 
ATOM     25  C   UNL     1       4.584   3.515  26.218  0.00  0.00    +0.020 A 
ATOM     26  C   UNL     1       4.839   2.616  27.256  0.00  0.00    +0.052 A 
ATOM     27  C   UNL     1       6.103   2.583  27.834  0.00  0.00    +0.020 A 
ATOM     28  C   UNL     1       7.095   3.466  27.391  0.00  0.00    +0.024 A 
BRANCH  26  29
ATOM     29  C   UNL     1       3.816   1.729  27.718  0.00  0.00    +0.099 C 
ATOM     30  N   UNL     1       2.981   1.016  28.098  0.00  0.00    -0.191 NA
ENDBRANCH  26  29
ENDBRANCH   8  23
TORSDOF 5
ENDMDL
MODEL 8
REMARK VINA RESULT:      -5.7      4.488      8.129
REMARK  Name = 
REMARK  7 active torsions:
REMARK  status: ('A' for Active; 'I' for Inactive)
REMARK    1  A    between atoms: C_1  and  C_2
REMARK    2  A    between atoms: C_4  and  C_25
REMARK    3  A    between atoms: C_6  and  C_24
REMARK    4  A    between atoms: C_7  and  N_8
REMARK    5  A    between atoms: N_15  and  C_16
REMARK    6  A    between atoms: C_19  and  C_22
REMARK    7  A    between atoms: C_26  and  C_27
REMARK                            x       y       z     vdW  Elec       q    Type
REMARK                         _______ _______ _______ _____ _____    ______ ____
ROOT
ATOM      1  N   UNL     1       8.452  -2.902  23.618  0.00  0.00    -0.299 N 
ATOM      2  H   UNL     1       8.654  -3.092  22.646  0.00  0.00    +0.154 HD
ATOM      3  C   UNL     1       8.909  -1.626  23.997  0.00  0.00    +0.128 A 
ATOM      4  C   UNL     1      10.193  -1.260  23.661  0.00  0.00    +0.063 A 
ATOM      5  C   UNL     1      10.614  -0.032  24.108  0.00  0.00    +0.118 A 
ATOM      6  N   UNL     1       9.845   0.798  24.836  0.00  0.00    -0.223 NA
ATOM      7  C   UNL     1       8.608   0.371  25.126  0.00  0.00    +0.221 A 
ATOM      8  N   UNL     1       7.831   1.217  25.917  0.00  0.00    -0.284 N 
ATOM      9  H   UNL     1       8.350   2.056  26.128  0.00  0.00    +0.155 HD
ATOM     10  N   UNL     1       8.127  -0.806  24.708  0.00  0.00    -0.199 NA
ENDROOT
BRANCH   1  13
ATOM     11  C   UNL     1       8.667  -4.344  26.291  0.00  0.00    +0.046 C 
ATOM     12  C   UNL     1       7.513  -4.427  25.331  0.00  0.00    -0.028 A 
ATOM     13  C   UNL     1       7.393  -3.689  24.131  0.00  0.00    +0.038 A 
ATOM     14  C   UNL     1       6.189  -3.810  23.385  0.00  0.00    -0.028 A 
ATOM     15  C   UNL     1       5.864  -2.888  22.235  0.00  0.00    +0.046 C 
ATOM     16  C   UNL     1       5.247  -4.803  23.726  0.00  0.00    +0.013 A 
ATOM     17  C   UNL     1       5.443  -5.636  24.830  0.00  0.00    -0.024 A 
ATOM     18  C   UNL     1       6.553  -5.407  25.635  0.00  0.00    +0.013 A 
BRANCH  17  19
ATOM     19  C   UNL     1       4.568  -6.746  25.222  0.00  0.00    +0.019 C 
ATOM     20  C   UNL     1       3.584  -7.179  24.437  0.00  0.00    +0.089 C 
BRANCH  20  21
ATOM     21  C   UNL     1       2.544  -8.205  24.860  0.00  0.00    +0.091 C 
ATOM     22  N   UNL     1       1.681  -9.054  25.211  0.00  0.00    -0.191 NA
ENDBRANCH  20  21
ENDBRANCH  17  19
ENDBRANCH   1  13
BRANCH   8  23
ATOM     23  C   UNL     1       6.629   1.002  26.607  0.00  0.00    +0.034 A 
ATOM     24  C   UNL     1       6.676   0.629  27.959  0.00  0.00    +0.024 A 
ATOM     25  C   UNL     1       5.504   0.375  28.681  0.00  0.00    +0.020 A 
ATOM     26  C   UNL     1       4.256   0.488  28.064  0.00  0.00    +0.052 A 
ATOM     27  C   UNL     1       4.188   0.890  26.735  0.00  0.00    +0.020 A 
ATOM     28  C   UNL     1       5.365   1.150  26.024  0.00  0.00    +0.024 A 
BRANCH  26  29
ATOM     29  C   UNL     1       3.056   0.203  28.789  0.00  0.00    +0.099 C 
ATOM     30  N   UNL     1       2.087  -0.035  29.384  0.00  0.00    -0.191 NA
ENDBRANCH  26  29
ENDBRANCH   8  23
TORSDOF 5
ENDMDL
MODEL 9
REMARK VINA RESULT:      -5.7      4.424      8.335
REMARK  Name = 
REMARK  7 active torsions:
REMARK  status: ('A' for Active; 'I' for Inactive)
REMARK    1  A    between atoms: C_1  and  C_2
REMARK    2  A    between atoms: C_4  and  C_25
REMARK    3  A    between atoms: C_6  and  C_24
REMARK    4  A    between atoms: C_7  and  N_8
REMARK    5  A    between atoms: N_15  and  C_16
REMARK    6  A    between atoms: C_19  and  C_22
REMARK    7  A    between atoms: C_26  and  C_27
REMARK                            x       y       z     vdW  Elec       q    Type
REMARK                         _______ _______ _______ _____ _____    ______ ____
ROOT
ATOM      1  N   UNL     1       7.992  -3.418  23.020  0.00  0.00    -0.299 N 
ATOM      2  H   UNL     1       7.870  -3.931  22.157  0.00  0.00    +0.154 HD
ATOM      3  C   UNL     1       8.383  -2.089  22.774  0.00  0.00    +0.128 A 
ATOM      4  C   UNL     1       9.414  -1.858  21.892  0.00  0.00    +0.063 A 
ATOM      5  C   UNL     1       9.803  -0.551  21.734  0.00  0.00    +0.118 A 
ATOM      6  N   UNL     1       9.231   0.478  22.388  0.00  0.00    -0.223 NA
ATOM      7  C   UNL     1       8.236   0.175  23.232  0.00  0.00    +0.221 A 
ATOM      8  N   UNL     1       7.676   1.240  23.938  0.00  0.00    -0.284 N 
ATOM      9  H   UNL     1       8.125   2.101  23.663  0.00  0.00    +0.155 HD
ATOM     10  N   UNL     1       7.795  -1.076  23.421  0.00  0.00    -0.199 NA
ENDROOT
BRANCH   1  13
ATOM     11  C   UNL     1       9.405  -4.322  25.560  0.00  0.00    +0.046 C 
ATOM     12  C   UNL     1       7.940  -4.479  25.259  0.00  0.00    -0.028 A 
ATOM     13  C   UNL     1       7.285  -3.983  24.109  0.00  0.00    +0.038 A 
ATOM     14  C   UNL     1       5.874  -4.129  24.024  0.00  0.00    -0.028 A 
ATOM     15  C   UNL     1       5.058  -3.423  22.968  0.00  0.00    +0.046 C 
ATOM     16  C   UNL     1       5.193  -4.938  24.957  0.00  0.00    +0.013 A 
ATOM     17  C   UNL     1       5.873  -5.555  26.010  0.00  0.00    -0.024 A 
ATOM     18  C   UNL     1       7.227  -5.283  26.165  0.00  0.00    +0.013 A 
BRANCH  17  19
ATOM     19  C   UNL     1       5.275  -6.476  26.982  0.00  0.00    +0.019 C 
ATOM     20  C   UNL     1       4.313  -6.092  27.819  0.00  0.00    +0.089 C 
BRANCH  20  21
ATOM     21  C   UNL     1       3.779  -6.948  28.956  0.00  0.00    +0.091 C 
ATOM     22  N   UNL     1       3.337  -7.658  29.899  0.00  0.00    -0.191 NA
ENDBRANCH  20  21
ENDBRANCH  17  19
ENDBRANCH   1  13
BRANCH   8  23
ATOM     23  C   UNL     1       6.824   1.273  25.052  0.00  0.00    +0.034 A 
ATOM     24  C   UNL     1       7.377   1.170  26.338  0.00  0.00    +0.024 A 
ATOM     25  C   UNL     1       6.565   1.169  27.478  0.00  0.00    +0.020 A 
ATOM     26  C   UNL     1       5.177   1.270  27.355  0.00  0.00    +0.052 A 
ATOM     27  C   UNL     1       4.614   1.408  26.091  0.00  0.00    +0.020 A 
ATOM     28  C   UNL     1       5.435   1.417  24.959  0.00  0.00    +0.024 A 
BRANCH  26  29
ATOM     29  C   UNL     1       4.340   1.242  28.514  0.00  0.00    +0.099 C 
ATOM     30  N   UNL     1       3.662   1.210  29.458  0.00  0.00    -0.191 NA
ENDBRANCH  26  29
ENDBRANCH   8  23
TORSDOF 5
ENDMDL
