MODEL 1
REMARK VINA RESULT:      -5.7      0.000      0.000
REMARK  Name = 
REMARK  3 active torsions:
REMARK  status: ('A' for Active; 'I' for Inactive)
REMARK    1  A    between atoms: C_3  and  N_9
REMARK    2  A    between atoms: C_5  and  C_7
REMARK    3  A    between atoms: C_7  and  O_8
REMARK                            x       y       z     vdW  Elec       q    Type
REMARK                         _______ _______ _______ _____ _____    ______ ____
ROOT
ATOM      1  N   UNL     1       9.519  -1.246  23.620  0.00  0.00    -0.273 N 
ATOM      2  C   UNL     1       9.939  -0.063  24.245  0.00  0.00    +0.352 A 
ATOM      3  O   UNL     1      10.191  -0.037  25.448  0.00  0.00    -0.244 OA
ATOM      4  N   UNL     1      10.064   1.076  23.480  0.00  0.00    -0.178 NA
ATOM      5  C   UNL     1       9.878   1.019  22.201  0.00  0.00    +0.123 A 
ATOM      6  N   UNL     1      10.019   2.180  21.491  0.00  0.00    -0.343 N 
ATOM      7  H   UNL     1      10.502   2.901  22.015  0.00  0.00    +0.144 HD
ATOM      8  H   UNL     1      10.323   2.104  20.527  0.00  0.00    +0.144 HD
ATOM      9  C   UNL     1       9.547  -0.223  21.486  0.00  0.00    +0.061 A 
ATOM     10  C   UNL     1       9.392  -1.303  22.249  0.00  0.00    +0.096 A 
ENDROOT
BRANCH   1  14
ATOM     11  C   UNL     1       7.107  -3.081  24.597  0.00  0.00    +0.038 C 
ATOM     12  C   UNL     1       7.853  -4.057  23.707  0.00  0.00    +0.146 C 
ATOM     13  O   UNL     1       9.226  -3.613  23.626  0.00  0.00    -0.351 OA
ATOM     14  C   UNL     1       9.398  -2.443  24.454  0.00  0.00    +0.224 C 
ATOM     15  C   UNL     1       8.206  -2.446  25.408  0.00  0.00    +0.057 C 
BRANCH  12  16
ATOM     16  C   UNL     1       7.251  -4.127  22.302  0.00  0.00    +0.187 C 
BRANCH  16  17
ATOM     17  O   UNL     1       7.259  -5.469  21.821  0.00  0.00    -0.392 OA
ATOM     18  H   UNL     1       7.413  -6.035  22.601  0.00  0.00    +0.210 HD
ENDBRANCH  16  17
ENDBRANCH  12  16
ENDBRANCH   1  14
TORSDOF 3
ENDMDL
MODEL 2
REMARK VINA RESULT:      -5.6      2.062      2.751
REMARK  Name = 
REMARK  3 active torsions:
REMARK  status: ('A' for Active; 'I' for Inactive)
REMARK    1  A    between atoms: C_3  and  N_9
REMARK    2  A    between atoms: C_5  and  C_7
REMARK    3  A    between atoms: C_7  and  O_8
REMARK                            x       y       z     vdW  Elec       q    Type
REMARK                         _______ _______ _______ _____ _____    ______ ____
ROOT
ATOM      1  N   UNL     1       9.978  -0.440  22.932  0.00  0.00    -0.273 N 
ATOM      2  C   UNL     1       9.724   0.412  21.848  0.00  0.00    +0.352 A 
ATOM      3  O   UNL     1       9.247  -0.021  20.800  0.00  0.00    -0.244 OA
ATOM      4  N   UNL     1      10.021   1.750  21.980  0.00  0.00    -0.178 NA
ATOM      5  C   UNL     1      10.443   2.210  23.113  0.00  0.00    +0.123 A 
ATOM      6  N   UNL     1      10.719   3.548  23.188  0.00  0.00    -0.343 N 
ATOM      7  H   UNL     1      10.320   4.072  22.418  0.00  0.00    +0.144 HD
ATOM      8  H   UNL     1      10.607   3.999  24.089  0.00  0.00    +0.144 HD
ATOM      9  C   UNL     1      10.617   1.373  24.311  0.00  0.00    +0.061 A 
ATOM     10  C   UNL     1      10.363   0.077  24.150  0.00  0.00    +0.096 A 
ENDROOT
BRANCH   1  14
ATOM     11  C   UNL     1       8.511  -2.639  24.709  0.00  0.00    +0.038 C 
ATOM     12  C   UNL     1       7.530  -2.515  23.558  0.00  0.00    +0.146 C 
ATOM     13  O   UNL     1       8.257  -2.009  22.417  0.00  0.00    -0.351 OA
ATOM     14  C   UNL     1       9.650  -1.857  22.768  0.00  0.00    +0.224 C 
ATOM     15  C   UNL     1       9.846  -2.714  24.016  0.00  0.00    +0.057 C 
BRANCH  12  16
ATOM     16  C   UNL     1       6.373  -1.569  23.891  0.00  0.00    +0.187 C 
BRANCH  16  17
ATOM     17  O   UNL     1       6.397  -0.430  23.035  0.00  0.00    -0.392 OA
ATOM     18  H   UNL     1       7.206  -0.514  22.494  0.00  0.00    +0.210 HD
ENDBRANCH  16  17
ENDBRANCH  12  16
ENDBRANCH   1  14
TORSDOF 3
ENDMDL
MODEL 3
REMARK VINA RESULT:      -5.4      1.896      2.565
REMARK  Name = 
REMARK  3 active torsions:
REMARK  status: ('A' for Active; 'I' for Inactive)
REMARK    1  A    between atoms: C_3  and  N_9
REMARK    2  A    between atoms: C_5  and  C_7
REMARK    3  A    between atoms: C_7  and  O_8
REMARK                            x       y       z     vdW  Elec       q    Type
REMARK                         _______ _______ _______ _____ _____    ______ ____
ROOT
ATOM      1  N   UNL     1       7.609  -0.866  22.659  0.00  0.00    -0.273 N 
ATOM      2  C   UNL     1       7.357   0.454  23.057  0.00  0.00    +0.352 A 
ATOM      3  O   UNL     1       6.379   0.732  23.748  0.00  0.00    -0.244 OA
ATOM      4  N   UNL     1       8.232   1.440  22.657  0.00  0.00    -0.178 NA
ATOM      5  C   UNL     1       9.302   1.127  22.001  0.00  0.00    +0.123 A 
ATOM      6  N   UNL     1      10.138   2.145  21.633  0.00  0.00    -0.343 N 
ATOM      7  H   UNL     1       9.949   3.005  22.135  0.00  0.00    +0.144 HD
ATOM      8  H   UNL     1      11.125   1.933  21.544  0.00  0.00    +0.144 HD
ATOM      9  C   UNL     1       9.665  -0.258  21.658  0.00  0.00    +0.061 A 
ATOM     10  C   UNL     1       8.786  -1.190  22.020  0.00  0.00    +0.096 A 
ENDROOT
BRANCH   1  14
ATOM     11  C   UNL     1       7.717  -4.031  22.999  0.00  0.00    +0.038 C 
ATOM     12  C   UNL     1       7.572  -3.602  24.447  0.00  0.00    +0.146 C 
ATOM     13  O   UNL     1       6.961  -2.293  24.457  0.00  0.00    -0.351 OA
ATOM     14  C   UNL     1       6.666  -1.895  23.100  0.00  0.00    +0.224 C 
ATOM     15  C   UNL     1       6.693  -3.187  22.287  0.00  0.00    +0.057 C 
BRANCH  12  16
ATOM     16  C   UNL     1       8.923  -3.545  25.165  0.00  0.00    +0.187 C 
BRANCH  16  17
ATOM     17  O   UNL     1       9.992  -3.588  24.224  0.00  0.00    -0.392 OA
ATOM     18  H   UNL     1      10.372  -4.485  24.287  0.00  0.00    +0.210 HD
ENDBRANCH  16  17
ENDBRANCH  12  16
ENDBRANCH   1  14
TORSDOF 3
ENDMDL
MODEL 4
REMARK VINA RESULT:      -5.4      2.115      5.002
REMARK  Name = 
REMARK  3 active torsions:
REMARK  status: ('A' for Active; 'I' for Inactive)
REMARK    1  A    between atoms: C_3  and  N_9
REMARK    2  A    between atoms: C_5  and  C_7
REMARK    3  A    between atoms: C_7  and  O_8
REMARK                            x       y       z     vdW  Elec       q    Type
REMARK                         _______ _______ _______ _____ _____    ______ ____
ROOT
ATOM      1  N   UNL     1       8.673  -1.848  23.066  0.00  0.00    -0.273 N 
ATOM      2  C   UNL     1       8.932  -2.954  23.888  0.00  0.00    +0.352 A 
ATOM      3  O   UNL     1      10.080  -3.356  24.066  0.00  0.00    -0.244 OA
ATOM      4  N   UNL     1       7.869  -3.583  24.498  0.00  0.00    -0.178 NA
ATOM      5  C   UNL     1       6.675  -3.102  24.372  0.00  0.00    +0.123 A 
ATOM      6  N   UNL     1       5.657  -3.765  25.002  0.00  0.00    -0.343 N 
ATOM      7  H   UNL     1       5.992  -4.416  25.704  0.00  0.00    +0.144 HD
ATOM      8  H   UNL     1       4.857  -3.220  25.300  0.00  0.00    +0.144 HD
ATOM      9  C   UNL     1       6.371  -1.880  23.611  0.00  0.00    +0.061 A 
ATOM     10  C   UNL     1       7.406  -1.310  22.998  0.00  0.00    +0.096 A 
ENDROOT
BRANCH   1  14
ATOM     11  C   UNL     1       9.297   1.090  22.008  0.00  0.00    +0.038 C 
ATOM     12  C   UNL     1      10.278   0.998  23.162  0.00  0.00    +0.146 C 
ATOM     13  O   UNL     1      10.539  -0.403  23.402  0.00  0.00    -0.351 OA
ATOM     14  C   UNL     1       9.820  -1.195  22.433  0.00  0.00    +0.224 C 
ATOM     15  C   UNL     1       9.471  -0.230  21.303  0.00  0.00    +0.057 C 
BRANCH  12  16
ATOM     16  C   UNL     1       9.727   1.644  24.435  0.00  0.00    +0.187 C 
BRANCH  16  17
ATOM     17  O   UNL     1       9.690   0.698  25.500  0.00  0.00    -0.392 OA
ATOM     18  H   UNL     1       9.999   1.173  26.295  0.00  0.00    +0.210 HD
ENDBRANCH  16  17
ENDBRANCH  12  16
ENDBRANCH   1  14
TORSDOF 3
ENDMDL
MODEL 5
REMARK VINA RESULT:      -5.3      1.577      1.831
REMARK  Name = 
REMARK  3 active torsions:
REMARK  status: ('A' for Active; 'I' for Inactive)
REMARK    1  A    between atoms: C_3  and  N_9
REMARK    2  A    between atoms: C_5  and  C_7
REMARK    3  A    between atoms: C_7  and  O_8
REMARK                            x       y       z     vdW  Elec       q    Type
REMARK                         _______ _______ _______ _____ _____    ______ ____
ROOT
ATOM      1  N   UNL     1       8.570  -1.567  23.421  0.00  0.00    -0.273 N 
ATOM      2  C   UNL     1       9.771  -1.380  22.722  0.00  0.00    +0.352 A 
ATOM      3  O   UNL     1      10.642  -2.248  22.715  0.00  0.00    -0.244 OA
ATOM      4  N   UNL     1       9.957  -0.198  22.039  0.00  0.00    -0.178 NA
ATOM      5  C   UNL     1       9.003   0.673  21.983  0.00  0.00    +0.123 A 
ATOM      6  N   UNL     1       9.241   1.827  21.287  0.00  0.00    -0.343 N 
ATOM      7  H   UNL     1      10.052   1.757  20.683  0.00  0.00    +0.144 HD
ATOM      8  H   UNL     1       8.448   2.285  20.854  0.00  0.00    +0.144 HD
ATOM      9  C   UNL     1       7.686   0.471  22.606  0.00  0.00    +0.061 A 
ATOM     10  C   UNL     1       7.541  -0.660  23.294  0.00  0.00    +0.096 A 
ENDROOT
BRANCH   1  14
ATOM     11  C   UNL     1       6.085  -3.408  24.177  0.00  0.00    +0.038 C 
ATOM     12  C   UNL     1       6.819  -4.319  23.211  0.00  0.00    +0.146 C 
ATOM     13  O   UNL     1       8.205  -3.913  23.196  0.00  0.00    -0.351 OA
ATOM     14  C   UNL     1       8.396  -2.833  24.135  0.00  0.00    +0.224 C 
ATOM     15  C   UNL     1       7.185  -2.888  25.064  0.00  0.00    +0.057 C 
BRANCH  12  16
ATOM     16  C   UNL     1       6.243  -4.237  21.795  0.00  0.00    +0.187 C 
BRANCH  16  17
ATOM     17  O   UNL     1       5.364  -3.121  21.677  0.00  0.00    -0.392 OA
ATOM     18  H   UNL     1       5.154  -2.844  22.590  0.00  0.00    +0.210 HD
ENDBRANCH  16  17
ENDBRANCH  12  16
ENDBRANCH   1  14
TORSDOF 3
ENDMDL
MODEL 6
REMARK VINA RESULT:      -5.3      4.344      5.767
REMARK  Name = 
REMARK  3 active torsions:
REMARK  status: ('A' for Active; 'I' for Inactive)
REMARK    1  A    between atoms: C_3  and  N_9
REMARK    2  A    between atoms: C_5  and  C_7
REMARK    3  A    between atoms: C_7  and  O_8
REMARK                            x       y       z     vdW  Elec       q    Type
REMARK                         _______ _______ _______ _____ _____    ______ ____
ROOT
ATOM      1  N   UNL     1       8.403   4.182  23.755  0.00  0.00    -0.273 N 
ATOM      2  C   UNL     1       9.014   5.437  23.620  0.00  0.00    +0.352 A 
ATOM      3  O   UNL     1      10.043   5.710  24.235  0.00  0.00    -0.244 OA
ATOM      4  N   UNL     1       8.434   6.363  22.781  0.00  0.00    -0.178 NA
ATOM      5  C   UNL     1       7.400   6.038  22.076  0.00  0.00    +0.123 A 
ATOM      6  N   UNL     1       6.868   6.995  21.256  0.00  0.00    -0.343 N 
ATOM      7  H   UNL     1       7.499   7.775  21.107  0.00  0.00    +0.144 HD
ATOM      8  H   UNL     1       6.399   6.683  20.414  0.00  0.00    +0.144 HD
ATOM      9  C   UNL     1       6.793   4.697  22.100  0.00  0.00    +0.061 A 
ATOM     10  C   UNL     1       7.344   3.831  22.947  0.00  0.00    +0.096 A 
ENDROOT
BRANCH   1  14
ATOM     11  C   UNL     1       8.328   1.015  24.079  0.00  0.00    +0.038 C 
ATOM     12  C   UNL     1       9.767   1.213  23.642  0.00  0.00    +0.146 C 
ATOM     13  O   UNL     1      10.144   2.567  23.980  0.00  0.00    -0.351 OA
ATOM     14  C   UNL     1       9.041   3.215  24.650  0.00  0.00    +0.224 C 
ATOM     15  C   UNL     1       8.136   2.081  25.125  0.00  0.00    +0.057 C 
BRANCH  12  16
ATOM     16  C   UNL     1       9.946   0.990  22.139  0.00  0.00    +0.187 C 
BRANCH  16  17
ATOM     17  O   UNL     1      10.206   2.225  21.477  0.00  0.00    -0.392 OA
ATOM     18  H   UNL     1       9.364   2.719  21.486  0.00  0.00    +0.210 HD
ENDBRANCH  16  17
ENDBRANCH  12  16
ENDBRANCH   1  14
TORSDOF 3
ENDMDL
MODEL 7
REMARK VINA RESULT:      -5.3      2.674      5.576
REMARK  Name = 
REMARK  3 active torsions:
REMARK  status: ('A' for Active; 'I' for Inactive)
REMARK    1  A    between atoms: C_3  and  N_9
REMARK    2  A    between atoms: C_5  and  C_7
REMARK    3  A    between atoms: C_7  and  O_8
REMARK                            x       y       z     vdW  Elec       q    Type
REMARK                         _______ _______ _______ _____ _____    ______ ____
ROOT
ATOM      1  N   UNL     1       8.233  -3.494  24.201  0.00  0.00    -0.273 N 
ATOM      2  C   UNL     1       7.235  -4.478  24.161  0.00  0.00    +0.352 A 
ATOM      3  O   UNL     1       6.529  -4.623  23.165  0.00  0.00    -0.244 OA
ATOM      4  N   UNL     1       7.060  -5.282  25.265  0.00  0.00    -0.178 NA
ATOM      5  C   UNL     1       7.862  -5.178  26.275  0.00  0.00    +0.123 A 
ATOM      6  N   UNL     1       7.644  -6.005  27.342  0.00  0.00    -0.343 N 
ATOM      7  H   UNL     1       7.033  -6.781  27.116  0.00  0.00    +0.144 HD
ATOM      8  H   UNL     1       8.447  -6.269  27.901  0.00  0.00    +0.144 HD
ATOM      9  C   UNL     1       8.993  -4.237  26.315  0.00  0.00    +0.061 A 
ATOM     10  C   UNL     1       9.119  -3.442  25.255  0.00  0.00    +0.096 A 
ENDROOT
BRANCH   1  14
ATOM     11  C   UNL     1       7.974  -0.381  23.582  0.00  0.00    +0.038 C 
ATOM     12  C   UNL     1       9.462  -0.581  23.368  0.00  0.00    +0.146 C 
ATOM     13  O   UNL     1       9.675  -1.976  23.058  0.00  0.00    -0.351 OA
ATOM     14  C   UNL     1       8.401  -2.655  23.014  0.00  0.00    +0.224 C 
ATOM     15  C   UNL     1       7.361  -1.548  22.853  0.00  0.00    +0.057 C 
BRANCH  12  16
ATOM     16  C   UNL     1      10.275  -0.200  24.607  0.00  0.00    +0.187 C 
BRANCH  16  17
ATOM     17  O   UNL     1       9.424   0.327  25.622  0.00  0.00    -0.392 OA
ATOM     18  H   UNL     1       9.214   1.241  25.350  0.00  0.00    +0.210 HD
ENDBRANCH  16  17
ENDBRANCH  12  16
ENDBRANCH   1  14
TORSDOF 3
ENDMDL
MODEL 8
REMARK VINA RESULT:      -5.2      2.318      5.363
REMARK  Name = 
REMARK  3 active torsions:
REMARK  status: ('A' for Active; 'I' for Inactive)
REMARK    1  A    between atoms: C_3  and  N_9
REMARK    2  A    between atoms: C_5  and  C_7
REMARK    3  A    between atoms: C_7  and  O_8
REMARK                            x       y       z     vdW  Elec       q    Type
REMARK                         _______ _______ _______ _____ _____    ______ ____
ROOT
ATOM      1  N   UNL     1       9.876  -0.451  23.936  0.00  0.00    -0.273 N 
ATOM      2  C   UNL     1      10.021  -1.719  23.357  0.00  0.00    +0.352 A 
ATOM      3  O   UNL     1      10.676  -1.875  22.328  0.00  0.00    -0.244 OA
ATOM      4  N   UNL     1       9.411  -2.793  23.966  0.00  0.00    -0.178 NA
ATOM      5  C   UNL     1       8.794  -2.634  25.092  0.00  0.00    +0.123 A 
ATOM      6  N   UNL     1       8.210  -3.736  25.654  0.00  0.00    -0.343 N 
ATOM      7  H   UNL     1       8.543  -4.603  25.248  0.00  0.00    +0.144 HD
ATOM      8  H   UNL     1       8.133  -3.761  26.664  0.00  0.00    +0.144 HD
ATOM      9  C   UNL     1       8.713  -1.343  25.793  0.00  0.00    +0.061 A 
ATOM     10  C   UNL     1       9.275  -0.311  25.168  0.00  0.00    +0.096 A 
ENDROOT
BRANCH   1  14
ATOM     11  C   UNL     1       8.893   2.192  22.455  0.00  0.00    +0.038 C 
ATOM     12  C   UNL     1       9.589   2.794  23.661  0.00  0.00    +0.146 C 
ATOM     13  O   UNL     1      10.551   1.828  24.138  0.00  0.00    -0.351 OA
ATOM     14  C   UNL     1      10.538   0.673  23.271  0.00  0.00    +0.224 C 
ATOM     15  C   UNL     1       9.868   1.145  21.983  0.00  0.00    +0.057 C 
BRANCH  12  16
ATOM     16  C   UNL     1       8.602   3.133  24.782  0.00  0.00    +0.187 C 
BRANCH  16  17
ATOM     17  O   UNL     1       7.320   2.579  24.503  0.00  0.00    -0.392 OA
ATOM     18  H   UNL     1       6.914   2.387  25.370  0.00  0.00    +0.210 HD
ENDBRANCH  16  17
ENDBRANCH  12  16
ENDBRANCH   1  14
TORSDOF 3
ENDMDL
MODEL 9
REMARK VINA RESULT:      -5.2      4.768      6.091
REMARK  Name = 
REMARK  3 active torsions:
REMARK  status: ('A' for Active; 'I' for Inactive)
REMARK    1  A    between atoms: C_3  and  N_9
REMARK    2  A    between atoms: C_5  and  C_7
REMARK    3  A    between atoms: C_7  and  O_8
REMARK                            x       y       z     vdW  Elec       q    Type
REMARK                         _______ _______ _______ _____ _____    ______ ____
ROOT
ATOM      1  N   UNL     1       6.917  -5.145  24.894  0.00  0.00    -0.273 N 
ATOM      2  C   UNL     1       7.883  -5.264  23.884  0.00  0.00    +0.352 A 
ATOM      3  O   UNL     1       9.068  -5.028  24.110  0.00  0.00    -0.244 OA
ATOM      4  N   UNL     1       7.475  -5.652  22.627  0.00  0.00    -0.178 NA
ATOM      5  C   UNL     1       6.240  -5.978  22.420  0.00  0.00    +0.123 A 
ATOM      6  N   UNL     1       5.892  -6.360  21.153  0.00  0.00    -0.343 N 
ATOM      7  H   UNL     1       6.696  -6.585  20.579  0.00  0.00    +0.144 HD
ATOM      8  H   UNL     1       5.125  -7.015  21.056  0.00  0.00    +0.144 HD
ATOM      9  C   UNL     1       5.216  -5.977  23.476  0.00  0.00    +0.061 A 
ATOM     10  C   UNL     1       5.623  -5.561  24.673  0.00  0.00    +0.096 A 
ENDROOT
BRANCH   1  14
ATOM     11  C   UNL     1       5.495  -4.264  27.603  0.00  0.00    +0.038 C 
ATOM     12  C   UNL     1       6.132  -5.570  28.038  0.00  0.00    +0.146 C 
ATOM     13  O   UNL     1       7.245  -5.829  27.155  0.00  0.00    -0.351 OA
ATOM     14  C   UNL     1       7.377  -4.735  26.221  0.00  0.00    +0.224 C 
ATOM     15  C   UNL     1       6.600  -3.578  26.844  0.00  0.00    +0.057 C 
BRANCH  12  16
ATOM     16  C   UNL     1       5.144  -6.738  27.976  0.00  0.00    +0.187 C 
BRANCH  16  17
ATOM     17  O   UNL     1       5.693  -7.890  28.610  0.00  0.00    -0.392 OA
ATOM     18  H   UNL     1       5.010  -8.585  28.546  0.00  0.00    +0.210 HD
ENDBRANCH  16  17
ENDBRANCH  12  16
ENDBRANCH   1  14
TORSDOF 3
ENDMDL
