MODEL 1
REMARK VINA RESULT:      -6.1      0.000      0.000
REMARK  Name = 
REMARK  12 active torsions:
REMARK  status: ('A' for Active; 'I' for Inactive)
REMARK    1  A    between atoms: C_1  and  C_2
REMARK    2  A    between atoms: N_4  and  C_5
REMARK    3  A    between atoms: C_7  and  N_26
REMARK    4  A    between atoms: C_10  and  C_23
REMARK    5  A    between atoms: C_12  and  C_14
REMARK    6  A    between atoms: C_14  and  C_16
REMARK    7  A    between atoms: C_14  and  O_21
REMARK    8  A    between atoms: C_16  and  C_18
REMARK    9  A    between atoms: C_16  and  O_20
REMARK   10  A    between atoms: C_18  and  O_19
REMARK   11  A    between atoms: O_21  and  C_22
REMARK   12  A    between atoms: C_23  and  O_25
REMARK                            x       y       z     vdW  Elec       q    Type
REMARK                         _______ _______ _______ _____ _____    ______ ____
ROOT
ATOM      1  C   UNL     1       6.345  -2.610  24.545  0.00  0.00    +0.161 C 
ATOM      2  C   UNL     1       7.308  -3.839  24.502  0.00  0.00    +0.229 C 
ATOM      3  O   UNL     1       6.997  -4.854  23.524  0.00  0.00    -0.477 OA
ATOM      4  C   UNL     1       6.324  -4.470  22.388  0.00  0.00    +0.204 C 
ATOM      5  C   UNL     1       5.866  -3.235  22.150  0.00  0.00    +0.071 C 
ATOM      6  C   UNL     1       5.958  -2.117  23.127  0.00  0.00    +0.238 C 
ENDROOT
BRANCH   6   7
ATOM      7  N   UNL     1       6.912  -1.118  22.665  0.00  0.00    -0.104 NA
ATOM      8  C   UNL     1       6.818   0.101  23.033  0.00  0.00    +0.377 C 
ATOM      9  N   UNL     1       7.729   1.002  22.611  0.00  0.00    -0.289 N 
ATOM     10  H   UNL     1       7.315   1.883  22.326  0.00  0.00    +0.255 HD
ATOM     11  H   UNL     1       8.299   0.610  21.861  0.00  0.00    +0.255 HD
ATOM     12  N   UNL     1       5.912   0.722  23.817  0.00  0.00    -0.289 N 
ATOM     13  H   UNL     1       6.323   1.435  24.409  0.00  0.00    +0.255 HD
ATOM     14  H   UNL     1       5.278   0.134  24.339  0.00  0.00    +0.255 HD
ENDBRANCH   6   7
BRANCH   1  17
ATOM     15  C   UNL     1       3.034  -2.494  26.493  0.00  0.00    +0.109 C 
ATOM     16  C   UNL     1       4.304  -1.940  25.900  0.00  0.00    +0.210 C 
ATOM     17  N   UNL     1       5.084  -2.903  25.296  0.00  0.00    -0.305 N 
ATOM     18  H   UNL     1       4.572  -3.724  25.000  0.00  0.00    +0.149 HD
ATOM     19  O   UNL     1       4.616  -0.761  26.001  0.00  0.00    -0.276 OA
ENDBRANCH   1  17
BRANCH   4  20
ATOM     20  C   UNL     1       6.168  -5.501  21.315  0.00  0.00    +0.372 C 
ATOM     21  O   UNL     1       5.950  -5.271  20.139  0.00  0.00    -0.242 OA
BRANCH  20  22
ATOM     22  O   UNL     1       6.310  -6.746  21.827  0.00  0.00    -0.475 OA
ATOM     23  H   UNL     1       7.209  -6.858  22.202  0.00  0.00    +0.296 HD
ENDBRANCH  20  22
ENDBRANCH   4  20
BRANCH   2  24
ATOM     24  C   UNL     1       8.829  -3.497  24.545  0.00  0.00    +0.191 C 
BRANCH  24  25
ATOM     25  O   UNL     1       9.427  -3.143  23.290  0.00  0.00    -0.373 OA
ATOM     26  C   UNL     1      10.183  -1.944  23.215  0.00  0.00    +0.194 C 
ENDBRANCH  24  25
BRANCH  24  27
ATOM     27  C   UNL     1       9.666  -4.560  25.314  0.00  0.00    +0.172 C 
BRANCH  27  28
ATOM     28  O   UNL     1       9.659  -5.857  24.686  0.00  0.00    -0.387 OA
ATOM     29  H   UNL     1       9.098  -5.835  23.892  0.00  0.00    +0.210 HD
ENDBRANCH  27  28
BRANCH  27  30
ATOM     30  C   UNL     1       9.131  -4.799  26.735  0.00  0.00    +0.189 C 
BRANCH  30  31
ATOM     31  O   UNL     1       8.362  -6.007  26.738  0.00  0.00    -0.392 OA
ATOM     32  H   UNL     1       7.491  -5.753  26.376  0.00  0.00    +0.210 HD
ENDBRANCH  30  31
ENDBRANCH  27  30
ENDBRANCH  24  27
ENDBRANCH   2  24
TORSDOF 10
ENDMDL
MODEL 2
REMARK VINA RESULT:      -5.9      2.387      4.901
REMARK  Name = 
REMARK  12 active torsions:
REMARK  status: ('A' for Active; 'I' for Inactive)
REMARK    1  A    between atoms: C_1  and  C_2
REMARK    2  A    between atoms: N_4  and  C_5
REMARK    3  A    between atoms: C_7  and  N_26
REMARK    4  A    between atoms: C_10  and  C_23
REMARK    5  A    between atoms: C_12  and  C_14
REMARK    6  A    between atoms: C_14  and  C_16
REMARK    7  A    between atoms: C_14  and  O_21
REMARK    8  A    between atoms: C_16  and  C_18
REMARK    9  A    between atoms: C_16  and  O_20
REMARK   10  A    between atoms: C_18  and  O_19
REMARK   11  A    between atoms: O_21  and  C_22
REMARK   12  A    between atoms: C_23  and  O_25
REMARK                            x       y       z     vdW  Elec       q    Type
REMARK                         _______ _______ _______ _____ _____    ______ ____
ROOT
ATOM      1  C   UNL     1       7.663  -2.481  23.721  0.00  0.00    +0.161 C 
ATOM      2  C   UNL     1       6.190  -2.470  23.200  0.00  0.00    +0.229 C 
ATOM      3  O   UNL     1       5.875  -3.436  22.174  0.00  0.00    -0.477 OA
ATOM      4  C   UNL     1       6.608  -4.599  22.136  0.00  0.00    +0.204 C 
ATOM      5  C   UNL     1       7.647  -4.875  22.933  0.00  0.00    +0.071 C 
ATOM      6  C   UNL     1       8.203  -3.919  23.928  0.00  0.00    +0.238 C 
ENDROOT
BRANCH   6   7
ATOM      7  N   UNL     1       7.916  -4.373  25.282  0.00  0.00    -0.104 NA
ATOM      8  C   UNL     1       8.656  -5.242  25.855  0.00  0.00    +0.377 C 
ATOM      9  N   UNL     1       8.383  -5.626  27.119  0.00  0.00    -0.289 N 
ATOM     10  H   UNL     1       8.464  -6.628  27.256  0.00  0.00    +0.255 HD
ATOM     11  H   UNL     1       7.462  -5.295  27.403  0.00  0.00    +0.255 HD
ATOM     12  N   UNL     1       9.741  -5.912  25.413  0.00  0.00    -0.289 N 
ATOM     13  H   UNL     1      10.444  -6.047  26.130  0.00  0.00    +0.255 HD
ATOM     14  H   UNL     1      10.155  -5.593  24.549  0.00  0.00    +0.255 HD
ENDBRANCH   6   7
BRANCH   1  17
ATOM     15  C   UNL     1       9.837   0.063  21.830  0.00  0.00    +0.109 C 
ATOM     16  C   UNL     1       8.754  -0.392  22.774  0.00  0.00    +0.210 C 
ATOM     17  N   UNL     1       8.597  -1.760  22.800  0.00  0.00    -0.305 N 
ATOM     18  H   UNL     1       9.418  -2.276  22.510  0.00  0.00    +0.149 HD
ATOM     19  O   UNL     1       8.060   0.395  23.405  0.00  0.00    -0.276 OA
ENDBRANCH   1  17
BRANCH   4  20
ATOM     20  C   UNL     1       6.150  -5.655  21.181  0.00  0.00    +0.372 C 
ATOM     21  O   UNL     1       5.966  -5.499  19.987  0.00  0.00    -0.242 OA
BRANCH  20  22
ATOM     22  O   UNL     1       5.970  -6.832  21.824  0.00  0.00    -0.475 OA
ATOM     23  H   UNL     1       6.827  -7.298  21.927  0.00  0.00    +0.296 HD
ENDBRANCH  20  22
ENDBRANCH   4  20
BRANCH   2  24
ATOM     24  C   UNL     1       5.092  -2.390  24.303  0.00  0.00    +0.191 C 
BRANCH  24  25
ATOM     25  O   UNL     1       5.458  -1.690  25.501  0.00  0.00    -0.373 OA
ATOM     26  C   UNL     1       5.321  -0.277  25.528  0.00  0.00    +0.194 C 
ENDBRANCH  24  25
BRANCH  24  27
ATOM     27  C   UNL     1       4.439  -3.769  24.607  0.00  0.00    +0.172 C 
BRANCH  27  28
ATOM     28  O   UNL     1       3.606  -4.257  23.537  0.00  0.00    -0.387 OA
ATOM     29  H   UNL     1       4.148  -4.751  22.898  0.00  0.00    +0.210 HD
ENDBRANCH  27  28
BRANCH  27  30
ATOM     30  C   UNL     1       3.519  -3.713  25.837  0.00  0.00    +0.189 C 
BRANCH  30  31
ATOM     31  O   UNL     1       2.626  -2.603  25.692  0.00  0.00    -0.392 OA
ATOM     32  H   UNL     1       1.959  -2.899  25.041  0.00  0.00    +0.210 HD
ENDBRANCH  30  31
ENDBRANCH  27  30
ENDBRANCH  24  27
ENDBRANCH   2  24
TORSDOF 10
ENDMDL
MODEL 3
REMARK VINA RESULT:      -5.9      2.724      5.636
REMARK  Name = 
REMARK  12 active torsions:
REMARK  status: ('A' for Active; 'I' for Inactive)
REMARK    1  A    between atoms: C_1  and  C_2
REMARK    2  A    between atoms: N_4  and  C_5
REMARK    3  A    between atoms: C_7  and  N_26
REMARK    4  A    between atoms: C_10  and  C_23
REMARK    5  A    between atoms: C_12  and  C_14
REMARK    6  A    between atoms: C_14  and  C_16
REMARK    7  A    between atoms: C_14  and  O_21
REMARK    8  A    between atoms: C_16  and  C_18
REMARK    9  A    between atoms: C_16  and  O_20
REMARK   10  A    between atoms: C_18  and  O_19
REMARK   11  A    between atoms: O_21  and  C_22
REMARK   12  A    between atoms: C_23  and  O_25
REMARK                            x       y       z     vdW  Elec       q    Type
REMARK                         _______ _______ _______ _____ _____    ______ ____
ROOT
ATOM      1  C   UNL     1       7.717  -3.306  23.066  0.00  0.00    +0.161 C 
ATOM      2  C   UNL     1       7.432  -1.770  23.031  0.00  0.00    +0.229 C 
ATOM      3  O   UNL     1       6.235  -1.333  23.710  0.00  0.00    -0.477 OA
ATOM      4  C   UNL     1       5.773  -2.092  24.759  0.00  0.00    +0.204 C 
ATOM      5  C   UNL     1       6.308  -3.254  25.156  0.00  0.00    +0.071 C 
ATOM      6  C   UNL     1       7.439  -3.924  24.461  0.00  0.00    +0.238 C 
ENDROOT
BRANCH   6   7
ATOM      7  N   UNL     1       8.642  -3.870  25.282  0.00  0.00    -0.104 NA
ATOM      8  C   UNL     1       8.879  -4.766  26.160  0.00  0.00    +0.377 C 
ATOM      9  N   UNL     1      10.013  -4.707  26.889  0.00  0.00    -0.289 N 
ATOM     10  H   UNL     1       9.864  -4.909  27.872  0.00  0.00    +0.255 HD
ATOM     11  H   UNL     1      10.468  -3.803  26.770  0.00  0.00    +0.255 HD
ATOM     12  N   UNL     1       8.163  -5.845  26.541  0.00  0.00    -0.289 N 
ATOM     13  H   UNL     1       8.742  -6.648  26.759  0.00  0.00    +0.255 HD
ATOM     14  H   UNL     1       7.380  -6.104  25.959  0.00  0.00    +0.255 HD
ENDBRANCH   6   7
BRANCH   1  17
ATOM     15  C   UNL     1       6.045  -5.927  20.806  0.00  0.00    +0.109 C 
ATOM     16  C   UNL     1       7.060  -5.400  21.788  0.00  0.00    +0.210 C 
ATOM     17  N   UNL     1       6.908  -4.057  22.056  0.00  0.00    -0.305 N 
ATOM     18  H   UNL     1       5.974  -3.704  21.884  0.00  0.00    +0.149 HD
ATOM     19  O   UNL     1       7.953  -6.100  22.249  0.00  0.00    -0.276 OA
ENDBRANCH   1  17
BRANCH   4  20
ATOM     20  C   UNL     1       4.638  -1.529  25.553  0.00  0.00    +0.372 C 
ATOM     21  O   UNL     1       4.609  -0.422  26.062  0.00  0.00    -0.242 OA
BRANCH  20  22
ATOM     22  O   UNL     1       3.623  -2.420  25.630  0.00  0.00    -0.475 OA
ATOM     23  H   UNL     1       2.805  -2.038  25.247  0.00  0.00    +0.296 HD
ENDBRANCH  20  22
ENDBRANCH   4  20
BRANCH   2  24
ATOM     24  C   UNL     1       8.658  -0.857  23.335  0.00  0.00    +0.191 C 
BRANCH  24  25
ATOM     25  O   UNL     1       8.539  -0.012  24.488  0.00  0.00    -0.373 OA
ATOM     26  C   UNL     1       9.156  -0.426  25.698  0.00  0.00    +0.194 C 
ENDBRANCH  24  25
BRANCH  24  27
ATOM     27  C   UNL     1       9.154  -0.075  22.085  0.00  0.00    +0.172 C 
BRANCH  27  28
ATOM     28  O   UNL     1       9.908  -0.887  21.164  0.00  0.00    -0.387 OA
ATOM     29  H   UNL     1      10.221  -0.340  20.423  0.00  0.00    +0.210 HD
ENDBRANCH  27  28
BRANCH  27  30
ATOM     30  C   UNL     1      10.094   1.081  22.462  0.00  0.00    +0.189 C 
BRANCH  30  31
ATOM     31  O   UNL     1       9.968   2.115  21.480  0.00  0.00    -0.392 OA
ATOM     32  H   UNL     1      10.355   2.909  21.899  0.00  0.00    +0.210 HD
ENDBRANCH  30  31
ENDBRANCH  27  30
ENDBRANCH  24  27
ENDBRANCH   2  24
TORSDOF 10
ENDMDL
MODEL 4
REMARK VINA RESULT:      -5.8      2.642      5.194
REMARK  Name = 
REMARK  12 active torsions:
REMARK  status: ('A' for Active; 'I' for Inactive)
REMARK    1  A    between atoms: C_1  and  C_2
REMARK    2  A    between atoms: N_4  and  C_5
REMARK    3  A    between atoms: C_7  and  N_26
REMARK    4  A    between atoms: C_10  and  C_23
REMARK    5  A    between atoms: C_12  and  C_14
REMARK    6  A    between atoms: C_14  and  C_16
REMARK    7  A    between atoms: C_14  and  O_21
REMARK    8  A    between atoms: C_16  and  C_18
REMARK    9  A    between atoms: C_16  and  O_20
REMARK   10  A    between atoms: C_18  and  O_19
REMARK   11  A    between atoms: O_21  and  C_22
REMARK   12  A    between atoms: C_23  and  O_25
REMARK                            x       y       z     vdW  Elec       q    Type
REMARK                         _______ _______ _______ _____ _____    ______ ____
ROOT
ATOM      1  C   UNL     1       5.856  -4.147  25.172  0.00  0.00    +0.161 C 
ATOM      2  C   UNL     1       5.723  -3.114  24.008  0.00  0.00    +0.229 C 
ATOM      3  O   UNL     1       5.261  -1.797  24.379  0.00  0.00    -0.477 OA
ATOM      4  C   UNL     1       5.516  -1.360  25.658  0.00  0.00    +0.204 C 
ATOM      5  C   UNL     1       6.098  -2.094  26.616  0.00  0.00    +0.071 C 
ATOM      6  C   UNL     1       6.482  -3.521  26.445  0.00  0.00    +0.238 C 
ENDROOT
BRANCH   6   7
ATOM      7  N   UNL     1       7.932  -3.654  26.410  0.00  0.00    -0.104 NA
ATOM      8  C   UNL     1       8.498  -4.757  26.714  0.00  0.00    +0.377 C 
ATOM      9  N   UNL     1       9.842  -4.862  26.649  0.00  0.00    -0.289 N 
ATOM     10  H   UNL     1      10.242  -5.352  27.442  0.00  0.00    +0.255 HD
ATOM     11  H   UNL     1      10.268  -3.942  26.540  0.00  0.00    +0.255 HD
ATOM     12  N   UNL     1       7.982  -5.934  27.129  0.00  0.00    -0.289 N 
ATOM     13  H   UNL     1       8.473  -6.736  26.751  0.00  0.00    +0.255 HD
ATOM     14  H   UNL     1       6.982  -6.046  27.054  0.00  0.00    +0.255 HD
ENDBRANCH   6   7
BRANCH   1  17
ATOM     15  C   UNL     1       2.972  -6.307  26.511  0.00  0.00    +0.109 C 
ATOM     16  C   UNL     1       4.397  -5.989  26.135  0.00  0.00    +0.210 C 
ATOM     17  N   UNL     1       4.539  -4.750  25.549  0.00  0.00    -0.305 N 
ATOM     18  H   UNL     1       3.802  -4.096  25.781  0.00  0.00    +0.149 HD
ATOM     19  O   UNL     1       5.312  -6.787  26.296  0.00  0.00    -0.276 OA
ENDBRANCH   1  17
BRANCH   4  20
ATOM     20  C   UNL     1       5.184   0.065  25.964  0.00  0.00    +0.372 C 
ATOM     21  O   UNL     1       5.123   0.556  27.077  0.00  0.00    -0.242 OA
BRANCH  20  22
ATOM     22  O   UNL     1       4.963   0.757  24.822  0.00  0.00    -0.475 OA
ATOM     23  H   UNL     1       5.471   1.596  24.829  0.00  0.00    +0.296 HD
ENDBRANCH  20  22
ENDBRANCH   4  20
BRANCH   2  24
ATOM     24  C   UNL     1       6.926  -3.067  23.017  0.00  0.00    +0.191 C 
BRANCH  24  25
ATOM     25  O   UNL     1       7.589  -4.317  22.778  0.00  0.00    -0.373 OA
ATOM     26  C   UNL     1       7.030  -5.209  21.827  0.00  0.00    +0.194 C 
ENDBRANCH  24  25
BRANCH  24  27
ATOM     27  C   UNL     1       7.930  -1.923  23.338  0.00  0.00    +0.172 C 
BRANCH  27  28
ATOM     28  O   UNL     1       7.655  -0.702  22.624  0.00  0.00    -0.387 OA
ATOM     29  H   UNL     1       8.489  -0.262  22.389  0.00  0.00    +0.210 HD
ENDBRANCH  27  28
BRANCH  27  30
ATOM     30  C   UNL     1       9.371  -2.295  22.954  0.00  0.00    +0.189 C 
BRANCH  30  31
ATOM     31  O   UNL     1       9.912  -3.146  23.971  0.00  0.00    -0.392 OA
ATOM     32  H   UNL     1      10.748  -3.487  23.596  0.00  0.00    +0.210 HD
ENDBRANCH  30  31
ENDBRANCH  27  30
ENDBRANCH  24  27
ENDBRANCH   2  24
TORSDOF 10
ENDMDL
MODEL 5
REMARK VINA RESULT:      -5.8      2.653      5.373
REMARK  Name = 
REMARK  12 active torsions:
REMARK  status: ('A' for Active; 'I' for Inactive)
REMARK    1  A    between atoms: C_1  and  C_2
REMARK    2  A    between atoms: N_4  and  C_5
REMARK    3  A    between atoms: C_7  and  N_26
REMARK    4  A    between atoms: C_10  and  C_23
REMARK    5  A    between atoms: C_12  and  C_14
REMARK    6  A    between atoms: C_14  and  C_16
REMARK    7  A    between atoms: C_14  and  O_21
REMARK    8  A    between atoms: C_16  and  C_18
REMARK    9  A    between atoms: C_16  and  O_20
REMARK   10  A    between atoms: C_18  and  O_19
REMARK   11  A    between atoms: O_21  and  C_22
REMARK   12  A    between atoms: C_23  and  O_25
REMARK                            x       y       z     vdW  Elec       q    Type
REMARK                         _______ _______ _______ _____ _____    ______ ____
ROOT
ATOM      1  C   UNL     1       5.442  -3.997  25.617  0.00  0.00    +0.161 C 
ATOM      2  C   UNL     1       5.901  -4.214  24.140  0.00  0.00    +0.229 C 
ATOM      3  O   UNL     1       7.291  -3.940  23.863  0.00  0.00    -0.477 OA
ATOM      4  C   UNL     1       8.195  -4.081  24.890  0.00  0.00    +0.204 C 
ATOM      5  C   UNL     1       7.874  -4.382  26.154  0.00  0.00    +0.071 C 
ATOM      6  C   UNL     1       6.477  -4.533  26.640  0.00  0.00    +0.238 C 
ENDROOT
BRANCH   6   7
ATOM      7  N   UNL     1       6.197  -5.928  26.954  0.00  0.00    -0.104 NA
ATOM      8  C   UNL     1       5.498  -6.245  27.974  0.00  0.00    +0.377 C 
ATOM      9  N   UNL     1       5.232  -7.543  28.228  0.00  0.00    -0.289 N 
ATOM     10  H   UNL     1       5.330  -7.785  29.208  0.00  0.00    +0.255 HD
ATOM     11  H   UNL     1       5.811  -8.147  27.646  0.00  0.00    +0.255 HD
ATOM     12  N   UNL     1       4.932  -5.481  28.932  0.00  0.00    -0.289 N 
ATOM     13  H   UNL     1       4.028  -5.829  29.233  0.00  0.00    +0.255 HD
ATOM     14  H   UNL     1       4.906  -4.486  28.768  0.00  0.00    +0.255 HD
ENDBRANCH   6   7
BRANCH   1  17
ATOM     15  C   UNL     1       4.410  -0.617  27.128  0.00  0.00    +0.109 C 
ATOM     16  C   UNL     1       4.413  -2.117  26.980  0.00  0.00    +0.210 C 
ATOM     17  N   UNL     1       5.186  -2.555  25.926  0.00  0.00    -0.305 N 
ATOM     18  H   UNL     1       5.911  -1.906  25.647  0.00  0.00    +0.149 HD
ATOM     19  O   UNL     1       3.748  -2.849  27.701  0.00  0.00    -0.276 OA
ENDBRANCH   1  17
BRANCH   4  20
ATOM     20  C   UNL     1       9.643  -3.961  24.537  0.00  0.00    +0.372 C 
ATOM     21  O   UNL     1      10.154  -3.024  23.950  0.00  0.00    -0.242 OA
BRANCH  20  22
ATOM     22  O   UNL     1      10.329  -5.046  24.968  0.00  0.00    -0.475 OA
ATOM     23  H   UNL     1      10.260  -5.774  24.314  0.00  0.00    +0.296 HD
ENDBRANCH  20  22
ENDBRANCH   4  20
BRANCH   2  24
ATOM     24  C   UNL     1       5.409  -5.536  23.475  0.00  0.00    +0.191 C 
BRANCH  24  25
ATOM     25  O   UNL     1       5.189  -5.480  22.059  0.00  0.00    -0.373 OA
ATOM     26  C   UNL     1       6.248  -5.859  21.194  0.00  0.00    +0.194 C 
ENDBRANCH  24  25
BRANCH  24  27
ATOM     27  C   UNL     1       4.211  -6.182  24.230  0.00  0.00    +0.172 C 
BRANCH  27  28
ATOM     28  O   UNL     1       4.264  -7.622  24.261  0.00  0.00    -0.387 OA
ATOM     29  H   UNL     1       3.862  -7.948  25.084  0.00  0.00    +0.210 HD
ENDBRANCH  27  28
BRANCH  27  30
ATOM     30  C   UNL     1       2.865  -5.844  23.570  0.00  0.00    +0.189 C 
BRANCH  30  31
ATOM     31  O   UNL     1       2.649  -6.747  22.480  0.00  0.00    -0.392 OA
ATOM     32  H   UNL     1       1.723  -6.592  22.204  0.00  0.00    +0.210 HD
ENDBRANCH  30  31
ENDBRANCH  27  30
ENDBRANCH  24  27
ENDBRANCH   2  24
TORSDOF 10
ENDMDL
MODEL 6
REMARK VINA RESULT:      -5.7      2.724      5.186
REMARK  Name = 
REMARK  12 active torsions:
REMARK  status: ('A' for Active; 'I' for Inactive)
REMARK    1  A    between atoms: C_1  and  C_2
REMARK    2  A    between atoms: N_4  and  C_5
REMARK    3  A    between atoms: C_7  and  N_26
REMARK    4  A    between atoms: C_10  and  C_23
REMARK    5  A    between atoms: C_12  and  C_14
REMARK    6  A    between atoms: C_14  and  C_16
REMARK    7  A    between atoms: C_14  and  O_21
REMARK    8  A    between atoms: C_16  and  C_18
REMARK    9  A    between atoms: C_16  and  O_20
REMARK   10  A    between atoms: C_18  and  O_19
REMARK   11  A    between atoms: O_21  and  C_22
REMARK   12  A    between atoms: C_23  and  O_25
REMARK                            x       y       z     vdW  Elec       q    Type
REMARK                         _______ _______ _______ _____ _____    ______ ____
ROOT
ATOM      1  C   UNL     1       6.630  -3.273  25.215  0.00  0.00    +0.161 C 
ATOM      2  C   UNL     1       6.553  -2.382  23.935  0.00  0.00    +0.229 C 
ATOM      3  O   UNL     1       6.820  -0.976  24.125  0.00  0.00    -0.477 OA
ATOM      4  C   UNL     1       7.637  -0.609  25.168  0.00  0.00    +0.204 C 
ATOM      5  C   UNL     1       8.149  -1.453  26.072  0.00  0.00    +0.071 C 
ATOM      6  C   UNL     1       7.838  -2.907  26.115  0.00  0.00    +0.238 C 
ENDROOT
BRANCH   6   7
ATOM      7  N   UNL     1       9.006  -3.687  25.728  0.00  0.00    -0.104 NA
ATOM      8  C   UNL     1       9.117  -4.914  26.060  0.00  0.00    +0.377 C 
ATOM      9  N   UNL     1      10.197  -5.621  25.668  0.00  0.00    -0.289 N 
ATOM     10  H   UNL     1      10.575  -6.210  26.402  0.00  0.00    +0.255 HD
ATOM     11  H   UNL     1      10.915  -5.000  25.296  0.00  0.00    +0.255 HD
ATOM     12  N   UNL     1       8.308  -5.711  26.790  0.00  0.00    -0.289 N 
ATOM     13  H   UNL     1       8.269  -6.662  26.442  0.00  0.00    +0.255 HD
ATOM     14  H   UNL     1       7.384  -5.359  26.997  0.00  0.00    +0.255 HD
ENDBRANCH   6   7
BRANCH   1  17
ATOM     15  C   UNL     1       3.656  -3.852  27.581  0.00  0.00    +0.109 C 
ATOM     16  C   UNL     1       4.844  -4.242  26.739  0.00  0.00    +0.210 C 
ATOM     17  N   UNL     1       5.387  -3.183  26.045  0.00  0.00    -0.305 N 
ATOM     18  H   UNL     1       5.191  -2.277  26.452  0.00  0.00    +0.149 HD
ATOM     19  O   UNL     1       5.238  -5.398  26.655  0.00  0.00    -0.276 OA
ENDBRANCH   1  17
BRANCH   4  20
ATOM     20  C   UNL     1       8.037   0.831  25.239  0.00  0.00    +0.372 C 
ATOM     21  O   UNL     1       7.277   1.781  25.184  0.00  0.00    -0.242 OA
BRANCH  20  22
ATOM     22  O   UNL     1       9.378   0.945  25.384  0.00  0.00    -0.475 OA
ATOM     23  H   UNL     1       9.834   0.209  24.922  0.00  0.00    +0.296 HD
ENDBRANCH  20  22
ENDBRANCH   4  20
BRANCH   2  24
ATOM     24  C   UNL     1       7.268  -2.960  22.675  0.00  0.00    +0.191 C 
BRANCH  24  25
ATOM     25  O   UNL     1       8.067  -2.032  21.928  0.00  0.00    -0.373 OA
ATOM     26  C   UNL     1       9.438  -1.891  22.267  0.00  0.00    +0.194 C 
ENDBRANCH  24  25
BRANCH  24  27
ATOM     27  C   UNL     1       6.313  -3.780  21.761  0.00  0.00    +0.172 C 
BRANCH  27  28
ATOM     28  O   UNL     1       4.955  -3.820  22.241  0.00  0.00    -0.387 OA
ATOM     29  H   UNL     1       4.412  -3.182  21.748  0.00  0.00    +0.210 HD
ENDBRANCH  27  28
BRANCH  27  30
ATOM     30  C   UNL     1       6.743  -5.252  21.651  0.00  0.00    +0.189 C 
BRANCH  30  31
ATOM     31  O   UNL     1       5.642  -6.014  21.142  0.00  0.00    -0.392 OA
ATOM     32  H   UNL     1       5.955  -6.941  21.145  0.00  0.00    +0.210 HD
ENDBRANCH  30  31
ENDBRANCH  27  30
ENDBRANCH  24  27
ENDBRANCH   2  24
TORSDOF 10
ENDMDL
MODEL 7
REMARK VINA RESULT:      -5.7      2.534      4.924
REMARK  Name = 
REMARK  12 active torsions:
REMARK  status: ('A' for Active; 'I' for Inactive)
REMARK    1  A    between atoms: C_1  and  C_2
REMARK    2  A    between atoms: N_4  and  C_5
REMARK    3  A    between atoms: C_7  and  N_26
REMARK    4  A    between atoms: C_10  and  C_23
REMARK    5  A    between atoms: C_12  and  C_14
REMARK    6  A    between atoms: C_14  and  C_16
REMARK    7  A    between atoms: C_14  and  O_21
REMARK    8  A    between atoms: C_16  and  C_18
REMARK    9  A    between atoms: C_16  and  O_20
REMARK   10  A    between atoms: C_18  and  O_19
REMARK   11  A    between atoms: O_21  and  C_22
REMARK   12  A    between atoms: C_23  and  O_25
REMARK                            x       y       z     vdW  Elec       q    Type
REMARK                         _______ _______ _______ _____ _____    ______ ____
ROOT
ATOM      1  C   UNL     1       6.951  -2.471  24.962  0.00  0.00    +0.161 C 
ATOM      2  C   UNL     1       6.344  -2.198  23.549  0.00  0.00    +0.229 C 
ATOM      3  O   UNL     1       7.176  -1.451  22.636  0.00  0.00    -0.477 OA
ATOM      4  C   UNL     1       8.540  -1.532  22.792  0.00  0.00    +0.204 C 
ATOM      5  C   UNL     1       9.159  -2.194  23.778  0.00  0.00    +0.071 C 
ATOM      6  C   UNL     1       8.447  -2.875  24.891  0.00  0.00    +0.238 C 
ENDROOT
BRANCH   6   7
ATOM      7  N   UNL     1       8.571  -4.321  24.763  0.00  0.00    -0.104 NA
ATOM      8  C   UNL     1       9.157  -5.013  25.662  0.00  0.00    +0.377 C 
ATOM      9  N   UNL     1       9.236  -6.353  25.531  0.00  0.00    -0.289 N 
ATOM     10  H   UNL     1      10.149  -6.723  25.772  0.00  0.00    +0.255 HD
ATOM     11  H   UNL     1       8.968  -6.637  24.589  0.00  0.00    +0.255 HD
ATOM     12  N   UNL     1       9.770  -4.642  26.806  0.00  0.00    -0.289 N 
ATOM     13  H   UNL     1       9.621  -5.298  27.565  0.00  0.00    +0.255 HD
ATOM     14  H   UNL     1       9.632  -3.690  27.111  0.00  0.00    +0.255 HD
ENDBRANCH   6   7
BRANCH   1  17
ATOM     15  C   UNL     1       6.192   0.014  27.794  0.00  0.00    +0.109 C 
ATOM     16  C   UNL     1       6.045  -1.260  27.002  0.00  0.00    +0.210 C 
ATOM     17  N   UNL     1       6.831  -1.288  25.870  0.00  0.00    -0.305 N 
ATOM     18  H   UNL     1       7.637  -0.677  25.912  0.00  0.00    +0.149 HD
ATOM     19  O   UNL     1       5.261  -2.144  27.321  0.00  0.00    -0.276 OA
ENDBRANCH   1  17
BRANCH   4  20
ATOM     20  C   UNL     1       9.380  -0.894  21.733  0.00  0.00    +0.372 C 
ATOM     21  O   UNL     1       9.108   0.131  21.134  0.00  0.00    -0.242 OA
BRANCH  20  22
ATOM     22  O   UNL     1      10.510  -1.610  21.525  0.00  0.00    -0.475 OA
ATOM     23  H   UNL     1      11.282  -1.012  21.444  0.00  0.00    +0.296 HD
ENDBRANCH  20  22
ENDBRANCH   4  20
BRANCH   2  24
ATOM     24  C   UNL     1       5.660  -3.423  22.868  0.00  0.00    +0.191 C 
BRANCH  24  25
ATOM     25  O   UNL     1       5.208  -4.459  23.752  0.00  0.00    -0.373 OA
ATOM     26  C   UNL     1       3.813  -4.700  23.855  0.00  0.00    +0.194 C 
ENDBRANCH  24  25
BRANCH  24  27
ATOM     27  C   UNL     1       6.483  -3.989  21.675  0.00  0.00    +0.172 C 
BRANCH  27  28
ATOM     28  O   UNL     1       5.749  -4.016  20.436  0.00  0.00    -0.387 OA
ATOM     29  H   UNL     1       5.822  -3.155  19.990  0.00  0.00    +0.210 HD
ENDBRANCH  27  28
BRANCH  27  30
ATOM     30  C   UNL     1       6.920  -5.443  21.914  0.00  0.00    +0.189 C 
BRANCH  30  31
ATOM     31  O   UNL     1       5.871  -6.315  21.479  0.00  0.00    -0.392 OA
ATOM     32  H   UNL     1       5.434  -6.614  22.302  0.00  0.00    +0.210 HD
ENDBRANCH  30  31
ENDBRANCH  27  30
ENDBRANCH  24  27
ENDBRANCH   2  24
TORSDOF 10
ENDMDL
MODEL 8
REMARK VINA RESULT:      -5.7      3.355      5.745
REMARK  Name = 
REMARK  12 active torsions:
REMARK  status: ('A' for Active; 'I' for Inactive)
REMARK    1  A    between atoms: C_1  and  C_2
REMARK    2  A    between atoms: N_4  and  C_5
REMARK    3  A    between atoms: C_7  and  N_26
REMARK    4  A    between atoms: C_10  and  C_23
REMARK    5  A    between atoms: C_12  and  C_14
REMARK    6  A    between atoms: C_14  and  C_16
REMARK    7  A    between atoms: C_14  and  O_21
REMARK    8  A    between atoms: C_16  and  C_18
REMARK    9  A    between atoms: C_16  and  O_20
REMARK   10  A    between atoms: C_18  and  O_19
REMARK   11  A    between atoms: O_21  and  C_22
REMARK   12  A    between atoms: C_23  and  O_25
REMARK                            x       y       z     vdW  Elec       q    Type
REMARK                         _______ _______ _______ _____ _____    ______ ____
ROOT
ATOM      1  C   UNL     1       7.153  -0.925  23.643  0.00  0.00    +0.161 C 
ATOM      2  C   UNL     1       7.696  -0.044  22.473  0.00  0.00    +0.229 C 
ATOM      3  O   UNL     1       6.917   1.126  22.148  0.00  0.00    -0.477 OA
ATOM      4  C   UNL     1       6.166   1.700  23.147  0.00  0.00    +0.204 C 
ATOM      5  C   UNL     1       6.041   1.211  24.387  0.00  0.00    +0.071 C 
ATOM      6  C   UNL     1       6.644  -0.072  24.834  0.00  0.00    +0.238 C 
ENDROOT
BRANCH   6   7
ATOM      7  N   UNL     1       7.729   0.177  25.773  0.00  0.00    -0.104 NA
ATOM      8  C   UNL     1       8.143  -0.740  26.559  0.00  0.00    +0.377 C 
ATOM      9  N   UNL     1       9.167  -0.490  27.401  0.00  0.00    -0.289 N 
ATOM     10  H   UNL     1       9.014  -0.860  28.333  0.00  0.00    +0.255 HD
ATOM     11  H   UNL     1       9.365   0.510  27.437  0.00  0.00    +0.255 HD
ATOM     12  N   UNL     1       7.725  -2.011  26.735  0.00  0.00    -0.289 N 
ATOM     13  H   UNL     1       8.485  -2.657  26.914  0.00  0.00    +0.255 HD
ATOM     14  H   UNL     1       7.083  -2.381  26.050  0.00  0.00    +0.255 HD
ENDBRANCH   6   7
BRANCH   1  17
ATOM     15  C   UNL     1       4.598  -3.755  23.156  0.00  0.00    +0.109 C 
ATOM     16  C   UNL     1       5.856  -3.109  23.677  0.00  0.00    +0.210 C 
ATOM     17  N   UNL     1       6.041  -1.827  23.207  0.00  0.00    -0.305 N 
ATOM     18  H   UNL     1       5.188  -1.367  22.912  0.00  0.00    +0.149 HD
ATOM     19  O   UNL     1       6.646  -3.700  24.401  0.00  0.00    -0.276 OA
ENDBRANCH   1  17
BRANCH   4  20
ATOM     20  C   UNL     1       5.508   3.006  22.832  0.00  0.00    +0.372 C 
ATOM     21  O   UNL     1       4.570   3.491  23.439  0.00  0.00    -0.242 OA
BRANCH  20  22
ATOM     22  O   UNL     1       6.104   3.595  21.769  0.00  0.00    -0.475 OA
ATOM     23  H   UNL     1       6.428   4.488  22.013  0.00  0.00    +0.296 HD
ENDBRANCH  20  22
ENDBRANCH   4  20
BRANCH   2  24
ATOM     24  C   UNL     1       9.227   0.249  22.514  0.00  0.00    +0.191 C 
BRANCH  24  25
ATOM     25  O   UNL     1      10.002  -0.588  23.383  0.00  0.00    -0.373 OA
ATOM     26  C   UNL     1      10.528  -1.800  22.864  0.00  0.00    +0.194 C 
ENDBRANCH  24  25
BRANCH  24  27
ATOM     27  C   UNL     1       9.548   1.759  22.716  0.00  0.00    +0.172 C 
BRANCH  27  28
ATOM     28  O   UNL     1      10.082   2.393  21.538  0.00  0.00    -0.387 OA
ATOM     29  H   UNL     1       9.359   2.609  20.924  0.00  0.00    +0.210 HD
ENDBRANCH  27  28
BRANCH  27  30
ATOM     30  C   UNL     1      10.607   1.983  23.807  0.00  0.00    +0.189 C 
BRANCH  30  31
ATOM     31  O   UNL     1      10.078   1.532  25.059  0.00  0.00    -0.392 OA
ATOM     32  H   UNL     1       9.121   1.409  24.899  0.00  0.00    +0.210 HD
ENDBRANCH  30  31
ENDBRANCH  27  30
ENDBRANCH  24  27
ENDBRANCH   2  24
TORSDOF 10
ENDMDL
MODEL 9
REMARK VINA RESULT:      -5.6      2.588      4.903
REMARK  Name = 
REMARK  12 active torsions:
REMARK  status: ('A' for Active; 'I' for Inactive)
REMARK    1  A    between atoms: C_1  and  C_2
REMARK    2  A    between atoms: N_4  and  C_5
REMARK    3  A    between atoms: C_7  and  N_26
REMARK    4  A    between atoms: C_10  and  C_23
REMARK    5  A    between atoms: C_12  and  C_14
REMARK    6  A    between atoms: C_14  and  C_16
REMARK    7  A    between atoms: C_14  and  O_21
REMARK    8  A    between atoms: C_16  and  C_18
REMARK    9  A    between atoms: C_16  and  O_20
REMARK   10  A    between atoms: C_18  and  O_19
REMARK   11  A    between atoms: O_21  and  C_22
REMARK   12  A    between atoms: C_23  and  O_25
REMARK                            x       y       z     vdW  Elec       q    Type
REMARK                         _______ _______ _______ _____ _____    ______ ____
ROOT
ATOM      1  C   UNL     1       6.166  -3.629  25.681  0.00  0.00    +0.161 C 
ATOM      2  C   UNL     1       5.418  -3.398  24.330  0.00  0.00    +0.229 C 
ATOM      3  O   UNL     1       5.669  -2.135  23.676  0.00  0.00    -0.477 OA
ATOM      4  C   UNL     1       6.876  -1.518  23.906  0.00  0.00    +0.204 C 
ATOM      5  C   UNL     1       7.812  -1.961  24.754  0.00  0.00    +0.071 C 
ATOM      6  C   UNL     1       7.641  -3.153  25.626  0.00  0.00    +0.238 C 
ENDROOT
BRANCH   6   7
ATOM      7  N   UNL     1       8.502  -4.238  25.177  0.00  0.00    -0.104 NA
ATOM      8  C   UNL     1       8.646  -5.297  25.876  0.00  0.00    +0.377 C 
ATOM      9  N   UNL     1       9.430  -6.297  25.425  0.00  0.00    -0.289 N 
ATOM     10  H   UNL     1      10.023  -6.693  26.146  0.00  0.00    +0.255 HD
ATOM     11  H   UNL     1       9.986  -5.985  24.630  0.00  0.00    +0.255 HD
ATOM     12  N   UNL     1       8.134  -5.642  27.077  0.00  0.00    -0.289 N 
ATOM     13  H   UNL     1       7.893  -6.625  27.137  0.00  0.00    +0.255 HD
ATOM     14  H   UNL     1       7.395  -5.060  27.443  0.00  0.00    +0.255 HD
ENDBRANCH   6   7
BRANCH   1  17
ATOM     15  C   UNL     1       4.050  -2.624  28.728  0.00  0.00    +0.109 C 
ATOM     16  C   UNL     1       4.467  -3.485  27.563  0.00  0.00    +0.210 C 
ATOM     17  N   UNL     1       5.496  -2.939  26.827  0.00  0.00    -0.305 N 
ATOM     18  H   UNL     1       6.065  -2.277  27.340  0.00  0.00    +0.149 HD
ATOM     19  O   UNL     1       3.900  -4.534  27.286  0.00  0.00    -0.276 OA
ENDBRANCH   1  17
BRANCH   4  20
ATOM     20  C   UNL     1       7.182  -0.305  23.086  0.00  0.00    +0.372 C 
ATOM     21  O   UNL     1       8.243  -0.071  22.535  0.00  0.00    -0.242 OA
BRANCH  20  22
ATOM     22  O   UNL     1       6.105   0.513  23.026  0.00  0.00    -0.475 OA
ATOM     23  H   UNL     1       5.802   0.743  23.930  0.00  0.00    +0.296 HD
ENDBRANCH  20  22
ENDBRANCH   4  20
BRANCH   2  24
ATOM     24  C   UNL     1       5.444  -4.600  23.337  0.00  0.00    +0.191 C 
BRANCH  24  25
ATOM     25  O   UNL     1       5.650  -5.892  23.925  0.00  0.00    -0.373 OA
ATOM     26  C   UNL     1       4.516  -6.700  24.200  0.00  0.00    +0.194 C 
ENDBRANCH  24  25
BRANCH  24  27
ATOM     27  C   UNL     1       6.378  -4.357  22.117  0.00  0.00    +0.172 C 
BRANCH  27  28
ATOM     28  O   UNL     1       5.686  -3.848  20.960  0.00  0.00    -0.387 OA
ATOM     29  H   UNL     1       5.711  -4.508  20.245  0.00  0.00    +0.210 HD
ENDBRANCH  27  28
BRANCH  27  30
ATOM     30  C   UNL     1       7.056  -5.651  21.642  0.00  0.00    +0.189 C 
BRANCH  30  31
ATOM     31  O   UNL     1       8.078  -6.005  22.580  0.00  0.00    -0.392 OA
ATOM     32  H   UNL     1       7.608  -6.141  23.426  0.00  0.00    +0.210 HD
ENDBRANCH  30  31
ENDBRANCH  27  30
ENDBRANCH  24  27
ENDBRANCH   2  24
TORSDOF 10
ENDMDL
