MODEL 1
REMARK VINA RESULT:      -6.0      0.000      0.000
REMARK  Name = 
REMARK  8 active torsions:
REMARK  status: ('A' for Active; 'I' for Inactive)
REMARK    1  A    between atoms: C_1  and  C_2
REMARK    2  A    between atoms: C_2  and  C_3
REMARK    3  A    between atoms: C_2  and  N_4
REMARK    4  A    between atoms: N_13  and  C1*_14
REMARK    5  A    between atoms: C2*_16  and  O2*_26
REMARK    6  A    between atoms: C3*_18  and  O3*_25
REMARK    7  A    between atoms: C4*_20  and  C5*_23
REMARK    8  A    between atoms: C5*_23  and  O5*_24
REMARK                            x       y       z     vdW  Elec       q    Type
REMARK                         _______ _______ _______ _____ _____    ______ ____
ROOT
ATOM      1  N   UNL     1       6.038   0.744  24.980  0.00  0.00    -0.312 N 
ATOM      2  H   UNL     1       6.992   1.117  24.989  0.00  0.00    +0.149 HD
ATOM      3  C   UNL     1       5.955  -0.525  24.524  0.00  0.00    +0.199 A 
ATOM      4  N   UNL     1       6.914  -1.055  23.683  0.00  0.00    -0.283 N 
ATOM      5  C   UNL     1       6.608  -2.401  23.510  0.00  0.00    +0.074 A 
ATOM      6  C   UNL     1       5.436  -2.582  24.244  0.00  0.00    +0.092 A 
ATOM      7  C   UNL     1       4.854  -3.857  24.336  0.00  0.00    +0.051 A 
ATOM      8  C   UNL     1       5.480  -4.933  23.694  0.00  0.00    +0.061 A 
ATOM      9 CL   UNL     1       4.761  -6.496  23.878  0.00  0.00    -0.082 Cl
ATOM     10  C   UNL     1       6.656  -4.736  22.954  0.00  0.00    +0.061 A 
ATOM     11 CL   UNL     1       7.467  -6.039  22.152  0.00  0.00    -0.082 Cl
ATOM     12  C   UNL     1       7.238  -3.462  22.842  0.00  0.00    +0.049 A 
ATOM     13  N   UNL     1       5.033  -1.411  24.816  0.00  0.00    -0.214 NA
ENDROOT
BRANCH   4  14
ATOM     14  C1* UNL     1       8.134  -0.448  23.186  0.00  0.00    +0.254 C 
ATOM     15  O4* UNL     1       8.732   0.310  24.262  0.00  0.00    -0.346 OA
ATOM     16  C4* UNL     1       9.638   1.268  23.667  0.00  0.00    +0.177 C 
ATOM     17  C3* UNL     1       9.555   1.103  22.143  0.00  0.00    +0.178 C 
ATOM     18  C2* UNL     1       8.187   0.460  21.938  0.00  0.00    +0.195 C 
BRANCH  17  19
ATOM     19  O3* UNL     1       9.654   2.362  21.477  0.00  0.00    -0.386 OA
ATOM     20  H3* UNL     1       9.054   2.963  21.969  0.00  0.00    +0.210 HD
ENDBRANCH  17  19
BRANCH  18  21
ATOM     21  O2* UNL     1       7.259   1.556  21.881  0.00  0.00    -0.385 OA
ATOM     22  H2* UNL     1       6.928   1.688  22.797  0.00  0.00    +0.210 HD
ENDBRANCH  18  21
BRANCH  16  23
ATOM     23  C5* UNL     1      11.046   0.995  24.192  0.00  0.00    +0.190 C 
BRANCH  23  24
ATOM     24  O5* UNL     1      10.977   0.444  25.510  0.00  0.00    -0.392 OA
ATOM     25  H5* UNL     1      11.596   0.969  26.050  0.00  0.00    +0.210 HD
ENDBRANCH  23  24
ENDBRANCH  16  23
ENDBRANCH   4  14
BRANCH   1  27
ATOM     26  C   UNL     1       6.439   1.537  27.216  0.00  0.00    +0.027 C 
ATOM     27  C   UNL     1       5.350   1.133  26.213  0.00  0.00    +0.067 C 
ATOM     28  C   UNL     1       4.401   2.305  25.991  0.00  0.00    +0.027 C 
ENDBRANCH   1  27
TORSDOF 6
ENDMDL
MODEL 2
REMARK VINA RESULT:      -5.9      1.935      4.350
REMARK  Name = 
REMARK  8 active torsions:
REMARK  status: ('A' for Active; 'I' for Inactive)
REMARK    1  A    between atoms: C_1  and  C_2
REMARK    2  A    between atoms: C_2  and  C_3
REMARK    3  A    between atoms: C_2  and  N_4
REMARK    4  A    between atoms: N_13  and  C1*_14
REMARK    5  A    between atoms: C2*_16  and  O2*_26
REMARK    6  A    between atoms: C3*_18  and  O3*_25
REMARK    7  A    between atoms: C4*_20  and  C5*_23
REMARK    8  A    between atoms: C5*_23  and  O5*_24
REMARK                            x       y       z     vdW  Elec       q    Type
REMARK                         _______ _______ _______ _____ _____    ______ ____
ROOT
ATOM      1  N   UNL     1       8.616   0.297  23.346  0.00  0.00    -0.312 N 
ATOM      2  H   UNL     1       8.083   0.903  23.977  0.00  0.00    +0.149 HD
ATOM      3  C   UNL     1       8.155  -0.972  23.293  0.00  0.00    +0.199 A 
ATOM      4  N   UNL     1       7.430  -1.521  24.332  0.00  0.00    -0.283 N 
ATOM      5  C   UNL     1       6.999  -2.776  23.912  0.00  0.00    +0.074 A 
ATOM      6  C   UNL     1       7.543  -2.914  22.635  0.00  0.00    +0.092 A 
ATOM      7  C   UNL     1       7.270  -4.063  21.875  0.00  0.00    +0.051 A 
ATOM      8  C   UNL     1       6.435  -5.049  22.418  0.00  0.00    +0.061 A 
ATOM      9 CL   UNL     1       6.080  -6.422  21.427  0.00  0.00    -0.082 Cl
ATOM     10  C   UNL     1       5.900  -4.900  23.706  0.00  0.00    +0.061 A 
ATOM     11 CL   UNL     1       4.857  -6.089  24.411  0.00  0.00    -0.082 Cl
ATOM     12  C   UNL     1       6.179  -3.762  24.482  0.00  0.00    +0.049 A 
ATOM     13  N   UNL     1       8.282  -1.818  22.298  0.00  0.00    -0.214 NA
ENDROOT
BRANCH   4  14
ATOM     14  C1* UNL     1       6.996  -0.906  25.572  0.00  0.00    +0.254 C 
ATOM     15  O4* UNL     1       6.407   0.376  25.260  0.00  0.00    -0.346 OA
ATOM     16  C4* UNL     1       6.421   1.167  26.471  0.00  0.00    +0.177 C 
ATOM     17  C3* UNL     1       7.087   0.326  27.568  0.00  0.00    +0.178 C 
ATOM     18  C2* UNL     1       7.931  -0.670  26.778  0.00  0.00    +0.195 C 
BRANCH  17  19
ATOM     19  O3* UNL     1       7.890   1.135  28.428  0.00  0.00    -0.386 OA
ATOM     20  H3* UNL     1       8.593   1.505  27.854  0.00  0.00    +0.210 HD
ENDBRANCH  17  19
BRANCH  18  21
ATOM     21  O2* UNL     1       9.174   0.006  26.525  0.00  0.00    -0.385 OA
ATOM     22  H2* UNL     1       9.105   0.384  25.620  0.00  0.00    +0.210 HD
ENDBRANCH  18  21
BRANCH  16  23
ATOM     23  C5* UNL     1       4.980   1.530  26.829  0.00  0.00    +0.190 C 
BRANCH  23  24
ATOM     24  O5* UNL     1       4.105   1.166  25.758  0.00  0.00    -0.392 OA
ATOM     25  H5* UNL     1       3.315   0.782  26.180  0.00  0.00    +0.210 HD
ENDBRANCH  23  24
ENDBRANCH  16  23
ENDBRANCH   4  14
BRANCH   1  27
ATOM     26  C   UNL     1       7.729   1.954  21.843  0.00  0.00    +0.027 C 
ATOM     27  C   UNL     1       8.920   1.025  22.112  0.00  0.00    +0.067 C 
ATOM     28  C   UNL     1      10.194   1.853  22.238  0.00  0.00    +0.027 C 
ENDBRANCH   1  27
TORSDOF 6
ENDMDL
MODEL 3
REMARK VINA RESULT:      -5.8      1.430      1.731
REMARK  Name = 
REMARK  8 active torsions:
REMARK  status: ('A' for Active; 'I' for Inactive)
REMARK    1  A    between atoms: C_1  and  C_2
REMARK    2  A    between atoms: C_2  and  C_3
REMARK    3  A    between atoms: C_2  and  N_4
REMARK    4  A    between atoms: N_13  and  C1*_14
REMARK    5  A    between atoms: C2*_16  and  O2*_26
REMARK    6  A    between atoms: C3*_18  and  O3*_25
REMARK    7  A    between atoms: C4*_20  and  C5*_23
REMARK    8  A    between atoms: C5*_23  and  O5*_24
REMARK                            x       y       z     vdW  Elec       q    Type
REMARK                         _______ _______ _______ _____ _____    ______ ____
ROOT
ATOM      1  N   UNL     1       5.676   1.484  25.759  0.00  0.00    -0.312 N 
ATOM      2  H   UNL     1       6.489   2.036  25.469  0.00  0.00    +0.149 HD
ATOM      3  C   UNL     1       5.644   0.242  25.228  0.00  0.00    +0.199 A 
ATOM      4  N   UNL     1       6.297  -0.056  24.048  0.00  0.00    -0.283 N 
ATOM      5  C   UNL     1       6.179  -1.428  23.851  0.00  0.00    +0.074 A 
ATOM      6  C   UNL     1       5.410  -1.864  24.929  0.00  0.00    +0.092 A 
ATOM      7  C   UNL     1       5.126  -3.230  25.084  0.00  0.00    +0.051 A 
ATOM      8  C   UNL     1       5.640  -4.137  24.148  0.00  0.00    +0.061 A 
ATOM      9 CL   UNL     1       5.313  -5.816  24.405  0.00  0.00    -0.082 Cl
ATOM     10  C   UNL     1       6.408  -3.684  23.064  0.00  0.00    +0.061 A 
ATOM     11 CL   UNL     1       7.070  -4.771  21.889  0.00  0.00    -0.082 Cl
ATOM     12  C   UNL     1       6.685  -2.318  22.890  0.00  0.00    +0.049 A 
ATOM     13  N   UNL     1       5.058  -0.818  25.731  0.00  0.00    -0.214 NA
ENDROOT
BRANCH   4  14
ATOM     14  C1* UNL     1       7.127   0.797  23.219  0.00  0.00    +0.254 C 
ATOM     15  O4* UNL     1       8.203   1.314  24.035  0.00  0.00    -0.346 OA
ATOM     16  C4* UNL     1       8.720   2.493  23.375  0.00  0.00    +0.177 C 
ATOM     17  C3* UNL     1       7.887   2.721  22.107  0.00  0.00    +0.178 C 
ATOM     18  C2* UNL     1       6.579   1.998  22.417  0.00  0.00    +0.195 C 
BRANCH  17  19
ATOM     19  O3* UNL     1       7.678   4.112  21.865  0.00  0.00    -0.386 OA
ATOM     20  H3* UNL     1       7.650   4.204  20.889  0.00  0.00    +0.210 HD
ENDBRANCH  17  19
BRANCH  18  21
ATOM     21  O2* UNL     1       5.778   2.956  23.129  0.00  0.00    -0.385 OA
ATOM     22  H2* UNL     1       6.177   3.836  22.954  0.00  0.00    +0.210 HD
ENDBRANCH  18  21
BRANCH  16  23
ATOM     23  C5* UNL     1      10.195   2.259  23.052  0.00  0.00    +0.190 C 
BRANCH  23  24
ATOM     24  O5* UNL     1      10.411   2.380  21.643  0.00  0.00    -0.392 OA
ATOM     25  H5* UNL     1      10.538   1.470  21.316  0.00  0.00    +0.210 HD
ENDBRANCH  23  24
ENDBRANCH  16  23
ENDBRANCH   4  14
BRANCH   1  27
ATOM     26  C   UNL     1       6.818   1.728  27.864  0.00  0.00    +0.027 C 
ATOM     27  C   UNL     1       5.439   1.682  27.191  0.00  0.00    +0.067 C 
ATOM     28  C   UNL     1       4.691   2.981  27.471  0.00  0.00    +0.027 C 
ENDBRANCH   1  27
TORSDOF 6
ENDMDL
MODEL 4
REMARK VINA RESULT:      -5.7      1.863      4.491
REMARK  Name = 
REMARK  8 active torsions:
REMARK  status: ('A' for Active; 'I' for Inactive)
REMARK    1  A    between atoms: C_1  and  C_2
REMARK    2  A    between atoms: C_2  and  C_3
REMARK    3  A    between atoms: C_2  and  N_4
REMARK    4  A    between atoms: N_13  and  C1*_14
REMARK    5  A    between atoms: C2*_16  and  O2*_26
REMARK    6  A    between atoms: C3*_18  and  O3*_25
REMARK    7  A    between atoms: C4*_20  and  C5*_23
REMARK    8  A    between atoms: C5*_23  and  O5*_24
REMARK                            x       y       z     vdW  Elec       q    Type
REMARK                         _______ _______ _______ _____ _____    ______ ____
ROOT
ATOM      1  N   UNL     1       8.709   0.577  23.713  0.00  0.00    -0.312 N 
ATOM      2  H   UNL     1       8.083   1.353  23.951  0.00  0.00    +0.149 HD
ATOM      3  C   UNL     1       8.073  -0.603  23.544  0.00  0.00    +0.199 A 
ATOM      4  N   UNL     1       6.851  -0.856  24.135  0.00  0.00    -0.283 N 
ATOM      5  C   UNL     1       6.415  -2.089  23.661  0.00  0.00    +0.074 A 
ATOM      6  C   UNL     1       7.448  -2.521  22.831  0.00  0.00    +0.092 A 
ATOM      7  C   UNL     1       7.329  -3.732  22.131  0.00  0.00    +0.051 A 
ATOM      8  C   UNL     1       6.153  -4.481  22.273  0.00  0.00    +0.061 A 
ATOM      9 CL   UNL     1       6.022  -5.939  21.350  0.00  0.00    -0.082 Cl
ATOM     10  C   UNL     1       5.123  -4.037  23.116  0.00  0.00    +0.061 A 
ATOM     11 CL   UNL     1       3.650  -4.926  23.314  0.00  0.00    -0.082 Cl
ATOM     12  C   UNL     1       5.239  -2.835  23.834  0.00  0.00    +0.049 A 
ATOM     13  N   UNL     1       8.470  -1.616  22.813  0.00  0.00    -0.214 NA
ENDROOT
BRANCH   4  14
ATOM     14  C1* UNL     1       6.028   0.018  24.949  0.00  0.00    +0.254 C 
ATOM     15  O4* UNL     1       5.802   1.242  24.214  0.00  0.00    -0.346 OA
ATOM     16  C4* UNL     1       5.417   2.258  25.169  0.00  0.00    +0.177 C 
ATOM     17  C3* UNL     1       5.446   1.620  26.564  0.00  0.00    +0.178 C 
ATOM     18  C2* UNL     1       6.398   0.442  26.387  0.00  0.00    +0.195 C 
BRANCH  17  19
ATOM     19  O3* UNL     1       5.919   2.541  27.547  0.00  0.00    -0.386 OA
ATOM     20  H3* UNL     1       6.105   3.370  27.058  0.00  0.00    +0.210 HD
ENDBRANCH  17  19
BRANCH  18  21
ATOM     21  O2* UNL     1       7.713   0.984  26.596  0.00  0.00    -0.385 OA
ATOM     22  H2* UNL     1       8.143   1.018  25.713  0.00  0.00    +0.210 HD
ENDBRANCH  18  21
BRANCH  16  23
ATOM     23  C5* UNL     1       4.023   2.764  24.803  0.00  0.00    +0.190 C 
BRANCH  23  24
ATOM     24  O5* UNL     1       3.787   2.576  23.404  0.00  0.00    -0.392 OA
ATOM     25  H5* UNL     1       4.668   2.477  22.999  0.00  0.00    +0.210 HD
ENDBRANCH  23  24
ENDBRANCH  16  23
ENDBRANCH   4  14
BRANCH   1  27
ATOM     26  C   UNL     1       8.912   1.527  21.512  0.00  0.00    +0.027 C 
ATOM     27  C   UNL     1       9.698   1.031  22.733  0.00  0.00    +0.067 C 
ATOM     28  C   UNL     1      10.563   2.163  23.277  0.00  0.00    +0.027 C 
ENDBRANCH   1  27
TORSDOF 6
ENDMDL
MODEL 5
REMARK VINA RESULT:      -5.7      3.571      5.589
REMARK  Name = 
REMARK  8 active torsions:
REMARK  status: ('A' for Active; 'I' for Inactive)
REMARK    1  A    between atoms: C_1  and  C_2
REMARK    2  A    between atoms: C_2  and  C_3
REMARK    3  A    between atoms: C_2  and  N_4
REMARK    4  A    between atoms: N_13  and  C1*_14
REMARK    5  A    between atoms: C2*_16  and  O2*_26
REMARK    6  A    between atoms: C3*_18  and  O3*_25
REMARK    7  A    between atoms: C4*_20  and  C5*_23
REMARK    8  A    between atoms: C5*_23  and  O5*_24
REMARK                            x       y       z     vdW  Elec       q    Type
REMARK                         _______ _______ _______ _____ _____    ______ ____
ROOT
ATOM      1  N   UNL     1       8.428  -0.386  23.470  0.00  0.00    -0.312 N 
ATOM      2  H   UNL     1       8.955  -1.227  23.726  0.00  0.00    +0.149 HD
ATOM      3  C   UNL     1       7.296  -0.215  24.187  0.00  0.00    +0.199 A 
ATOM      4  N   UNL     1       6.651  -1.280  24.786  0.00  0.00    -0.283 N 
ATOM      5  C   UNL     1       5.611  -0.755  25.544  0.00  0.00    +0.074 A 
ATOM      6  C   UNL     1       5.677   0.618  25.311  0.00  0.00    +0.092 A 
ATOM      7  C   UNL     1       4.789   1.487  25.966  0.00  0.00    +0.051 A 
ATOM      8  C   UNL     1       3.855   0.948  26.861  0.00  0.00    +0.061 A 
ATOM      9 CL   UNL     1       2.816   2.057  27.688  0.00  0.00    -0.082 Cl
ATOM     10  C   UNL     1       3.795  -0.436  27.082  0.00  0.00    +0.061 A 
ATOM     11 CL   UNL     1       2.662  -1.143  28.185  0.00  0.00    -0.082 Cl
ATOM     12  C   UNL     1       4.668  -1.316  26.420  0.00  0.00    +0.049 A 
ATOM     13  N   UNL     1       6.686   0.918  24.443  0.00  0.00    -0.214 NA
ENDROOT
BRANCH   4  14
ATOM     14  C1* UNL     1       7.033  -2.680  24.821  0.00  0.00    +0.254 C 
ATOM     15  O4* UNL     1       8.442  -2.756  25.135  0.00  0.00    -0.346 OA
ATOM     16  C4* UNL     1       8.911  -4.057  24.708  0.00  0.00    +0.177 C 
ATOM     17  C3* UNL     1       7.726  -4.792  24.068  0.00  0.00    +0.178 C 
ATOM     18  C2* UNL     1       6.798  -3.657  23.649  0.00  0.00    +0.195 C 
BRANCH  17  19
ATOM     19  O3* UNL     1       8.143  -5.576  22.950  0.00  0.00    -0.386 OA
ATOM     20  H3* UNL     1       8.842  -6.171  23.297  0.00  0.00    +0.210 HD
ENDBRANCH  17  19
BRANCH  18  21
ATOM     21  O2* UNL     1       7.261  -3.250  22.350  0.00  0.00    -0.385 OA
ATOM     22  H2* UNL     1       6.876  -2.362  22.184  0.00  0.00    +0.210 HD
ENDBRANCH  18  21
BRANCH  16  23
ATOM     23  C5* UNL     1       9.453  -4.801  25.927  0.00  0.00    +0.190 C 
BRANCH  23  24
ATOM     24  O5* UNL     1       9.820  -6.134  25.562  0.00  0.00    -0.392 OA
ATOM     25  H5* UNL     1      10.275  -6.506  26.340  0.00  0.00    +0.210 HD
ENDBRANCH  23  24
ENDBRANCH  16  23
ENDBRANCH   4  14
BRANCH   1  27
ATOM     26  C   UNL     1      10.574   0.451  24.167  0.00  0.00    +0.027 C 
ATOM     27  C   UNL     1       9.356   0.730  23.276  0.00  0.00    +0.067 C 
ATOM     28  C   UNL     1       9.804   0.854  21.824  0.00  0.00    +0.027 C 
ENDBRANCH   1  27
TORSDOF 6
ENDMDL
MODEL 6
REMARK VINA RESULT:      -5.7      3.881      5.933
REMARK  Name = 
REMARK  8 active torsions:
REMARK  status: ('A' for Active; 'I' for Inactive)
REMARK    1  A    between atoms: C_1  and  C_2
REMARK    2  A    between atoms: C_2  and  C_3
REMARK    3  A    between atoms: C_2  and  N_4
REMARK    4  A    between atoms: N_13  and  C1*_14
REMARK    5  A    between atoms: C2*_16  and  O2*_26
REMARK    6  A    between atoms: C3*_18  and  O3*_25
REMARK    7  A    between atoms: C4*_20  and  C5*_23
REMARK    8  A    between atoms: C5*_23  and  O5*_24
REMARK                            x       y       z     vdW  Elec       q    Type
REMARK                         _______ _______ _______ _____ _____    ______ ____
ROOT
ATOM      1  N   UNL     1       4.995  -2.531  25.963  0.00  0.00    -0.312 N 
ATOM      2  H   UNL     1       5.254  -3.451  25.593  0.00  0.00    +0.149 HD
ATOM      3  C   UNL     1       5.611  -1.502  25.342  0.00  0.00    +0.199 A 
ATOM      4  N   UNL     1       6.815  -1.670  24.685  0.00  0.00    -0.283 N 
ATOM      5  C   UNL     1       7.106  -0.467  24.050  0.00  0.00    +0.074 A 
ATOM      6  C   UNL     1       6.054   0.374  24.412  0.00  0.00    +0.092 A 
ATOM      7  C   UNL     1       5.993   1.681  23.904  0.00  0.00    +0.051 A 
ATOM      8  C   UNL     1       6.994   2.112  23.023  0.00  0.00    +0.061 A 
ATOM      9 CL   UNL     1       6.851   3.710  22.377  0.00  0.00    -0.082 Cl
ATOM     10  C   UNL     1       8.050   1.257  22.672  0.00  0.00    +0.061 A 
ATOM     11 CL   UNL     1       9.303   1.745  21.581  0.00  0.00    -0.082 Cl
ATOM     12  C   UNL     1       8.130  -0.048  23.187  0.00  0.00    +0.049 A 
ATOM     13  N   UNL     1       5.178  -0.268  25.238  0.00  0.00    -0.214 NA
ENDROOT
BRANCH   4  14
ATOM     14  C1* UNL     1       7.590  -2.881  24.488  0.00  0.00    +0.254 C 
ATOM     15  O4* UNL     1       6.725  -3.881  23.904  0.00  0.00    -0.346 OA
ATOM     16  C4* UNL     1       7.329  -5.173  24.150  0.00  0.00    +0.177 C 
ATOM     17  C3* UNL     1       8.613  -4.941  24.958  0.00  0.00    +0.178 C 
ATOM     18  C2* UNL     1       8.366  -3.588  25.619  0.00  0.00    +0.195 C 
BRANCH  17  19
ATOM     19  O3* UNL     1       8.814  -5.973  25.923  0.00  0.00    -0.386 OA
ATOM     20  H3* UNL     1       8.936  -5.509  26.778  0.00  0.00    +0.210 HD
ENDBRANCH  17  19
BRANCH  18  21
ATOM     21  O2* UNL     1       7.646  -3.884  26.828  0.00  0.00    -0.385 OA
ATOM     22  H2* UNL     1       8.314  -3.912  27.549  0.00  0.00    +0.210 HD
ENDBRANCH  18  21
BRANCH  16  23
ATOM     23  C5* UNL     1       7.616  -5.838  22.804  0.00  0.00    +0.190 C 
BRANCH  23  24
ATOM     24  O5* UNL     1       7.169  -4.994  21.739  0.00  0.00    -0.392 OA
ATOM     25  H5* UNL     1       7.594  -5.340  20.932  0.00  0.00    +0.210 HD
ENDBRANCH  23  24
ENDBRANCH  16  23
ENDBRANCH   4  14
BRANCH   1  27
ATOM     26  C   UNL     1       2.914  -3.491  25.230  0.00  0.00    +0.027 C 
ATOM     27  C   UNL     1       3.551  -2.492  26.205  0.00  0.00    +0.067 C 
ATOM     28  C   UNL     1       3.202  -2.882  27.637  0.00  0.00    +0.027 C 
ENDBRANCH   1  27
TORSDOF 6
ENDMDL
MODEL 7
REMARK VINA RESULT:      -5.6      4.391      6.445
REMARK  Name = 
REMARK  8 active torsions:
REMARK  status: ('A' for Active; 'I' for Inactive)
REMARK    1  A    between atoms: C_1  and  C_2
REMARK    2  A    between atoms: C_2  and  C_3
REMARK    3  A    between atoms: C_2  and  N_4
REMARK    4  A    between atoms: N_13  and  C1*_14
REMARK    5  A    between atoms: C2*_16  and  O2*_26
REMARK    6  A    between atoms: C3*_18  and  O3*_25
REMARK    7  A    between atoms: C4*_20  and  C5*_23
REMARK    8  A    between atoms: C5*_23  and  O5*_24
REMARK                            x       y       z     vdW  Elec       q    Type
REMARK                         _______ _______ _______ _____ _____    ______ ____
ROOT
ATOM      1  N   UNL     1       5.224  -3.502  26.979  0.00  0.00    -0.312 N 
ATOM      2  H   UNL     1       4.502  -3.821  26.325  0.00  0.00    +0.149 HD
ATOM      3  C   UNL     1       6.301  -2.955  26.375  0.00  0.00    +0.199 A 
ATOM      4  N   UNL     1       6.638  -3.271  25.073  0.00  0.00    -0.283 N 
ATOM      5  C   UNL     1       7.703  -2.451  24.715  0.00  0.00    +0.074 A 
ATOM      6  C   UNL     1       7.966  -1.710  25.866  0.00  0.00    +0.092 A 
ATOM      7  C   UNL     1       8.968  -0.726  25.856  0.00  0.00    +0.051 A 
ATOM      8  C   UNL     1       9.679  -0.499  24.671  0.00  0.00    +0.061 A 
ATOM      9 CL   UNL     1      10.867   0.759  24.685  0.00  0.00    -0.082 Cl
ATOM     10  C   UNL     1       9.408  -1.256  23.521  0.00  0.00    +0.061 A 
ATOM     11 CL   UNL     1      10.257  -1.002  22.032  0.00  0.00    -0.082 Cl
ATOM     12  C   UNL     1       8.419  -2.253  23.524  0.00  0.00    +0.049 A 
ATOM     13  N   UNL     1       7.126  -2.069  26.880  0.00  0.00    -0.214 NA
ENDROOT
BRANCH   4  14
ATOM     14  C1* UNL     1       5.950  -4.137  24.133  0.00  0.00    +0.254 C 
ATOM     15  O4* UNL     1       5.323  -5.205  24.877  0.00  0.00    -0.346 OA
ATOM     16  C4* UNL     1       5.065  -6.286  23.951  0.00  0.00    +0.177 C 
ATOM     17  C3* UNL     1       5.600  -5.859  22.577  0.00  0.00    +0.178 C 
ATOM     18  C2* UNL     1       6.643  -4.802  22.924  0.00  0.00    +0.195 C 
BRANCH  17  19
ATOM     19  O3* UNL     1       6.176  -6.962  21.878  0.00  0.00    -0.386 OA
ATOM     20  H3* UNL     1       5.534  -7.184  21.170  0.00  0.00    +0.210 HD
ENDBRANCH  17  19
BRANCH  18  21
ATOM     21  O2* UNL     1       7.854  -5.535  23.180  0.00  0.00    -0.385 OA
ATOM     22  H2* UNL     1       7.587  -6.470  23.323  0.00  0.00    +0.210 HD
ENDBRANCH  18  21
BRANCH  16  23
ATOM     23  C5* UNL     1       3.561  -6.549  23.919  0.00  0.00    +0.190 C 
BRANCH  23  24
ATOM     24  O5* UNL     1       3.312  -7.957  23.875  0.00  0.00    -0.392 OA
ATOM     25  H5* UNL     1       4.184  -8.383  23.978  0.00  0.00    +0.210 HD
ENDBRANCH  23  24
ENDBRANCH  16  23
ENDBRANCH   4  14
BRANCH   1  27
ATOM     26  C   UNL     1       3.353  -2.104  27.560  0.00  0.00    +0.027 C 
ATOM     27  C   UNL     1       4.589  -2.825  28.113  0.00  0.00    +0.067 C 
ATOM     28  C   UNL     1       4.163  -3.808  29.198  0.00  0.00    +0.027 C 
ENDBRANCH   1  27
TORSDOF 6
ENDMDL
MODEL 8
REMARK VINA RESULT:      -5.4      2.395      2.903
REMARK  Name = 
REMARK  8 active torsions:
REMARK  status: ('A' for Active; 'I' for Inactive)
REMARK    1  A    between atoms: C_1  and  C_2
REMARK    2  A    between atoms: C_2  and  C_3
REMARK    3  A    between atoms: C_2  and  N_4
REMARK    4  A    between atoms: N_13  and  C1*_14
REMARK    5  A    between atoms: C2*_16  and  O2*_26
REMARK    6  A    between atoms: C3*_18  and  O3*_25
REMARK    7  A    between atoms: C4*_20  and  C5*_23
REMARK    8  A    between atoms: C5*_23  and  O5*_24
REMARK                            x       y       z     vdW  Elec       q    Type
REMARK                         _______ _______ _______ _____ _____    ______ ____
ROOT
ATOM      1  N   UNL     1       5.738   1.057  24.342  0.00  0.00    -0.312 N 
ATOM      2  H   UNL     1       6.685   1.424  24.205  0.00  0.00    +0.149 HD
ATOM      3  C   UNL     1       5.707  -0.161  24.925  0.00  0.00    +0.199 A 
ATOM      4  N   UNL     1       6.780  -1.027  24.849  0.00  0.00    -0.283 N 
ATOM      5  C   UNL     1       6.480  -2.122  25.652  0.00  0.00    +0.074 A 
ATOM      6  C   UNL     1       5.200  -1.853  26.134  0.00  0.00    +0.092 A 
ATOM      7  C   UNL     1       4.585  -2.739  27.033  0.00  0.00    +0.051 A 
ATOM      8  C   UNL     1       5.287  -3.881  27.441  0.00  0.00    +0.061 A 
ATOM      9 CL   UNL     1       4.516  -4.919  28.591  0.00  0.00    -0.082 Cl
ATOM     10  C   UNL     1       6.572  -4.144  26.944  0.00  0.00    +0.061 A 
ATOM     11 CL   UNL     1       7.479  -5.538  27.429  0.00  0.00    -0.082 Cl
ATOM     12  C   UNL     1       7.191  -3.272  26.032  0.00  0.00    +0.049 A 
ATOM     13  N   UNL     1       4.731  -0.670  25.639  0.00  0.00    -0.214 NA
ENDROOT
BRANCH   4  14
ATOM     14  C1* UNL     1       8.078  -0.826  24.232  0.00  0.00    +0.254 C 
ATOM     15  O4* UNL     1       8.024   0.389  23.450  0.00  0.00    -0.346 OA
ATOM     16  C4* UNL     1       9.103   0.334  22.488  0.00  0.00    +0.177 C 
ATOM     17  C3* UNL     1       9.827  -1.005  22.677  0.00  0.00    +0.178 C 
ATOM     18  C2* UNL     1       8.770  -1.881  23.342  0.00  0.00    +0.195 C 
BRANCH  17  19
ATOM     19  O3* UNL     1      10.254  -1.547  21.427  0.00  0.00    -0.386 OA
ATOM     20  H3* UNL     1      10.655  -2.415  21.643  0.00  0.00    +0.210 HD
ENDBRANCH  17  19
BRANCH  18  21
ATOM     21  O2* UNL     1       8.003  -2.436  22.259  0.00  0.00    -0.385 OA
ATOM     22  H2* UNL     1       8.618  -3.008  21.749  0.00  0.00    +0.210 HD
ENDBRANCH  18  21
BRANCH  16  23
ATOM     23  C5* UNL     1      10.031   1.523  22.733  0.00  0.00    +0.190 C 
BRANCH  23  24
ATOM     24  O5* UNL     1      10.253   2.229  21.509  0.00  0.00    -0.392 OA
ATOM     25  H5* UNL     1      10.558   1.560  20.869  0.00  0.00    +0.210 HD
ENDBRANCH  23  24
ENDBRANCH  16  23
ENDBRANCH   4  14
BRANCH   1  27
ATOM     26  C   UNL     1       5.709   2.996  25.767  0.00  0.00    +0.027 C 
ATOM     27  C   UNL     1       4.865   2.130  24.823  0.00  0.00    +0.067 C 
ATOM     28  C   UNL     1       4.334   2.989  23.681  0.00  0.00    +0.027 C 
ENDBRANCH   1  27
TORSDOF 6
ENDMDL
MODEL 9
REMARK VINA RESULT:      -5.4      2.965      3.785
REMARK  Name = 
REMARK  8 active torsions:
REMARK  status: ('A' for Active; 'I' for Inactive)
REMARK    1  A    between atoms: C_1  and  C_2
REMARK    2  A    between atoms: C_2  and  C_3
REMARK    3  A    between atoms: C_2  and  N_4
REMARK    4  A    between atoms: N_13  and  C1*_14
REMARK    5  A    between atoms: C2*_16  and  O2*_26
REMARK    6  A    between atoms: C3*_18  and  O3*_25
REMARK    7  A    between atoms: C4*_20  and  C5*_23
REMARK    8  A    between atoms: C5*_23  and  O5*_24
REMARK                            x       y       z     vdW  Elec       q    Type
REMARK                         _______ _______ _______ _____ _____    ______ ____
ROOT
ATOM      1  N   UNL     1       4.852   2.617  24.871  0.00  0.00    -0.312 N 
ATOM      2  H   UNL     1       5.336   3.520  24.866  0.00  0.00    +0.149 HD
ATOM      3  C   UNL     1       5.633   1.580  24.498  0.00  0.00    +0.199 A 
ATOM      4  N   UNL     1       6.746   1.763  23.702  0.00  0.00    -0.283 N 
ATOM      5  C   UNL     1       7.393   0.535  23.614  0.00  0.00    +0.074 A 
ATOM      6  C   UNL     1       6.582  -0.332  24.345  0.00  0.00    +0.092 A 
ATOM      7  C   UNL     1       6.959  -1.674  24.514  0.00  0.00    +0.051 A 
ATOM      8  C   UNL     1       8.164  -2.113  23.949  0.00  0.00    +0.061 A 
ATOM      9 CL   UNL     1       8.618  -3.759  24.226  0.00  0.00    -0.082 Cl
ATOM     10  C   UNL     1       8.967  -1.232  23.210  0.00  0.00    +0.061 A 
ATOM     11 CL   UNL     1      10.467  -1.730  22.502  0.00  0.00    -0.082 Cl
ATOM     12  C   UNL     1       8.592   0.109  23.021  0.00  0.00    +0.049 A 
ATOM     13  N   UNL     1       5.489   0.321  24.837  0.00  0.00    -0.214 NA
ENDROOT
BRANCH   4  14
ATOM     14  C1* UNL     1       7.307   2.995  23.180  0.00  0.00    +0.254 C 
ATOM     15  O4* UNL     1       7.447   3.929  24.274  0.00  0.00    -0.346 OA
ATOM     16  C4* UNL     1       7.537   5.256  23.705  0.00  0.00    +0.177 C 
ATOM     17  C3* UNL     1       7.409   5.118  22.182  0.00  0.00    +0.178 C 
ATOM     18  C2* UNL     1       6.679   3.789  22.014  0.00  0.00    +0.195 C 
BRANCH  17  19
ATOM     19  O3* UNL     1       6.670   6.203  21.622  0.00  0.00    -0.386 OA
ATOM     20  H3* UNL     1       6.587   6.861  22.344  0.00  0.00    +0.210 HD
ENDBRANCH  17  19
BRANCH  18  21
ATOM     21  O2* UNL     1       5.281   4.111  22.113  0.00  0.00    -0.385 OA
ATOM     22  H2* UNL     1       5.135   4.894  21.537  0.00  0.00    +0.210 HD
ENDBRANCH  18  21
BRANCH  16  23
ATOM     23  C5* UNL     1       8.877   5.867  24.110  0.00  0.00    +0.190 C 
BRANCH  23  24
ATOM     24  O5* UNL     1       9.647   6.171  22.944  0.00  0.00    -0.392 OA
ATOM     25  H5* UNL     1       9.534   7.128  22.795  0.00  0.00    +0.210 HD
ENDBRANCH  23  24
ENDBRANCH  16  23
ENDBRANCH   4  14
BRANCH   1  27
ATOM     26  C   UNL     1       4.543   3.566  27.061  0.00  0.00    +0.027 C 
ATOM     27  C   UNL     1       4.016   2.520  26.070  0.00  0.00    +0.067 C 
ATOM     28  C   UNL     1       2.548   2.798  25.766  0.00  0.00    +0.027 C 
ENDBRANCH   1  27
TORSDOF 6
ENDMDL
