MODEL 1
REMARK VINA RESULT:      -6.2      0.000      0.000
REMARK  Name = 
REMARK  7 active torsions:
REMARK  status: ('A' for Active; 'I' for Inactive)
REMARK    1  A    between atoms: N_3  and  C_9
REMARK    2  A    between atoms: C_9  and  C_10
REMARK    3  A    between atoms: C_10  and  C_12
REMARK    4  A    between atoms: C_10  and  O_14
REMARK    5  A    between atoms: C_12  and  O_13
REMARK    6  A    between atoms: O_14  and  C_15
REMARK    7  A    between atoms: C_15  and  P_16
REMARK                            x       y       z     vdW  Elec       q    Type
REMARK                         _______ _______ _______ _____ _____    ______ ____
ROOT
ATOM      1  C   UNL     1       9.416  -2.554  24.478  0.00  0.00    +0.160 C 
ENDROOT
BRANCH   1  10
ATOM      2  C   UNL     1       9.614  -0.449  21.462  0.00  0.00    +0.061 A 
ATOM      3  C   UNL     1       9.783   0.840  22.154  0.00  0.00    +0.123 A 
ATOM      4  N   UNL     1       9.724   2.009  21.445  0.00  0.00    -0.343 N 
ATOM      5  H   UNL     1      10.129   1.998  20.521  0.00  0.00    +0.144 HD
ATOM      6  H   UNL     1      10.020   2.792  22.015  0.00  0.00    +0.144 HD
ATOM      7  N   UNL     1       9.982   0.955  23.428  0.00  0.00    -0.178 NA
ATOM      8  C   UNL     1       9.980  -0.170  24.223  0.00  0.00    +0.350 A 
ATOM      9  O   UNL     1      10.154  -0.052  25.436  0.00  0.00    -0.244 OA
ATOM     10  N   UNL     1       9.739  -1.407  23.617  0.00  0.00    -0.296 N 
ATOM     11  C   UNL     1       9.562  -1.521  22.256  0.00  0.00    +0.094 A 
ENDBRANCH   1  10
BRANCH   1  12
ATOM     12  C   UNL     1       8.576  -3.703  23.870  0.00  0.00    +0.164 C 
BRANCH  12  13
ATOM     13  O   UNL     1       7.171  -3.389  23.861  0.00  0.00    -0.365 OA
BRANCH  13  14
ATOM     14  C   UNL     1       6.362  -4.591  23.831  0.00  0.00    +0.229 C 
BRANCH  14  15
ATOM     15  P   UNL     1       5.797  -5.186  22.129  0.00  0.00    +0.134 P 
ATOM     16  O   UNL     1       6.813  -6.247  21.720  0.00  0.00    -0.356 OA
ATOM     17  O   UNL     1       5.800  -3.904  21.295  0.00  0.00    -0.356 OA
ATOM     18  O   UNL     1       4.405  -5.724  22.456  0.00  0.00    -0.458 OA
ENDBRANCH  14  15
ENDBRANCH  13  14
ENDBRANCH  12  13
BRANCH  12  19
ATOM     19  C   UNL     1       8.778  -5.023  24.646  0.00  0.00    +0.189 C 
BRANCH  19  20
ATOM     20  O   UNL     1      10.155  -5.293  24.932  0.00  0.00    -0.392 OA
ATOM     21  H   UNL     1      10.185  -5.626  25.843  0.00  0.00    +0.210 HD
ENDBRANCH  19  20
ENDBRANCH  12  19
ENDBRANCH   1  12
TORSDOF 7
ENDMDL
MODEL 2
REMARK VINA RESULT:      -5.9      2.440      3.470
REMARK  Name = 
REMARK  7 active torsions:
REMARK  status: ('A' for Active; 'I' for Inactive)
REMARK    1  A    between atoms: N_3  and  C_9
REMARK    2  A    between atoms: C_9  and  C_10
REMARK    3  A    between atoms: C_10  and  C_12
REMARK    4  A    between atoms: C_10  and  O_14
REMARK    5  A    between atoms: C_12  and  O_13
REMARK    6  A    between atoms: O_14  and  C_15
REMARK    7  A    between atoms: C_15  and  P_16
REMARK                            x       y       z     vdW  Elec       q    Type
REMARK                         _______ _______ _______ _____ _____    ______ ____
ROOT
ATOM      1  C   UNL     1       9.830  -2.674  24.086  0.00  0.00    +0.160 C 
ENDROOT
BRANCH   1  10
ATOM      2  C   UNL     1      10.181   0.987  23.881  0.00  0.00    +0.061 A 
ATOM      3  C   UNL     1      10.022   1.101  22.421  0.00  0.00    +0.123 A 
ATOM      4  N   UNL     1      10.259   2.296  21.799  0.00  0.00    -0.343 N 
ATOM      5  H   UNL     1       9.977   3.127  22.295  0.00  0.00    +0.144 HD
ATOM      6  H   UNL     1       9.951   2.267  20.834  0.00  0.00    +0.144 HD
ATOM      7  N   UNL     1       9.669   0.118  21.654  0.00  0.00    -0.178 NA
ATOM      8  C   UNL     1       9.485  -1.135  22.194  0.00  0.00    +0.350 A 
ATOM      9  O   UNL     1       9.165  -2.068  21.456  0.00  0.00    -0.244 OA
ATOM     10  N   UNL     1       9.708  -1.305  23.564  0.00  0.00    -0.296 N 
ATOM     11  C   UNL     1      10.050  -0.247  24.375  0.00  0.00    +0.094 A 
ENDBRANCH   1  10
BRANCH   1  12
ATOM     12  C   UNL     1       8.562  -3.343  24.670  0.00  0.00    +0.164 C 
BRANCH  12  13
ATOM     13  O   UNL     1       8.761  -3.762  26.033  0.00  0.00    -0.365 OA
BRANCH  13  14
ATOM     14  C   UNL     1       8.343  -5.136  26.228  0.00  0.00    +0.229 C 
BRANCH  14  15
ATOM     15  P   UNL     1       6.724  -5.400  27.166  0.00  0.00    +0.134 P 
ATOM     16  O   UNL     1       6.177  -3.999  27.420  0.00  0.00    -0.356 OA
ATOM     17  O   UNL     1       7.166  -6.177  28.407  0.00  0.00    -0.356 OA
ATOM     18  O   UNL     1       5.932  -6.225  26.153  0.00  0.00    -0.458 OA
ENDBRANCH  14  15
ENDBRANCH  13  14
ENDBRANCH  12  13
BRANCH  12  19
ATOM     19  C   UNL     1       8.137  -4.572  23.836  0.00  0.00    +0.189 C 
BRANCH  19  20
ATOM     20  O   UNL     1       7.538  -4.214  22.587  0.00  0.00    -0.392 OA
ATOM     21  H   UNL     1       6.954  -4.950  22.342  0.00  0.00    +0.210 HD
ENDBRANCH  19  20
ENDBRANCH  12  19
ENDBRANCH   1  12
TORSDOF 7
ENDMDL
MODEL 3
REMARK VINA RESULT:      -5.7      3.966      6.929
REMARK  Name = 
REMARK  7 active torsions:
REMARK  status: ('A' for Active; 'I' for Inactive)
REMARK    1  A    between atoms: N_3  and  C_9
REMARK    2  A    between atoms: C_9  and  C_10
REMARK    3  A    between atoms: C_10  and  C_12
REMARK    4  A    between atoms: C_10  and  O_14
REMARK    5  A    between atoms: C_12  and  O_13
REMARK    6  A    between atoms: O_14  and  C_15
REMARK    7  A    between atoms: C_15  and  P_16
REMARK                            x       y       z     vdW  Elec       q    Type
REMARK                         _______ _______ _______ _____ _____    ______ ____
ROOT
ATOM      1  C   UNL     1       5.936  -4.737  23.726  0.00  0.00    +0.160 C 
ENDROOT
BRANCH   1  10
ATOM      2  C   UNL     1       6.455  -5.615  27.265  0.00  0.00    +0.061 A 
ATOM      3  C   UNL     1       5.475  -6.712  27.323  0.00  0.00    +0.123 A 
ATOM      4  N   UNL     1       5.149  -7.275  28.527  0.00  0.00    -0.343 N 
ATOM      5  H   UNL     1       5.898  -7.376  29.195  0.00  0.00    +0.144 HD
ATOM      6  H   UNL     1       4.600  -8.116  28.395  0.00  0.00    +0.144 HD
ATOM      7  N   UNL     1       4.870  -7.197  26.285  0.00  0.00    -0.178 NA
ATOM      8  C   UNL     1       5.087  -6.634  25.046  0.00  0.00    +0.350 A 
ATOM      9  O   UNL     1       4.496  -7.090  24.066  0.00  0.00    -0.244 OA
ATOM     10  N   UNL     1       5.947  -5.535  24.960  0.00  0.00    -0.296 N 
ATOM     11  C   UNL     1       6.610  -5.050  26.065  0.00  0.00    +0.094 A 
ENDBRANCH   1  10
BRANCH   1  12
ATOM     12  C   UNL     1       7.135  -4.882  22.757  0.00  0.00    +0.164 C 
BRANCH  12  13
ATOM     13  O   UNL     1       7.544  -3.610  22.222  0.00  0.00    -0.365 OA
BRANCH  13  14
ATOM     14  C   UNL     1       7.802  -2.652  23.278  0.00  0.00    +0.229 C 
BRANCH  14  15
ATOM     15  P   UNL     1       9.612  -2.369  23.738  0.00  0.00    +0.134 P 
ATOM     16  O   UNL     1      10.296  -1.965  22.436  0.00  0.00    -0.356 OA
ATOM     17  O   UNL     1      10.036  -3.718  24.322  0.00  0.00    -0.356 OA
ATOM     18  O   UNL     1       9.479  -1.249  24.769  0.00  0.00    -0.458 OA
ENDBRANCH  14  15
ENDBRANCH  13  14
ENDBRANCH  12  13
BRANCH  12  19
ATOM     19  C   UNL     1       6.799  -5.824  21.581  0.00  0.00    +0.189 C 
BRANCH  19  20
ATOM     20  O   UNL     1       5.398  -6.094  21.468  0.00  0.00    -0.392 OA
ATOM     21  H   UNL     1       5.311  -7.057  21.377  0.00  0.00    +0.210 HD
ENDBRANCH  19  20
ENDBRANCH  12  19
ENDBRANCH   1  12
TORSDOF 7
ENDMDL
MODEL 4
REMARK VINA RESULT:      -5.7      4.133      6.499
REMARK  Name = 
REMARK  7 active torsions:
REMARK  status: ('A' for Active; 'I' for Inactive)
REMARK    1  A    between atoms: N_3  and  C_9
REMARK    2  A    between atoms: C_9  and  C_10
REMARK    3  A    between atoms: C_10  and  C_12
REMARK    4  A    between atoms: C_10  and  O_14
REMARK    5  A    between atoms: C_12  and  O_13
REMARK    6  A    between atoms: O_14  and  C_15
REMARK    7  A    between atoms: C_15  and  P_16
REMARK                            x       y       z     vdW  Elec       q    Type
REMARK                         _______ _______ _______ _____ _____    ______ ____
ROOT
ATOM      1  C   UNL     1       9.164  -1.351  24.682  0.00  0.00    +0.160 C 
ENDROOT
BRANCH   1  10
ATOM      2  C   UNL     1       9.051  -4.967  25.374  0.00  0.00    +0.061 A 
ATOM      3  C   UNL     1       8.122  -4.902  26.514  0.00  0.00    +0.123 A 
ATOM      4  N   UNL     1       7.888  -6.019  27.270  0.00  0.00    -0.343 N 
ATOM      5  H   UNL     1       7.851  -6.898  26.777  0.00  0.00    +0.144 HD
ATOM      6  H   UNL     1       7.112  -5.869  27.904  0.00  0.00    +0.144 HD
ATOM      7  N   UNL     1       7.492  -3.829  26.873  0.00  0.00    -0.178 NA
ATOM      8  C   UNL     1       7.730  -2.645  26.210  0.00  0.00    +0.350 A 
ATOM      9  O   UNL     1       7.140  -1.625  26.566  0.00  0.00    -0.244 OA
ATOM     10  N   UNL     1       8.669  -2.645  25.174  0.00  0.00    -0.296 N 
ATOM     11  C   UNL     1       9.308  -3.799  24.779  0.00  0.00    +0.094 A 
ENDBRANCH   1  10
BRANCH   1  12
ATOM     12  C   UNL     1      10.048  -1.349  23.411  0.00  0.00    +0.164 C 
BRANCH  12  13
ATOM     13  O   UNL     1      10.850  -0.157  23.322  0.00  0.00    -0.365 OA
BRANCH  13  14
ATOM     14  C   UNL     1      10.447   0.824  24.309  0.00  0.00    +0.229 C 
BRANCH  14  15
ATOM     15  P   UNL     1       9.900   2.508  23.652  0.00  0.00    +0.134 P 
ATOM     16  O   UNL     1      11.192   3.290  23.432  0.00  0.00    -0.356 OA
ATOM     17  O   UNL     1       8.986   3.033  24.760  0.00  0.00    -0.356 OA
ATOM     18  O   UNL     1       9.171   2.099  22.373  0.00  0.00    -0.458 OA
ENDBRANCH  14  15
ENDBRANCH  13  14
ENDBRANCH  12  13
BRANCH  12  19
ATOM     19  C   UNL     1       9.195  -1.463  22.130  0.00  0.00    +0.189 C 
BRANCH  19  20
ATOM     20  O   UNL     1       9.608  -0.555  21.104  0.00  0.00    -0.392 OA
ATOM     21  H   UNL     1       8.971   0.177  21.113  0.00  0.00    +0.210 HD
ENDBRANCH  19  20
ENDBRANCH  12  19
ENDBRANCH   1  12
TORSDOF 7
ENDMDL
MODEL 5
REMARK VINA RESULT:      -5.6      1.590      1.753
REMARK  Name = 
REMARK  7 active torsions:
REMARK  status: ('A' for Active; 'I' for Inactive)
REMARK    1  A    between atoms: N_3  and  C_9
REMARK    2  A    between atoms: C_9  and  C_10
REMARK    3  A    between atoms: C_10  and  C_12
REMARK    4  A    between atoms: C_10  and  O_14
REMARK    5  A    between atoms: C_12  and  O_13
REMARK    6  A    between atoms: O_14  and  C_15
REMARK    7  A    between atoms: C_15  and  P_16
REMARK                            x       y       z     vdW  Elec       q    Type
REMARK                         _______ _______ _______ _____ _____    ______ ____
ROOT
ATOM      1  C   UNL     1       8.349  -2.050  25.142  0.00  0.00    +0.160 C 
ENDROOT
BRANCH   1  10
ATOM      2  C   UNL     1      10.487   0.554  23.654  0.00  0.00    +0.061 A 
ATOM      3  C   UNL     1       9.555   0.965  22.591  0.00  0.00    +0.123 A 
ATOM      4  N   UNL     1       9.972   1.824  21.610  0.00  0.00    -0.343 N 
ATOM      5  H   UNL     1      10.602   2.559  21.892  0.00  0.00    +0.144 HD
ATOM      6  H   UNL     1       9.188   2.144  21.054  0.00  0.00    +0.144 HD
ATOM      7  N   UNL     1       8.329   0.555  22.506  0.00  0.00    -0.178 NA
ATOM      8  C   UNL     1       7.856  -0.369  23.411  0.00  0.00    +0.350 A 
ATOM      9  O   UNL     1       6.694  -0.766  23.315  0.00  0.00    -0.244 OA
ATOM     10  N   UNL     1       8.734  -0.849  24.387  0.00  0.00    -0.296 N 
ATOM     11  C   UNL     1      10.025  -0.381  24.488  0.00  0.00    +0.094 A 
ENDBRANCH   1  10
BRANCH   1  12
ATOM     12  C   UNL     1       8.672  -3.431  24.521  0.00  0.00    +0.164 C 
BRANCH  12  13
ATOM     13  O   UNL     1       7.476  -4.147  24.162  0.00  0.00    -0.365 OA
BRANCH  13  14
ATOM     14  C   UNL     1       7.394  -4.353  22.730  0.00  0.00    +0.229 C 
BRANCH  14  15
ATOM     15  P   UNL     1       5.788  -5.102  22.076  0.00  0.00    +0.134 P 
ATOM     16  O   UNL     1       6.064  -5.423  20.611  0.00  0.00    -0.356 OA
ATOM     17  O   UNL     1       4.761  -3.998  22.334  0.00  0.00    -0.356 OA
ATOM     18  O   UNL     1       5.644  -6.322  22.985  0.00  0.00    -0.458 OA
ENDBRANCH  14  15
ENDBRANCH  13  14
ENDBRANCH  12  13
BRANCH  12  19
ATOM     19  C   UNL     1       9.496  -4.307  25.489  0.00  0.00    +0.189 C 
BRANCH  19  20
ATOM     20  O   UNL     1      10.215  -5.349  24.820  0.00  0.00    -0.392 OA
ATOM     21  H   UNL     1      10.948  -4.918  24.350  0.00  0.00    +0.210 HD
ENDBRANCH  19  20
ENDBRANCH  12  19
ENDBRANCH   1  12
TORSDOF 7
ENDMDL
MODEL 6
REMARK VINA RESULT:      -5.6      2.002      3.023
REMARK  Name = 
REMARK  7 active torsions:
REMARK  status: ('A' for Active; 'I' for Inactive)
REMARK    1  A    between atoms: N_3  and  C_9
REMARK    2  A    between atoms: C_9  and  C_10
REMARK    3  A    between atoms: C_10  and  C_12
REMARK    4  A    between atoms: C_10  and  O_14
REMARK    5  A    between atoms: C_12  and  O_13
REMARK    6  A    between atoms: O_14  and  C_15
REMARK    7  A    between atoms: C_15  and  P_16
REMARK                            x       y       z     vdW  Elec       q    Type
REMARK                         _______ _______ _______ _____ _____    ______ ____
ROOT
ATOM      1  C   UNL     1      10.139  -1.738  22.948  0.00  0.00    +0.160 C 
ENDROOT
BRANCH   1  10
ATOM      2  C   UNL     1       9.199   1.535  21.545  0.00  0.00    +0.061 A 
ATOM      3  C   UNL     1       9.343   2.311  22.789  0.00  0.00    +0.123 A 
ATOM      4  N   UNL     1       8.917   3.610  22.837  0.00  0.00    -0.343 N 
ATOM      5  H   UNL     1       9.059   4.163  22.005  0.00  0.00    +0.144 HD
ATOM      6  H   UNL     1       9.230   4.060  23.689  0.00  0.00    +0.144 HD
ATOM      7  N   UNL     1       9.854   1.837  23.881  0.00  0.00    -0.178 NA
ATOM      8  C   UNL     1      10.237   0.515  23.936  0.00  0.00    +0.350 A 
ATOM      9  O   UNL     1      10.707   0.067  24.983  0.00  0.00    -0.244 OA
ATOM     10  N   UNL     1      10.039  -0.279  22.803  0.00  0.00    -0.296 N 
ATOM     11  C   UNL     1       9.527   0.244  21.637  0.00  0.00    +0.094 A 
ENDBRANCH   1  10
BRANCH   1  12
ATOM     12  C   UNL     1       8.939  -2.488  23.575  0.00  0.00    +0.164 C 
BRANCH  12  13
ATOM     13  O   UNL     1       9.334  -3.756  24.131  0.00  0.00    -0.365 OA
BRANCH  13  14
ATOM     14  C   UNL     1       9.128  -3.791  25.565  0.00  0.00    +0.229 C 
BRANCH  14  15
ATOM     15  P   UNL     1       7.465  -4.459  26.162  0.00  0.00    +0.134 P 
ATOM     16  O   UNL     1       7.788  -5.287  27.401  0.00  0.00    -0.356 OA
ATOM     17  O   UNL     1       6.951  -5.242  24.952  0.00  0.00    -0.356 OA
ATOM     18  O   UNL     1       6.711  -3.158  26.438  0.00  0.00    -0.458 OA
ENDBRANCH  14  15
ENDBRANCH  13  14
ENDBRANCH  12  13
BRANCH  12  19
ATOM     19  C   UNL     1       7.822  -2.734  22.539  0.00  0.00    +0.189 C 
BRANCH  19  20
ATOM     20  O   UNL     1       7.544  -4.124  22.341  0.00  0.00    -0.392 OA
ATOM     21  H   UNL     1       6.791  -4.338  22.914  0.00  0.00    +0.210 HD
ENDBRANCH  19  20
ENDBRANCH  12  19
ENDBRANCH   1  12
TORSDOF 7
ENDMDL
MODEL 7
REMARK VINA RESULT:      -5.6      2.312      3.516
REMARK  Name = 
REMARK  7 active torsions:
REMARK  status: ('A' for Active; 'I' for Inactive)
REMARK    1  A    between atoms: N_3  and  C_9
REMARK    2  A    between atoms: C_9  and  C_10
REMARK    3  A    between atoms: C_10  and  C_12
REMARK    4  A    between atoms: C_10  and  O_14
REMARK    5  A    between atoms: C_12  and  O_13
REMARK    6  A    between atoms: O_14  and  C_15
REMARK    7  A    between atoms: C_15  and  P_16
REMARK                            x       y       z     vdW  Elec       q    Type
REMARK                         _______ _______ _______ _____ _____    ______ ____
ROOT
ATOM      1  C   UNL     1       7.970  -2.426  23.720  0.00  0.00    +0.160 C 
ENDROOT
BRANCH   1  10
ATOM      2  C   UNL     1       7.883   1.007  22.389  0.00  0.00    +0.061 A 
ATOM      3  C   UNL     1       9.293   1.073  21.971  0.00  0.00    +0.123 A 
ATOM      4  N   UNL     1       9.829   2.263  21.558  0.00  0.00    -0.343 N 
ATOM      5  H   UNL     1       9.226   2.867  21.021  0.00  0.00    +0.144 HD
ATOM      6  H   UNL     1      10.744   2.123  21.148  0.00  0.00    +0.144 HD
ATOM      7  N   UNL     1      10.095   0.056  21.971  0.00  0.00    -0.178 NA
ATOM      8  C   UNL     1       9.653  -1.160  22.443  0.00  0.00    +0.350 A 
ATOM      9  O   UNL     1      10.426  -2.119  22.455  0.00  0.00    -0.244 OA
ATOM     10  N   UNL     1       8.345  -1.246  22.928  0.00  0.00    -0.296 N 
ATOM     11  C   UNL     1       7.490  -0.166  22.892  0.00  0.00    +0.094 A 
ENDBRANCH   1  10
BRANCH   1  12
ATOM     12  C   UNL     1       6.719  -3.226  23.281  0.00  0.00    +0.164 C 
BRANCH  12  13
ATOM     13  O   UNL     1       6.244  -4.090  24.330  0.00  0.00    -0.365 OA
BRANCH  13  14
ATOM     14  C   UNL     1       7.310  -4.924  24.849  0.00  0.00    +0.229 C 
BRANCH  14  15
ATOM     15  P   UNL     1       7.665  -4.786  26.699  0.00  0.00    +0.134 P 
ATOM     16  O   UNL     1       7.260  -6.134  27.285  0.00  0.00    -0.356 OA
ATOM     17  O   UNL     1       6.813  -3.590  27.127  0.00  0.00    -0.356 OA
ATOM     18  O   UNL     1       9.170  -4.517  26.687  0.00  0.00    -0.458 OA
ENDBRANCH  14  15
ENDBRANCH  13  14
ENDBRANCH  12  13
BRANCH  12  19
ATOM     19  C   UNL     1       7.007  -4.085  22.031  0.00  0.00    +0.189 C 
BRANCH  19  20
ATOM     20  O   UNL     1       5.820  -4.436  21.313  0.00  0.00    -0.392 OA
ATOM     21  H   UNL     1       6.109  -4.933  20.531  0.00  0.00    +0.210 HD
ENDBRANCH  19  20
ENDBRANCH  12  19
ENDBRANCH   1  12
TORSDOF 7
ENDMDL
MODEL 8
REMARK VINA RESULT:      -5.5      2.323      2.797
REMARK  Name = 
REMARK  7 active torsions:
REMARK  status: ('A' for Active; 'I' for Inactive)
REMARK    1  A    between atoms: N_3  and  C_9
REMARK    2  A    between atoms: C_9  and  C_10
REMARK    3  A    between atoms: C_10  and  C_12
REMARK    4  A    between atoms: C_10  and  O_14
REMARK    5  A    between atoms: C_12  and  O_13
REMARK    6  A    between atoms: O_14  and  C_15
REMARK    7  A    between atoms: C_15  and  P_16
REMARK                            x       y       z     vdW  Elec       q    Type
REMARK                         _______ _______ _______ _____ _____    ______ ____
ROOT
ATOM      1  C   UNL     1       8.340  -2.685  25.237  0.00  0.00    +0.160 C 
ENDROOT
BRANCH   1  10
ATOM      2  C   UNL     1       7.550  -0.020  22.820  0.00  0.00    +0.061 A 
ATOM      3  C   UNL     1       8.851  -0.012  22.131  0.00  0.00    +0.123 A 
ATOM      4  N   UNL     1       9.138   0.971  21.224  0.00  0.00    -0.343 N 
ATOM      5  H   UNL     1       8.377   1.283  20.640  0.00  0.00    +0.144 HD
ATOM      6  H   UNL     1       9.986   0.756  20.714  0.00  0.00    +0.144 HD
ATOM      7  N   UNL     1       9.780  -0.892  22.330  0.00  0.00    -0.178 NA
ATOM      8  C   UNL     1       9.598  -1.871  23.283  0.00  0.00    +0.350 A 
ATOM      9  O   UNL     1      10.492  -2.694  23.479  0.00  0.00    -0.244 OA
ATOM     10  N   UNL     1       8.410  -1.864  24.020  0.00  0.00    -0.296 N 
ATOM     11  C   UNL     1       7.415  -0.944  23.775  0.00  0.00    +0.094 A 
ENDBRANCH   1  10
BRANCH   1  12
ATOM     12  C   UNL     1       8.003  -4.188  25.080  0.00  0.00    +0.164 C 
BRANCH  12  13
ATOM     13  O   UNL     1       6.719  -4.508  25.648  0.00  0.00    -0.365 OA
BRANCH  13  14
ATOM     14  C   UNL     1       5.954  -5.368  24.769  0.00  0.00    +0.229 C 
BRANCH  14  15
ATOM     15  P   UNL     1       4.633  -6.446  25.583  0.00  0.00    +0.134 P 
ATOM     16  O   UNL     1       3.447  -5.515  25.818  0.00  0.00    -0.356 OA
ATOM     17  O   UNL     1       5.334  -6.962  26.841  0.00  0.00    -0.356 OA
ATOM     18  O   UNL     1       4.414  -7.504  24.502  0.00  0.00    -0.458 OA
ENDBRANCH  14  15
ENDBRANCH  13  14
ENDBRANCH  12  13
BRANCH  12  19
ATOM     19  C   UNL     1       9.071  -5.079  25.748  0.00  0.00    +0.189 C 
BRANCH  19  20
ATOM     20  O   UNL     1      10.239  -5.250  24.938  0.00  0.00    -0.392 OA
ATOM     21  H   UNL     1      10.987  -4.925  25.464  0.00  0.00    +0.210 HD
ENDBRANCH  19  20
ENDBRANCH  12  19
ENDBRANCH   1  12
TORSDOF 7
ENDMDL
MODEL 9
REMARK VINA RESULT:      -5.4      2.462      2.987
REMARK  Name = 
REMARK  7 active torsions:
REMARK  status: ('A' for Active; 'I' for Inactive)
REMARK    1  A    between atoms: N_3  and  C_9
REMARK    2  A    between atoms: C_9  and  C_10
REMARK    3  A    between atoms: C_10  and  C_12
REMARK    4  A    between atoms: C_10  and  O_14
REMARK    5  A    between atoms: C_12  and  O_13
REMARK    6  A    between atoms: O_14  and  C_15
REMARK    7  A    between atoms: C_15  and  P_16
REMARK                            x       y       z     vdW  Elec       q    Type
REMARK                         _______ _______ _______ _____ _____    ______ ____
ROOT
ATOM      1  C   UNL     1       8.588  -2.901  25.167  0.00  0.00    +0.160 C 
ENDROOT
BRANCH   1  10
ATOM      2  C   UNL     1      10.222  -1.161  22.362  0.00  0.00    +0.061 A 
ATOM      3  C   UNL     1       9.514   0.122  22.511  0.00  0.00    +0.123 A 
ATOM      4  N   UNL     1       9.644   1.090  21.553  0.00  0.00    -0.343 N 
ATOM      5  H   UNL     1      10.554   1.185  21.128  0.00  0.00    +0.144 HD
ATOM      6  H   UNL     1       9.243   1.965  21.867  0.00  0.00    +0.144 HD
ATOM      7  N   UNL     1       8.744   0.411  23.512  0.00  0.00    -0.178 NA
ATOM      8  C   UNL     1       8.501  -0.538  24.480  0.00  0.00    +0.350 A 
ATOM      9  O   UNL     1       7.755  -0.262  25.421  0.00  0.00    -0.244 OA
ATOM     10  N   UNL     1       9.087  -1.799  24.334  0.00  0.00    -0.296 N 
ATOM     11  C   UNL     1       9.931  -2.084  23.283  0.00  0.00    +0.094 A 
ENDBRANCH   1  10
BRANCH   1  12
ATOM     12  C   UNL     1       8.670  -4.338  24.596  0.00  0.00    +0.164 C 
BRANCH  12  13
ATOM     13  O   UNL     1       7.387  -4.991  24.610  0.00  0.00    -0.365 OA
BRANCH  13  14
ATOM     14  C   UNL     1       6.462  -4.317  25.498  0.00  0.00    +0.229 C 
BRANCH  14  15
ATOM     15  P   UNL     1       5.916  -5.274  27.032  0.00  0.00    +0.134 P 
ATOM     16  O   UNL     1       4.685  -4.534  27.546  0.00  0.00    -0.356 OA
ATOM     17  O   UNL     1       7.151  -5.219  27.933  0.00  0.00    -0.356 OA
ATOM     18  O   UNL     1       5.632  -6.650  26.431  0.00  0.00    -0.458 OA
ENDBRANCH  14  15
ENDBRANCH  13  14
ENDBRANCH  12  13
BRANCH  12  19
ATOM     19  C   UNL     1       9.671  -5.205  25.389  0.00  0.00    +0.189 C 
BRANCH  19  20
ATOM     20  O   UNL     1       9.708  -4.877  26.782  0.00  0.00    -0.392 OA
ATOM     21  H   UNL     1       9.331  -3.986  26.864  0.00  0.00    +0.210 HD
ENDBRANCH  19  20
ENDBRANCH  12  19
ENDBRANCH   1  12
TORSDOF 7
ENDMDL
