MODEL 1
REMARK VINA RESULT:      -6.4      0.000      0.000
REMARK  Name = 
REMARK  5 active torsions:
REMARK  status: ('A' for Active; 'I' for Inactive)
REMARK    1  A    between atoms: C_1  and  C_5
REMARK    2  A    between atoms: N_7  and  C_13
REMARK    3  A    between atoms: C_17  and  O_24
REMARK    4  A    between atoms: C_19  and  C_22
REMARK    5  A    between atoms: C_22  and  O_23
REMARK                            x       y       z     vdW  Elec       q    Type
REMARK                         _______ _______ _______ _____ _____    ______ ____
ROOT
ATOM      1  C   UNL     1       8.994  -2.639  24.119  0.00  0.00    +0.260 C 
ATOM      2  O   UNL     1       8.592  -1.274  24.355  0.00  0.00    -0.345 OA
ATOM      3  C   UNL     1       8.454  -0.614  23.075  0.00  0.00    +0.178 C 
ATOM      4  C   UNL     1       8.741  -1.651  21.985  0.00  0.00    +0.184 C 
ATOM      5  C   UNL     1       8.551  -2.973  22.694  0.00  0.00    +0.246 C 
ATOM      6  F   UNL     1       7.233  -3.311  22.675  0.00  0.00    -0.238 F 
ENDROOT
BRANCH   1  15
ATOM      7  C   UNL     1       5.553  -3.747  27.563  0.00  0.00    +0.051 C 
ATOM      8  C   UNL     1       6.809  -4.025  26.806  0.00  0.00    +0.030 A 
ATOM      9  C   UNL     1       7.568  -5.248  27.156  0.00  0.00    +0.257 A 
ATOM     10  O   UNL     1       7.189  -6.020  28.029  0.00  0.00    -0.267 OA
ATOM     11  N   UNL     1       8.719  -5.454  26.454  0.00  0.00    -0.275 N 
ATOM     12  H   UNL     1       9.256  -6.273  26.691  0.00  0.00    +0.173 HD
ATOM     13  C   UNL     1       9.225  -4.644  25.475  0.00  0.00    +0.331 A 
ATOM     14  O   UNL     1      10.297  -4.915  24.935  0.00  0.00    -0.246 OA
ATOM     15  N   UNL     1       8.463  -3.529  25.156  0.00  0.00    -0.271 N 
ATOM     16  C   UNL     1       7.296  -3.238  25.839  0.00  0.00    +0.102 A 
ENDBRANCH   1  15
BRANCH   4  17
ATOM     17  O   UNL     1      10.107  -1.521  21.561  0.00  0.00    -0.386 OA
ATOM     18  H   UNL     1      10.116  -1.503  20.586  0.00  0.00    +0.210 HD
ENDBRANCH   4  17
BRANCH   3  19
ATOM     19  C   UNL     1       7.053   0.002  22.997  0.00  0.00    +0.190 C 
BRANCH  19  20
ATOM     20  O   UNL     1       6.108  -0.687  23.806  0.00  0.00    -0.392 OA
ATOM     21  H   UNL     1       5.494  -1.153  23.208  0.00  0.00    +0.210 HD
ENDBRANCH  19  20
ENDBRANCH   3  19
TORSDOF 4
ENDMDL
MODEL 2
REMARK VINA RESULT:      -6.0      2.909      3.213
REMARK  Name = 
REMARK  5 active torsions:
REMARK  status: ('A' for Active; 'I' for Inactive)
REMARK    1  A    between atoms: C_1  and  C_5
REMARK    2  A    between atoms: N_7  and  C_13
REMARK    3  A    between atoms: C_17  and  O_24
REMARK    4  A    between atoms: C_19  and  C_22
REMARK    5  A    between atoms: C_22  and  O_23
REMARK                            x       y       z     vdW  Elec       q    Type
REMARK                         _______ _______ _______ _____ _____    ______ ____
ROOT
ATOM      1  C   UNL     1       7.948  -3.961  22.972  0.00  0.00    +0.260 C 
ATOM      2  O   UNL     1       8.821  -3.647  24.078  0.00  0.00    -0.345 OA
ATOM      3  C   UNL     1       9.313  -2.298  23.898  0.00  0.00    +0.178 C 
ATOM      4  C   UNL     1       8.663  -1.733  22.631  0.00  0.00    +0.184 C 
ATOM      5  C   UNL     1       7.457  -2.621  22.424  0.00  0.00    +0.246 C 
ATOM      6  F   UNL     1       6.418  -2.156  23.170  0.00  0.00    -0.238 F 
ENDROOT
BRANCH   1  15
ATOM      7  C   UNL     1       5.151  -6.061  26.536  0.00  0.00    +0.051 C 
ATOM      8  C   UNL     1       5.576  -5.882  25.116  0.00  0.00    +0.030 A 
ATOM      9  C   UNL     1       4.908  -6.713  24.088  0.00  0.00    +0.257 A 
ATOM     10  O   UNL     1       4.031  -7.521  24.375  0.00  0.00    -0.267 OA
ATOM     11  N   UNL     1       5.339  -6.532  22.807  0.00  0.00    -0.275 N 
ATOM     12  H   UNL     1       4.906  -7.102  22.096  0.00  0.00    +0.173 HD
ATOM     13  C   UNL     1       6.316  -5.668  22.397  0.00  0.00    +0.331 A 
ATOM     14  O   UNL     1       6.646  -5.619  21.212  0.00  0.00    -0.246 OA
ATOM     15  N   UNL     1       6.888  -4.884  23.389  0.00  0.00    -0.271 N 
ATOM     16  C   UNL     1       6.523  -5.026  24.715  0.00  0.00    +0.102 A 
ENDBRANCH   1  15
BRANCH   4  17
ATOM     17  O   UNL     1       9.571  -1.884  21.529  0.00  0.00    -0.386 OA
ATOM     18  H   UNL     1       9.045  -2.093  20.736  0.00  0.00    +0.210 HD
ENDBRANCH   4  17
BRANCH   3  19
ATOM     19  C   UNL     1       9.005  -1.498  25.168  0.00  0.00    +0.190 C 
BRANCH  19  20
ATOM     20  O   UNL     1       8.301  -2.264  26.138  0.00  0.00    -0.392 OA
ATOM     21  H   UNL     1       7.551  -2.693  25.686  0.00  0.00    +0.210 HD
ENDBRANCH  19  20
ENDBRANCH   3  19
TORSDOF 4
ENDMDL
MODEL 3
REMARK VINA RESULT:      -5.9      2.361      5.271
REMARK  Name = 
REMARK  5 active torsions:
REMARK  status: ('A' for Active; 'I' for Inactive)
REMARK    1  A    between atoms: C_1  and  C_5
REMARK    2  A    between atoms: N_7  and  C_13
REMARK    3  A    between atoms: C_17  and  O_24
REMARK    4  A    between atoms: C_19  and  C_22
REMARK    5  A    between atoms: C_22  and  O_23
REMARK                            x       y       z     vdW  Elec       q    Type
REMARK                         _______ _______ _______ _____ _____    ______ ____
ROOT
ATOM      1  C   UNL     1       8.953  -3.085  25.276  0.00  0.00    +0.260 C 
ATOM      2  O   UNL     1       9.199  -3.957  24.152  0.00  0.00    -0.345 OA
ATOM      3  C   UNL     1       8.377  -5.138  24.306  0.00  0.00    +0.178 C 
ATOM      4  C   UNL     1       7.540  -4.958  25.575  0.00  0.00    +0.184 C 
ATOM      5  C   UNL     1       7.573  -3.465  25.814  0.00  0.00    +0.246 C 
ATOM      6  F   UNL     1       6.597  -2.867  25.080  0.00  0.00    -0.238 F 
ENDROOT
BRANCH   1  15
ATOM      7  C   UNL     1       9.676   0.426  21.799  0.00  0.00    +0.051 C 
ATOM      8  C   UNL     1       9.462  -0.024  23.207  0.00  0.00    +0.030 A 
ATOM      9  C   UNL     1       9.434   1.014  24.263  0.00  0.00    +0.257 A 
ATOM     10  O   UNL     1       9.574   2.205  24.008  0.00  0.00    -0.267 OA
ATOM     11  N   UNL     1       9.255   0.560  25.537  0.00  0.00    -0.275 N 
ATOM     12  H   UNL     1       9.250   1.251  26.271  0.00  0.00    +0.173 HD
ATOM     13  C   UNL     1       9.103  -0.745  25.916  0.00  0.00    +0.331 A 
ATOM     14  O   UNL     1       8.985  -1.038  27.105  0.00  0.00    -0.246 OA
ATOM     15  N   UNL     1       9.100  -1.679  24.889  0.00  0.00    -0.271 N 
ATOM     16  C   UNL     1       9.300  -1.300  23.575  0.00  0.00    +0.102 A 
ENDBRANCH   1  15
BRANCH   4  17
ATOM     17  O   UNL     1       8.184  -5.638  26.664  0.00  0.00    -0.386 OA
ATOM     18  H   UNL     1       8.741  -4.989  27.133  0.00  0.00    +0.210 HD
ENDBRANCH   4  17
BRANCH   3  19
ATOM     19  C   UNL     1       7.547  -5.319  23.031  0.00  0.00    +0.190 C 
BRANCH  19  20
ATOM     20  O   UNL     1       7.453  -4.123  22.267  0.00  0.00    -0.392 OA
ATOM     21  H   UNL     1       6.781  -4.268  21.575  0.00  0.00    +0.210 HD
ENDBRANCH  19  20
ENDBRANCH   3  19
TORSDOF 4
ENDMDL
MODEL 4
REMARK VINA RESULT:      -5.8      2.513      3.439
REMARK  Name = 
REMARK  5 active torsions:
REMARK  status: ('A' for Active; 'I' for Inactive)
REMARK    1  A    between atoms: C_1  and  C_5
REMARK    2  A    between atoms: N_7  and  C_13
REMARK    3  A    between atoms: C_17  and  O_24
REMARK    4  A    between atoms: C_19  and  C_22
REMARK    5  A    between atoms: C_22  and  O_23
REMARK                            x       y       z     vdW  Elec       q    Type
REMARK                         _______ _______ _______ _____ _____    ______ ____
ROOT
ATOM      1  C   UNL     1       8.607  -1.318  24.357  0.00  0.00    +0.260 C 
ATOM      2  O   UNL     1       8.105  -0.242  23.538  0.00  0.00    -0.345 OA
ATOM      3  C   UNL     1       9.195   0.672  23.271  0.00  0.00    +0.178 C 
ATOM      4  C   UNL     1      10.454   0.095  23.925  0.00  0.00    +0.184 C 
ATOM      5  C   UNL     1      10.117  -1.367  24.117  0.00  0.00    +0.246 C 
ATOM      6  F   UNL     1      10.393  -2.050  22.973  0.00  0.00    -0.238 F 
ENDROOT
BRANCH   1  15
ATOM      7  C   UNL     1       6.033  -4.257  21.247  0.00  0.00    +0.051 C 
ATOM      8  C   UNL     1       6.655  -3.945  22.568  0.00  0.00    +0.030 A 
ATOM      9  C   UNL     1       6.507  -4.945  23.651  0.00  0.00    +0.257 A 
ATOM     10  O   UNL     1       5.903  -5.999  23.484  0.00  0.00    -0.267 OA
ATOM     11  N   UNL     1       7.073  -4.613  24.847  0.00  0.00    -0.275 N 
ATOM     12  H   UNL     1       6.967  -5.275  25.600  0.00  0.00    +0.173 HD
ATOM     13  C   UNL     1       7.751  -3.459  25.128  0.00  0.00    +0.331 A 
ATOM     14  O   UNL     1       8.187  -3.254  26.260  0.00  0.00    -0.246 OA
ATOM     15  N   UNL     1       7.896  -2.568  24.073  0.00  0.00    -0.271 N 
ATOM     16  C   UNL     1       7.330  -2.821  22.838  0.00  0.00    +0.102 A 
ENDBRANCH   1  15
BRANCH   4  17
ATOM     17  O   UNL     1      10.648   0.720  25.203  0.00  0.00    -0.386 OA
ATOM     18  H   UNL     1      10.135   1.549  25.211  0.00  0.00    +0.210 HD
ENDBRANCH   4  17
BRANCH   3  19
ATOM     19  C   UNL     1       9.309   0.858  21.755  0.00  0.00    +0.190 C 
BRANCH  19  20
ATOM     20  O   UNL     1       9.881   2.110  21.399  0.00  0.00    -0.392 OA
ATOM     21  H   UNL     1      10.770   1.936  21.038  0.00  0.00    +0.210 HD
ENDBRANCH  19  20
ENDBRANCH   3  19
TORSDOF 4
ENDMDL
MODEL 5
REMARK VINA RESULT:      -5.7      2.395      3.457
REMARK  Name = 
REMARK  5 active torsions:
REMARK  status: ('A' for Active; 'I' for Inactive)
REMARK    1  A    between atoms: C_1  and  C_5
REMARK    2  A    between atoms: N_7  and  C_13
REMARK    3  A    between atoms: C_17  and  O_24
REMARK    4  A    between atoms: C_19  and  C_22
REMARK    5  A    between atoms: C_22  and  O_23
REMARK                            x       y       z     vdW  Elec       q    Type
REMARK                         _______ _______ _______ _____ _____    ______ ____
ROOT
ATOM      1  C   UNL     1       8.206  -1.660  24.359  0.00  0.00    +0.260 C 
ATOM      2  O   UNL     1       8.041  -0.745  23.255  0.00  0.00    -0.345 OA
ATOM      3  C   UNL     1       9.224   0.084  23.173  0.00  0.00    +0.178 C 
ATOM      4  C   UNL     1      10.195  -0.384  24.260  0.00  0.00    +0.184 C 
ATOM      5  C   UNL     1       9.713  -1.779  24.591  0.00  0.00    +0.246 C 
ATOM      6  F   UNL     1      10.259  -2.667  23.715  0.00  0.00    -0.238 F 
ENDROOT
BRANCH   1  15
ATOM      7  C   UNL     1       6.358  -5.033  21.175  0.00  0.00    +0.051 C 
ATOM      8  C   UNL     1       6.633  -4.517  22.548  0.00  0.00    +0.030 A 
ATOM      9  C   UNL     1       6.149  -5.319  23.695  0.00  0.00    +0.257 A 
ATOM     10  O   UNL     1       5.548  -6.377  23.541  0.00  0.00    -0.267 OA
ATOM     11  N   UNL     1       6.404  -4.803  24.931  0.00  0.00    -0.275 N 
ATOM     12  H   UNL     1       6.068  -5.328  25.723  0.00  0.00    +0.173 HD
ATOM     13  C   UNL     1       7.054  -3.629  25.199  0.00  0.00    +0.331 A 
ATOM     14  O   UNL     1       7.193  -3.246  26.359  0.00  0.00    -0.246 OA
ATOM     15  N   UNL     1       7.520  -2.928  24.095  0.00  0.00    -0.271 N 
ATOM     16  C   UNL     1       7.280  -3.375  22.809  0.00  0.00    +0.102 A 
ENDBRANCH   1  15
BRANCH   4  17
ATOM     17  O   UNL     1      10.056   0.463  25.411  0.00  0.00    -0.386 OA
ATOM     18  H   UNL     1      10.166  -0.093  26.205  0.00  0.00    +0.210 HD
ENDBRANCH   4  17
BRANCH   3  19
ATOM     19  C   UNL     1       9.785  -0.016  21.750  0.00  0.00    +0.190 C 
BRANCH  19  20
ATOM     20  O   UNL     1       9.393  -1.213  21.091  0.00  0.00    -0.392 OA
ATOM     21  H   UNL     1      10.021  -1.367  20.361  0.00  0.00    +0.210 HD
ENDBRANCH  19  20
ENDBRANCH   3  19
TORSDOF 4
ENDMDL
MODEL 6
REMARK VINA RESULT:      -5.7      2.280      3.158
REMARK  Name = 
REMARK  5 active torsions:
REMARK  status: ('A' for Active; 'I' for Inactive)
REMARK    1  A    between atoms: C_1  and  C_5
REMARK    2  A    between atoms: N_7  and  C_13
REMARK    3  A    between atoms: C_17  and  O_24
REMARK    4  A    between atoms: C_19  and  C_22
REMARK    5  A    between atoms: C_22  and  O_23
REMARK                            x       y       z     vdW  Elec       q    Type
REMARK                         _______ _______ _______ _____ _____    ______ ____
ROOT
ATOM      1  C   UNL     1       8.795  -1.358  22.722  0.00  0.00    +0.260 C 
ATOM      2  O   UNL     1      10.117  -1.004  23.182  0.00  0.00    -0.345 OA
ATOM      3  C   UNL     1      10.291   0.422  23.011  0.00  0.00    +0.178 C 
ATOM      4  C   UNL     1       8.978   0.986  22.458  0.00  0.00    +0.184 C 
ATOM      5  C   UNL     1       7.961  -0.079  22.804  0.00  0.00    +0.246 C 
ATOM      6  F   UNL     1       7.515   0.116  24.074  0.00  0.00    -0.238 F 
ENDROOT
BRANCH   1  15
ATOM      7  C   UNL     1       9.005  -4.479  26.614  0.00  0.00    +0.051 C 
ATOM      8  C   UNL     1       8.397  -3.979  25.345  0.00  0.00    +0.030 A 
ATOM      9  C   UNL     1       7.215  -4.699  24.819  0.00  0.00    +0.257 A 
ATOM     10  O   UNL     1       6.736  -5.670  25.394  0.00  0.00    -0.267 OA
ATOM     11  N   UNL     1       6.702  -4.223  23.648  0.00  0.00    -0.275 N 
ATOM     12  H   UNL     1       5.907  -4.711  23.267  0.00  0.00    +0.173 HD
ATOM     13  C   UNL     1       7.176  -3.158  22.932  0.00  0.00    +0.331 A 
ATOM     14  O   UNL     1       6.650  -2.843  21.865  0.00  0.00    -0.246 OA
ATOM     15  N   UNL     1       8.263  -2.492  23.482  0.00  0.00    -0.271 N 
ATOM     16  C   UNL     1       8.854  -2.929  24.652  0.00  0.00    +0.102 A 
ENDBRANCH   1  15
BRANCH   4  17
ATOM     17  O   UNL     1       9.084   1.111  21.032  0.00  0.00    -0.386 OA
ATOM     18  H   UNL     1       9.229   2.053  20.825  0.00  0.00    +0.210 HD
ENDBRANCH   4  17
BRANCH   3  19
ATOM     19  C   UNL     1      10.710   1.022  24.356  0.00  0.00    +0.190 C 
BRANCH  19  20
ATOM     20  O   UNL     1      10.283   0.237  25.462  0.00  0.00    -0.392 OA
ATOM     21  H   UNL     1      11.064   0.066  26.021  0.00  0.00    +0.210 HD
ENDBRANCH  19  20
ENDBRANCH   3  19
TORSDOF 4
ENDMDL
MODEL 7
REMARK VINA RESULT:      -5.7      2.595      3.252
REMARK  Name = 
REMARK  5 active torsions:
REMARK  status: ('A' for Active; 'I' for Inactive)
REMARK    1  A    between atoms: C_1  and  C_5
REMARK    2  A    between atoms: N_7  and  C_13
REMARK    3  A    between atoms: C_17  and  O_24
REMARK    4  A    between atoms: C_19  and  C_22
REMARK    5  A    between atoms: C_22  and  O_23
REMARK                            x       y       z     vdW  Elec       q    Type
REMARK                         _______ _______ _______ _____ _____    ______ ____
ROOT
ATOM      1  C   UNL     1       9.709   0.141  23.507  0.00  0.00    +0.260 C 
ATOM      2  O   UNL     1       9.857   1.155  24.524  0.00  0.00    -0.345 OA
ATOM      3  C   UNL     1       9.589   2.444  23.922  0.00  0.00    +0.178 C 
ATOM      4  C   UNL     1       9.205   2.201  22.459  0.00  0.00    +0.184 C 
ATOM      5  C   UNL     1       8.800   0.744  22.435  0.00  0.00    +0.246 C 
ATOM      6  F   UNL     1       7.495   0.630  22.801  0.00  0.00    -0.238 F 
ENDROOT
BRANCH   1  15
ATOM      7  C   UNL     1       6.864  -2.344  26.773  0.00  0.00    +0.051 C 
ATOM      8  C   UNL     1       7.869  -2.277  25.671  0.00  0.00    +0.030 A 
ATOM      9  C   UNL     1       8.429  -3.554  25.171  0.00  0.00    +0.257 A 
ATOM     10  O   UNL     1       8.086  -4.637  25.631  0.00  0.00    -0.267 OA
ATOM     11  N   UNL     1       9.357  -3.447  24.177  0.00  0.00    -0.275 N 
ATOM     12  H   UNL     1       9.760  -4.306  23.837  0.00  0.00    +0.173 HD
ATOM     13  C   UNL     1       9.807  -2.285  23.614  0.00  0.00    +0.331 A 
ATOM     14  O   UNL     1      10.678  -2.313  22.745  0.00  0.00    -0.246 OA
ATOM     15  N   UNL     1       9.229  -1.116  24.088  0.00  0.00    -0.271 N 
ATOM     16  C   UNL     1       8.299  -1.140  25.111  0.00  0.00    +0.102 A 
ENDBRANCH   1  15
BRANCH   4  17
ATOM     17  O   UNL     1      10.361   2.397  21.631  0.00  0.00    -0.386 OA
ATOM     18  H   UNL     1      10.162   3.118  21.005  0.00  0.00    +0.210 HD
ENDBRANCH   4  17
BRANCH   3  19
ATOM     19  C   UNL     1       8.503   3.145  24.744  0.00  0.00    +0.190 C 
BRANCH  19  20
ATOM     20  O   UNL     1       8.093   2.380  25.871  0.00  0.00    -0.392 OA
ATOM     21  H   UNL     1       8.250   1.441  25.663  0.00  0.00    +0.210 HD
ENDBRANCH  19  20
ENDBRANCH   3  19
TORSDOF 4
ENDMDL
MODEL 8
REMARK VINA RESULT:      -5.5      2.272      5.327
REMARK  Name = 
REMARK  5 active torsions:
REMARK  status: ('A' for Active; 'I' for Inactive)
REMARK    1  A    between atoms: C_1  and  C_5
REMARK    2  A    between atoms: N_7  and  C_13
REMARK    3  A    between atoms: C_17  and  O_24
REMARK    4  A    between atoms: C_19  and  C_22
REMARK    5  A    between atoms: C_22  and  O_23
REMARK                            x       y       z     vdW  Elec       q    Type
REMARK                         _______ _______ _______ _____ _____    ______ ____
ROOT
ATOM      1  C   UNL     1       8.706  -3.009  23.436  0.00  0.00    +0.260 C 
ATOM      2  O   UNL     1       7.364  -3.528  23.551  0.00  0.00    -0.345 OA
ATOM      3  C   UNL     1       7.358  -4.546  24.580  0.00  0.00    +0.178 C 
ATOM      4  C   UNL     1       8.771  -4.621  25.165  0.00  0.00    +0.184 C 
ATOM      5  C   UNL     1       9.390  -3.298  24.773  0.00  0.00    +0.246 C 
ATOM      6  F   UNL     1       9.055  -2.351  25.691  0.00  0.00    -0.238 F 
ENDROOT
BRANCH   1  15
ATOM      7  C   UNL     1       6.365   1.388  23.082  0.00  0.00    +0.051 C 
ATOM      8  C   UNL     1       7.539   0.489  22.874  0.00  0.00    +0.030 A 
ATOM      9  C   UNL     1       8.730   1.057  22.201  0.00  0.00    +0.257 A 
ATOM     10  O   UNL     1       8.770   2.224  21.827  0.00  0.00    -0.267 OA
ATOM     11  N   UNL     1       9.773   0.198  22.013  0.00  0.00    -0.275 N 
ATOM     12  H   UNL     1      10.585   0.564  21.542  0.00  0.00    +0.173 HD
ATOM     13  C   UNL     1       9.813  -1.117  22.384  0.00  0.00    +0.331 A 
ATOM     14  O   UNL     1      10.799  -1.806  22.127  0.00  0.00    -0.246 OA
ATOM     15  N   UNL     1       8.689  -1.597  23.043  0.00  0.00    -0.271 N 
ATOM     16  C   UNL     1       7.582  -0.795  23.249  0.00  0.00    +0.102 A 
ENDBRANCH   1  15
BRANCH   4  17
ATOM     17  O   UNL     1       9.485  -5.696  24.535  0.00  0.00    -0.386 OA
ATOM     18  H   UNL     1       9.825  -6.281  25.237  0.00  0.00    +0.210 HD
ENDBRANCH   4  17
BRANCH   3  19
ATOM     19  C   UNL     1       6.276  -4.191  25.604  0.00  0.00    +0.190 C 
BRANCH  19  20
ATOM     20  O   UNL     1       6.755  -4.237  26.943  0.00  0.00    -0.392 OA
ATOM     21  H   UNL     1       6.043  -4.605  27.497  0.00  0.00    +0.210 HD
ENDBRANCH  19  20
ENDBRANCH   3  19
TORSDOF 4
ENDMDL
MODEL 9
REMARK VINA RESULT:      -5.5      2.590      3.687
REMARK  Name = 
REMARK  5 active torsions:
REMARK  status: ('A' for Active; 'I' for Inactive)
REMARK    1  A    between atoms: C_1  and  C_5
REMARK    2  A    between atoms: N_7  and  C_13
REMARK    3  A    between atoms: C_17  and  O_24
REMARK    4  A    between atoms: C_19  and  C_22
REMARK    5  A    between atoms: C_22  and  O_23
REMARK                            x       y       z     vdW  Elec       q    Type
REMARK                         _______ _______ _______ _____ _____    ______ ____
ROOT
ATOM      1  C   UNL     1       8.257   0.124  24.841  0.00  0.00    +0.260 C 
ATOM      2  O   UNL     1       7.590   0.539  23.631  0.00  0.00    -0.345 OA
ATOM      3  C   UNL     1       8.211   1.761  23.166  0.00  0.00    +0.178 C 
ATOM      4  C   UNL     1       9.362   2.088  24.122  0.00  0.00    +0.184 C 
ATOM      5  C   UNL     1       9.644   0.768  24.804  0.00  0.00    +0.246 C 
ATOM      6  F   UNL     1      10.488   0.031  24.033  0.00  0.00    -0.238 F 
ENDROOT
BRANCH   1  15
ATOM      7  C   UNL     1       7.526  -4.413  22.888  0.00  0.00    +0.051 C 
ATOM      8  C   UNL     1       7.885  -3.492  24.007  0.00  0.00    +0.030 A 
ATOM      9  C   UNL     1       8.223  -4.099  25.315  0.00  0.00    +0.257 A 
ATOM     10  O   UNL     1       8.219  -5.312  25.490  0.00  0.00    -0.267 OA
ATOM     11  N   UNL     1       8.527  -3.222  26.315  0.00  0.00    -0.275 N 
ATOM     12  H   UNL     1       8.744  -3.618  27.217  0.00  0.00    +0.173 HD
ATOM     13  C   UNL     1       8.546  -1.859  26.217  0.00  0.00    +0.331 A 
ATOM     14  O   UNL     1       8.800  -1.168  27.203  0.00  0.00    -0.246 OA
ATOM     15  N   UNL     1       8.257  -1.336  24.964  0.00  0.00    -0.271 N 
ATOM     16  C   UNL     1       7.916  -2.158  23.906  0.00  0.00    +0.102 A 
ENDBRANCH   1  15
BRANCH   4  17
ATOM     17  O   UNL     1       8.910   3.048  25.091  0.00  0.00    -0.386 OA
ATOM     18  H   UNL     1       8.530   3.804  24.606  0.00  0.00    +0.210 HD
ENDBRANCH   4  17
BRANCH   3  19
ATOM     19  C   UNL     1       8.647   1.558  21.711  0.00  0.00    +0.190 C 
BRANCH  19  20
ATOM     20  O   UNL     1       9.943   2.083  21.451  0.00  0.00    -0.392 OA
ATOM     21  H   UNL     1      10.545   1.732  22.133  0.00  0.00    +0.210 HD
ENDBRANCH  19  20
ENDBRANCH   3  19
TORSDOF 4
ENDMDL
