MODEL 1
REMARK VINA RESULT:      -6.1      0.000      0.000
REMARK  Name = 
REMARK  11 active torsions:
REMARK  status: ('A' for Active; 'I' for Inactive)
REMARK    1  A    between atoms: C_1  and  C_2
REMARK    2  A    between atoms: N_4  and  C_5
REMARK    3  A    between atoms: C_7  and  N_25
REMARK    4  A    between atoms: C_10  and  C_22
REMARK    5  A    between atoms: C_12  and  C_14
REMARK    6  A    between atoms: C_14  and  C_16
REMARK    7  A    between atoms: C_14  and  O_21
REMARK    8  A    between atoms: C_16  and  C_18
REMARK    9  A    between atoms: C_16  and  O_20
REMARK   10  A    between atoms: C_18  and  O_19
REMARK   11  A    between atoms: C_22  and  O_24
REMARK                            x       y       z     vdW  Elec       q    Type
REMARK                         _______ _______ _______ _____ _____    ______ ____
ROOT
ATOM      1  C   UNL     1       7.287  -2.851  24.622  0.00  0.00    +0.160 C 
ATOM      2  C   UNL     1       6.773  -2.359  23.240  0.00  0.00    +0.229 C 
ATOM      3  O   UNL     1       7.488  -1.277  22.628  0.00  0.00    -0.477 OA
ATOM      4  C   UNL     1       8.828  -1.142  22.906  0.00  0.00    +0.204 C 
ATOM      5  C   UNL     1       9.473  -1.781  23.887  0.00  0.00    +0.071 C 
ATOM      6  C   UNL     1       8.816  -2.711  24.842  0.00  0.00    +0.238 C 
ENDROOT
BRANCH   6   7
ATOM      7  N   UNL     1       9.442  -4.031  24.711  0.00  0.00    -0.104 NA
ATOM      8  C   UNL     1       9.321  -4.902  25.638  0.00  0.00    +0.377 C 
ATOM      9  N   UNL     1       9.945  -6.096  25.523  0.00  0.00    -0.289 N 
ATOM     10  H   UNL     1      10.370  -6.388  26.395  0.00  0.00    +0.255 HD
ATOM     11  H   UNL     1      10.647  -6.043  24.791  0.00  0.00    +0.255 HD
ATOM     12  N   UNL     1       8.670  -4.852  26.820  0.00  0.00    -0.289 N 
ATOM     13  H   UNL     1       8.211  -5.724  27.057  0.00  0.00    +0.255 HD
ATOM     14  H   UNL     1       8.054  -4.062  26.961  0.00  0.00    +0.255 HD
ENDBRANCH   6   7
BRANCH   1  17
ATOM     15  C   UNL     1       5.025  -2.121  27.630  0.00  0.00    +0.109 C 
ATOM     16  C   UNL     1       5.696  -2.966  26.582  0.00  0.00    +0.210 C 
ATOM     17  N   UNL     1       6.494  -2.245  25.722  0.00  0.00    -0.305 N 
ATOM     18  H   UNL     1       6.618  -1.256  25.896  0.00  0.00    +0.149 HD
ATOM     19  O   UNL     1       5.539  -4.178  26.513  0.00  0.00    -0.276 OA
ENDBRANCH   1  17
BRANCH   4  20
ATOM     20  C   UNL     1       9.607  -0.155  22.090  0.00  0.00    +0.372 C 
ATOM     21  O   UNL     1      10.245   0.788  22.529  0.00  0.00    -0.242 OA
BRANCH  20  22
ATOM     22  O   UNL     1       9.503  -0.438  20.772  0.00  0.00    -0.475 OA
ATOM     23  H   UNL     1       8.903  -1.202  20.645  0.00  0.00    +0.296 HD
ENDBRANCH  20  22
ENDBRANCH   4  20
BRANCH   2  24
ATOM     24  C   UNL     1       6.535  -3.534  22.255  0.00  0.00    +0.187 C 
BRANCH  24  25
ATOM     25  O   UNL     1       5.400  -3.312  21.418  0.00  0.00    -0.385 OA
ATOM     26  H   UNL     1       5.355  -2.350  21.250  0.00  0.00    +0.210 HD
ENDBRANCH  24  25
BRANCH  24  27
ATOM     27  C   UNL     1       6.415  -4.919  22.926  0.00  0.00    +0.172 C 
BRANCH  27  28
ATOM     28  O   UNL     1       7.604  -5.677  22.589  0.00  0.00    -0.387 OA
ATOM     29  H   UNL     1       7.870  -6.174  23.383  0.00  0.00    +0.210 HD
ENDBRANCH  27  28
BRANCH  27  30
ATOM     30  C   UNL     1       5.224  -5.765  22.467  0.00  0.00    +0.189 C 
BRANCH  30  31
ATOM     31  O   UNL     1       5.473  -6.242  21.142  0.00  0.00    -0.392 OA
ATOM     32  H   UNL     1       6.279  -5.776  20.851  0.00  0.00    +0.210 HD
ENDBRANCH  30  31
ENDBRANCH  27  30
ENDBRANCH  24  27
ENDBRANCH   2  24
TORSDOF 10
ENDMDL
MODEL 2
REMARK VINA RESULT:      -6.1      2.103      4.832
REMARK  Name = 
REMARK  11 active torsions:
REMARK  status: ('A' for Active; 'I' for Inactive)
REMARK    1  A    between atoms: C_1  and  C_2
REMARK    2  A    between atoms: N_4  and  C_5
REMARK    3  A    between atoms: C_7  and  N_25
REMARK    4  A    between atoms: C_10  and  C_22
REMARK    5  A    between atoms: C_12  and  C_14
REMARK    6  A    between atoms: C_14  and  C_16
REMARK    7  A    between atoms: C_14  and  O_21
REMARK    8  A    between atoms: C_16  and  C_18
REMARK    9  A    between atoms: C_16  and  O_20
REMARK   10  A    between atoms: C_18  and  O_19
REMARK   11  A    between atoms: C_22  and  O_24
REMARK                            x       y       z     vdW  Elec       q    Type
REMARK                         _______ _______ _______ _____ _____    ______ ____
ROOT
ATOM      1  C   UNL     1       7.830  -2.974  23.136  0.00  0.00    +0.160 C 
ATOM      2  C   UNL     1       7.988  -1.526  22.592  0.00  0.00    +0.229 C 
ATOM      3  O   UNL     1       7.088  -0.536  23.108  0.00  0.00    -0.477 OA
ATOM      4  C   UNL     1       6.603  -0.698  24.384  0.00  0.00    +0.204 C 
ATOM      5  C   UNL     1       6.701  -1.822  25.101  0.00  0.00    +0.071 C 
ATOM      6  C   UNL     1       7.326  -3.074  24.600  0.00  0.00    +0.238 C 
ENDROOT
BRANCH   6   7
ATOM      7  N   UNL     1       8.454  -3.413  25.474  0.00  0.00    -0.104 NA
ATOM      8  C   UNL     1       8.555  -4.582  25.980  0.00  0.00    +0.377 C 
ATOM      9  N   UNL     1       9.574  -4.863  26.823  0.00  0.00    -0.289 N 
ATOM     10  H   UNL     1       9.269  -5.410  27.618  0.00  0.00    +0.255 HD
ATOM     11  H   UNL     1      10.005  -3.998  27.135  0.00  0.00    +0.255 HD
ATOM     12  N   UNL     1       7.765  -5.671  25.858  0.00  0.00    -0.289 N 
ATOM     13  H   UNL     1       8.290  -6.536  25.799  0.00  0.00    +0.255 HD
ATOM     14  H   UNL     1       7.046  -5.626  25.148  0.00  0.00    +0.255 HD
ENDBRANCH   6   7
BRANCH   1  17
ATOM     15  C   UNL     1       6.216  -5.775  21.077  0.00  0.00    +0.109 C 
ATOM     16  C   UNL     1       7.167  -5.167  22.071  0.00  0.00    +0.210 C 
ATOM     17  N   UNL     1       7.031  -3.803  22.199  0.00  0.00    -0.305 N 
ATOM     18  H   UNL     1       6.288  -3.344  21.688  0.00  0.00    +0.149 HD
ATOM     19  O   UNL     1       7.978  -5.834  22.700  0.00  0.00    -0.276 OA
ENDBRANCH   1  17
BRANCH   4  20
ATOM     20  C   UNL     1       5.852   0.449  24.989  0.00  0.00    +0.372 C 
ATOM     21  O   UNL     1       5.758   0.692  26.182  0.00  0.00    -0.242 OA
BRANCH  20  22
ATOM     22  O   UNL     1       5.264   1.194  24.026  0.00  0.00    -0.475 OA
ATOM     23  H   UNL     1       5.649   2.094  24.024  0.00  0.00    +0.296 HD
ENDBRANCH  20  22
ENDBRANCH   4  20
BRANCH   2  24
ATOM     24  C   UNL     1       9.464  -1.049  22.625  0.00  0.00    +0.187 C 
BRANCH  24  25
ATOM     25  O   UNL     1      10.290  -1.914  23.405  0.00  0.00    -0.385 OA
ATOM     26  H   UNL     1      10.827  -1.343  23.990  0.00  0.00    +0.210 HD
ENDBRANCH  24  25
BRANCH  24  27
ATOM     27  C   UNL     1       9.657   0.408  23.094  0.00  0.00    +0.172 C 
BRANCH  27  28
ATOM     28  O   UNL     1      10.159   1.172  21.969  0.00  0.00    -0.387 OA
ATOM     29  H   UNL     1      10.595   0.547  21.361  0.00  0.00    +0.210 HD
ENDBRANCH  27  28
BRANCH  27  30
ATOM     30  C   UNL     1      10.670   0.600  24.228  0.00  0.00    +0.189 C 
BRANCH  30  31
ATOM     31  O   UNL     1      10.051   0.256  25.470  0.00  0.00    -0.392 OA
ATOM     32  H   UNL     1       9.093   0.361  25.315  0.00  0.00    +0.210 HD
ENDBRANCH  30  31
ENDBRANCH  27  30
ENDBRANCH  24  27
ENDBRANCH   2  24
TORSDOF 10
ENDMDL
MODEL 3
REMARK VINA RESULT:      -6.0      2.540      5.016
REMARK  Name = 
REMARK  11 active torsions:
REMARK  status: ('A' for Active; 'I' for Inactive)
REMARK    1  A    between atoms: C_1  and  C_2
REMARK    2  A    between atoms: N_4  and  C_5
REMARK    3  A    between atoms: C_7  and  N_25
REMARK    4  A    between atoms: C_10  and  C_22
REMARK    5  A    between atoms: C_12  and  C_14
REMARK    6  A    between atoms: C_14  and  C_16
REMARK    7  A    between atoms: C_14  and  O_21
REMARK    8  A    between atoms: C_16  and  C_18
REMARK    9  A    between atoms: C_16  and  O_20
REMARK   10  A    between atoms: C_18  and  O_19
REMARK   11  A    between atoms: C_22  and  O_24
REMARK                            x       y       z     vdW  Elec       q    Type
REMARK                         _______ _______ _______ _____ _____    ______ ____
ROOT
ATOM      1  C   UNL     1       6.827  -1.883  24.243  0.00  0.00    +0.160 C 
ATOM      2  C   UNL     1       6.342  -3.050  25.148  0.00  0.00    +0.229 C 
ATOM      3  O   UNL     1       5.556  -4.074  24.523  0.00  0.00    -0.477 OA
ATOM      4  C   UNL     1       5.766  -4.334  23.190  0.00  0.00    +0.204 C 
ATOM      5  C   UNL     1       6.465  -3.552  22.360  0.00  0.00    +0.071 C 
ATOM      6  C   UNL     1       7.090  -2.265  22.763  0.00  0.00    +0.238 C 
ENDROOT
BRANCH   6   7
ATOM      7  N   UNL     1       8.536  -2.362  22.542  0.00  0.00    -0.104 NA
ATOM      8  C   UNL     1       9.200  -1.348  22.136  0.00  0.00    +0.377 C 
ATOM      9  N   UNL     1      10.524  -1.468  21.890  0.00  0.00    -0.289 N 
ATOM     10  H   UNL     1      10.798  -0.989  21.040  0.00  0.00    +0.255 HD
ATOM     11  H   UNL     1      10.772  -2.452  21.834  0.00  0.00    +0.255 HD
ATOM     12  N   UNL     1       8.806  -0.089  21.848  0.00  0.00    -0.289 N 
ATOM     13  H   UNL     1       9.474   0.612  22.145  0.00  0.00    +0.255 HD
ATOM     14  H   UNL     1       7.865   0.160  22.121  0.00  0.00    +0.255 HD
ENDBRANCH   6   7
BRANCH   1  17
ATOM     15  C   UNL     1       5.264   1.604  24.546  0.00  0.00    +0.109 C 
ATOM     16  C   UNL     1       6.375   0.595  24.444  0.00  0.00    +0.210 C 
ATOM     17  N   UNL     1       5.931  -0.707  24.379  0.00  0.00    -0.305 N 
ATOM     18  H   UNL     1       4.934  -0.873  24.336  0.00  0.00    +0.149 HD
ATOM     19  O   UNL     1       7.556   0.915  24.421  0.00  0.00    -0.276 OA
ENDBRANCH   1  17
BRANCH   4  20
ATOM     20  C   UNL     1       5.107  -5.549  22.610  0.00  0.00    +0.372 C 
ATOM     21  O   UNL     1       3.907  -5.772  22.596  0.00  0.00    -0.242 OA
BRANCH  20  22
ATOM     22  O   UNL     1       6.030  -6.395  22.102  0.00  0.00    -0.475 OA
ATOM     23  H   UNL     1       6.872  -5.917  21.957  0.00  0.00    +0.296 HD
ENDBRANCH  20  22
ENDBRANCH   4  20
BRANCH   2  24
ATOM     24  C   UNL     1       7.493  -3.638  26.007  0.00  0.00    +0.187 C 
BRANCH  24  25
ATOM     25  O   UNL     1       8.708  -2.904  25.851  0.00  0.00    -0.385 OA
ATOM     26  H   UNL     1       8.580  -2.045  26.300  0.00  0.00    +0.210 HD
ENDBRANCH  24  25
BRANCH  24  27
ATOM     27  C   UNL     1       7.766  -5.139  25.773  0.00  0.00    +0.172 C 
BRANCH  27  28
ATOM     28  O   UNL     1       8.061  -5.740  27.059  0.00  0.00    -0.387 OA
ATOM     29  H   UNL     1       7.227  -5.786  27.559  0.00  0.00    +0.210 HD
ENDBRANCH  27  28
BRANCH  27  30
ATOM     30  C   UNL     1       8.964  -5.451  24.869  0.00  0.00    +0.189 C 
BRANCH  30  31
ATOM     31  O   UNL     1      10.134  -5.594  25.679  0.00  0.00    -0.392 OA
ATOM     32  H   UNL     1      10.487  -6.478  25.462  0.00  0.00    +0.210 HD
ENDBRANCH  30  31
ENDBRANCH  27  30
ENDBRANCH  24  27
ENDBRANCH   2  24
TORSDOF 10
ENDMDL
MODEL 4
REMARK VINA RESULT:      -6.0      4.507      6.953
REMARK  Name = 
REMARK  11 active torsions:
REMARK  status: ('A' for Active; 'I' for Inactive)
REMARK    1  A    between atoms: C_1  and  C_2
REMARK    2  A    between atoms: N_4  and  C_5
REMARK    3  A    between atoms: C_7  and  N_25
REMARK    4  A    between atoms: C_10  and  C_22
REMARK    5  A    between atoms: C_12  and  C_14
REMARK    6  A    between atoms: C_14  and  C_16
REMARK    7  A    between atoms: C_14  and  O_21
REMARK    8  A    between atoms: C_16  and  C_18
REMARK    9  A    between atoms: C_16  and  O_20
REMARK   10  A    between atoms: C_18  and  O_19
REMARK   11  A    between atoms: C_22  and  O_24
REMARK                            x       y       z     vdW  Elec       q    Type
REMARK                         _______ _______ _______ _____ _____    ______ ____
ROOT
ATOM      1  C   UNL     1       8.649   1.858  24.257  0.00  0.00    +0.160 C 
ATOM      2  C   UNL     1       8.269   3.364  24.180  0.00  0.00    +0.229 C 
ATOM      3  O   UNL     1       9.346   4.309  24.225  0.00  0.00    -0.477 OA
ATOM      4  C   UNL     1      10.571   3.926  23.733  0.00  0.00    +0.204 C 
ATOM      5  C   UNL     1      10.916   2.668  23.439  0.00  0.00    +0.071 C 
ATOM      6  C   UNL     1      10.024   1.496  23.637  0.00  0.00    +0.238 C 
ENDROOT
BRANCH   6   7
ATOM      7  N   UNL     1       9.809   0.851  22.337  0.00  0.00    -0.104 NA
ATOM      8  C   UNL     1       9.766  -0.423  22.243  0.00  0.00    +0.377 C 
ATOM      9  N   UNL     1       9.616  -1.002  21.031  0.00  0.00    -0.289 N 
ATOM     10  H   UNL     1      10.218  -1.808  20.918  0.00  0.00    +0.255 HD
ATOM     11  H   UNL     1       9.803  -0.319  20.303  0.00  0.00    +0.255 HD
ATOM     12  N   UNL     1       9.883  -1.385  23.184  0.00  0.00    -0.289 N 
ATOM     13  H   UNL     1       9.254  -2.164  23.035  0.00  0.00    +0.255 HD
ATOM     14  H   UNL     1       9.864  -1.075  24.147  0.00  0.00    +0.255 HD
ENDBRANCH   6   7
BRANCH   1  17
ATOM     15  C   UNL     1       7.984  -0.187  27.431  0.00  0.00    +0.109 C 
ATOM     16  C   UNL     1       8.007   0.100  25.954  0.00  0.00    +0.210 C 
ATOM     17  N   UNL     1       8.496   1.349  25.643  0.00  0.00    -0.305 N 
ATOM     18  H   UNL     1       8.852   1.926  26.394  0.00  0.00    +0.149 HD
ATOM     19  O   UNL     1       7.625  -0.710  25.120  0.00  0.00    -0.276 OA
ENDBRANCH   1  17
BRANCH   4  20
ATOM     20  C   UNL     1      11.617   4.988  23.577  0.00  0.00    +0.372 C 
ATOM     21  O   UNL     1      12.788   4.800  23.287  0.00  0.00    -0.242 OA
BRANCH  20  22
ATOM     22  O   UNL     1      11.094   6.211  23.816  0.00  0.00    -0.475 OA
ATOM     23  H   UNL     1      11.751   6.765  24.286  0.00  0.00    +0.296 HD
ENDBRANCH  20  22
ENDBRANCH   4  20
BRANCH   2  24
ATOM     24  C   UNL     1       7.281   3.656  23.020  0.00  0.00    +0.187 C 
BRANCH  24  25
ATOM     25  O   UNL     1       7.864   3.400  21.741  0.00  0.00    -0.385 OA
ATOM     26  H   UNL     1       7.524   2.534  21.442  0.00  0.00    +0.210 HD
ENDBRANCH  24  25
BRANCH  24  27
ATOM     27  C   UNL     1       6.678   5.076  23.034  0.00  0.00    +0.172 C 
BRANCH  27  28
ATOM     28  O   UNL     1       5.248   4.950  22.827  0.00  0.00    -0.387 OA
ATOM     29  H   UNL     1       4.855   5.833  22.953  0.00  0.00    +0.210 HD
ENDBRANCH  27  28
BRANCH  27  30
ATOM     30  C   UNL     1       7.189   6.014  21.936  0.00  0.00    +0.189 C 
BRANCH  30  31
ATOM     31  O   UNL     1       8.571   6.299  22.171  0.00  0.00    -0.392 OA
ATOM     32  H   UNL     1       9.044   5.481  21.928  0.00  0.00    +0.210 HD
ENDBRANCH  30  31
ENDBRANCH  27  30
ENDBRANCH  24  27
ENDBRANCH   2  24
TORSDOF 10
ENDMDL
MODEL 5
REMARK VINA RESULT:      -6.0      1.968      2.383
REMARK  Name = 
REMARK  11 active torsions:
REMARK  status: ('A' for Active; 'I' for Inactive)
REMARK    1  A    between atoms: C_1  and  C_2
REMARK    2  A    between atoms: N_4  and  C_5
REMARK    3  A    between atoms: C_7  and  N_25
REMARK    4  A    between atoms: C_10  and  C_22
REMARK    5  A    between atoms: C_12  and  C_14
REMARK    6  A    between atoms: C_14  and  C_16
REMARK    7  A    between atoms: C_14  and  O_21
REMARK    8  A    between atoms: C_16  and  C_18
REMARK    9  A    between atoms: C_16  and  O_20
REMARK   10  A    between atoms: C_18  and  O_19
REMARK   11  A    between atoms: C_22  and  O_24
REMARK                            x       y       z     vdW  Elec       q    Type
REMARK                         _______ _______ _______ _____ _____    ______ ____
ROOT
ATOM      1  C   UNL     1       6.224  -4.094  25.130  0.00  0.00    +0.160 C 
ATOM      2  C   UNL     1       5.521  -3.563  23.849  0.00  0.00    +0.229 C 
ATOM      3  O   UNL     1       5.508  -2.142  23.656  0.00  0.00    -0.477 OA
ATOM      4  C   UNL     1       6.544  -1.404  24.178  0.00  0.00    +0.204 C 
ATOM      5  C   UNL     1       7.438  -1.861  25.062  0.00  0.00    +0.071 C 
ATOM      6  C   UNL     1       7.415  -3.234  25.630  0.00  0.00    +0.238 C 
ENDROOT
BRANCH   6   7
ATOM      7  N   UNL     1       8.671  -3.904  25.279  0.00  0.00    -0.104 NA
ATOM      8  C   UNL     1       9.051  -4.945  25.914  0.00  0.00    +0.377 C 
ATOM      9  N   UNL     1      10.236  -5.522  25.610  0.00  0.00    -0.289 N 
ATOM     10  H   UNL     1      10.746  -5.801  26.439  0.00  0.00    +0.255 HD
ATOM     11  H   UNL     1      10.793  -4.880  25.054  0.00  0.00    +0.255 HD
ATOM     12  N   UNL     1       8.476  -5.621  26.933  0.00  0.00    -0.289 N 
ATOM     13  H   UNL     1       8.580  -6.624  26.852  0.00  0.00    +0.255 HD
ATOM     14  H   UNL     1       7.524  -5.366  27.159  0.00  0.00    +0.255 HD
ENDBRANCH   6   7
BRANCH   1  17
ATOM     15  C   UNL     1       3.993  -5.614  27.851  0.00  0.00    +0.109 C 
ATOM     16  C   UNL     1       5.035  -5.608  26.767  0.00  0.00    +0.210 C 
ATOM     17  N   UNL     1       5.230  -4.369  26.198  0.00  0.00    -0.305 N 
ATOM     18  H   UNL     1       4.729  -3.579  26.584  0.00  0.00    +0.149 HD
ATOM     19  O   UNL     1       5.645  -6.615  26.433  0.00  0.00    -0.276 OA
ENDBRANCH   1  17
BRANCH   4  20
ATOM     20  C   UNL     1       6.637   0.037  23.777  0.00  0.00    +0.372 C 
ATOM     21  O   UNL     1       7.590   0.565  23.227  0.00  0.00    -0.242 OA
BRANCH  20  22
ATOM     22  O   UNL     1       5.511   0.701  24.121  0.00  0.00    -0.475 OA
ATOM     23  H   UNL     1       5.644   1.663  23.997  0.00  0.00    +0.296 HD
ENDBRANCH  20  22
ENDBRANCH   4  20
BRANCH   2  24
ATOM     24  C   UNL     1       5.979  -4.323  22.576  0.00  0.00    +0.187 C 
BRANCH  24  25
ATOM     25  O   UNL     1       5.474  -3.722  21.382  0.00  0.00    -0.385 OA
ATOM     26  H   UNL     1       5.612  -2.759  21.468  0.00  0.00    +0.210 HD
ENDBRANCH  24  25
BRANCH  24  27
ATOM     27  C   UNL     1       5.647  -5.829  22.574  0.00  0.00    +0.172 C 
BRANCH  27  28
ATOM     28  O   UNL     1       5.682  -6.287  21.199  0.00  0.00    -0.387 OA
ATOM     29  H   UNL     1       6.123  -7.156  21.190  0.00  0.00    +0.210 HD
ENDBRANCH  27  28
BRANCH  27  30
ATOM     30  C   UNL     1       4.258  -6.192  23.110  0.00  0.00    +0.189 C 
BRANCH  30  31
ATOM     31  O   UNL     1       4.349  -7.410  23.856  0.00  0.00    -0.392 OA
ATOM     32  H   UNL     1       3.902  -7.224  24.703  0.00  0.00    +0.210 HD
ENDBRANCH  30  31
ENDBRANCH  27  30
ENDBRANCH  24  27
ENDBRANCH   2  24
TORSDOF 10
ENDMDL
MODEL 6
REMARK VINA RESULT:      -5.9      2.181      3.951
REMARK  Name = 
REMARK  11 active torsions:
REMARK  status: ('A' for Active; 'I' for Inactive)
REMARK    1  A    between atoms: C_1  and  C_2
REMARK    2  A    between atoms: N_4  and  C_5
REMARK    3  A    between atoms: C_7  and  N_25
REMARK    4  A    between atoms: C_10  and  C_22
REMARK    5  A    between atoms: C_12  and  C_14
REMARK    6  A    between atoms: C_14  and  C_16
REMARK    7  A    between atoms: C_14  and  O_21
REMARK    8  A    between atoms: C_16  and  C_18
REMARK    9  A    between atoms: C_16  and  O_20
REMARK   10  A    between atoms: C_18  and  O_19
REMARK   11  A    between atoms: C_22  and  O_24
REMARK                            x       y       z     vdW  Elec       q    Type
REMARK                         _______ _______ _______ _____ _____    ______ ____
ROOT
ATOM      1  C   UNL     1       6.399  -3.199  24.364  0.00  0.00    +0.160 C 
ATOM      2  C   UNL     1       6.409  -1.765  23.764  0.00  0.00    +0.229 C 
ATOM      3  O   UNL     1       6.562  -0.676  24.685  0.00  0.00    -0.477 OA
ATOM      4  C   UNL     1       7.268  -0.897  25.844  0.00  0.00    +0.204 C 
ATOM      5  C   UNL     1       7.617  -2.102  26.307  0.00  0.00    +0.071 C 
ATOM      6  C   UNL     1       7.258  -3.382  25.643  0.00  0.00    +0.238 C 
ENDROOT
BRANCH   6   7
ATOM      7  N   UNL     1       8.495  -4.087  25.293  0.00  0.00    -0.104 NA
ATOM      8  C   UNL     1       8.826  -5.160  25.904  0.00  0.00    +0.377 C 
ATOM      9  N   UNL     1       9.994  -5.770  25.603  0.00  0.00    -0.289 N 
ATOM     10  H   UNL     1      10.479  -6.092  26.432  0.00  0.00    +0.255 HD
ATOM     11  H   UNL     1      10.584  -5.133  25.076  0.00  0.00    +0.255 HD
ATOM     12  N   UNL     1       8.208  -5.843  26.892  0.00  0.00    -0.289 N 
ATOM     13  H   UNL     1       8.278  -6.847  26.782  0.00  0.00    +0.255 HD
ATOM     14  H   UNL     1       7.262  -5.560  27.109  0.00  0.00    +0.255 HD
ENDBRANCH   6   7
BRANCH   1  17
ATOM     15  C   UNL     1       2.897  -4.708  23.974  0.00  0.00    +0.109 C 
ATOM     16  C   UNL     1       4.268  -4.271  23.533  0.00  0.00    +0.210 C 
ATOM     17  N   UNL     1       5.007  -3.685  24.536  0.00  0.00    -0.305 N 
ATOM     18  H   UNL     1       4.615  -3.658  25.469  0.00  0.00    +0.149 HD
ATOM     19  O   UNL     1       4.674  -4.429  22.390  0.00  0.00    -0.276 OA
ENDBRANCH   1  17
BRANCH   4  20
ATOM     20  C   UNL     1       7.613   0.297  26.682  0.00  0.00    +0.372 C 
ATOM     21  O   UNL     1       7.334   0.447  27.860  0.00  0.00    -0.242 OA
BRANCH  20  22
ATOM     22  O   UNL     1       8.279   1.217  25.948  0.00  0.00    -0.475 OA
ATOM     23  H   UNL     1       8.845   0.767  25.288  0.00  0.00    +0.296 HD
ENDBRANCH  20  22
ENDBRANCH   4  20
BRANCH   2  24
ATOM     24  C   UNL     1       7.372  -1.647  22.553  0.00  0.00    +0.187 C 
BRANCH  24  25
ATOM     25  O   UNL     1       8.070  -2.867  22.302  0.00  0.00    -0.385 OA
ATOM     26  H   UNL     1       8.179  -2.939  21.333  0.00  0.00    +0.210 HD
ENDBRANCH  24  25
BRANCH  24  27
ATOM     27  C   UNL     1       8.383  -0.486  22.648  0.00  0.00    +0.172 C 
BRANCH  27  28
ATOM     28  O   UNL     1       7.635   0.756  22.617  0.00  0.00    -0.387 OA
ATOM     29  H   UNL     1       8.184   1.440  23.040  0.00  0.00    +0.210 HD
ENDBRANCH  27  28
BRANCH  27  30
ATOM     30  C   UNL     1       9.394  -0.405  21.499  0.00  0.00    +0.189 C 
BRANCH  30  31
ATOM     31  O   UNL     1      10.301  -1.507  21.597  0.00  0.00    -0.392 OA
ATOM     32  H   UNL     1       9.902  -2.108  22.254  0.00  0.00    +0.210 HD
ENDBRANCH  30  31
ENDBRANCH  27  30
ENDBRANCH  24  27
ENDBRANCH   2  24
TORSDOF 10
ENDMDL
MODEL 7
REMARK VINA RESULT:      -5.8      2.715      4.906
REMARK  Name = 
REMARK  11 active torsions:
REMARK  status: ('A' for Active; 'I' for Inactive)
REMARK    1  A    between atoms: C_1  and  C_2
REMARK    2  A    between atoms: N_4  and  C_5
REMARK    3  A    between atoms: C_7  and  N_25
REMARK    4  A    between atoms: C_10  and  C_22
REMARK    5  A    between atoms: C_12  and  C_14
REMARK    6  A    between atoms: C_14  and  C_16
REMARK    7  A    between atoms: C_14  and  O_21
REMARK    8  A    between atoms: C_16  and  C_18
REMARK    9  A    between atoms: C_16  and  O_20
REMARK   10  A    between atoms: C_18  and  O_19
REMARK   11  A    between atoms: C_22  and  O_24
REMARK                            x       y       z     vdW  Elec       q    Type
REMARK                         _______ _______ _______ _____ _____    ______ ____
ROOT
ATOM      1  C   UNL     1       7.481  -1.613  24.293  0.00  0.00    +0.160 C 
ATOM      2  C   UNL     1       7.831  -3.070  24.710  0.00  0.00    +0.229 C 
ATOM      3  O   UNL     1       7.286  -4.125  23.907  0.00  0.00    -0.477 OA
ATOM      4  C   UNL     1       7.045  -3.873  22.577  0.00  0.00    +0.204 C 
ATOM      5  C   UNL     1       7.043  -2.658  22.018  0.00  0.00    +0.071 C 
ATOM      6  C   UNL     1       7.272  -1.398  22.771  0.00  0.00    +0.238 C 
ENDROOT
BRANCH   6   7
ATOM      7  N   UNL     1       8.454  -0.732  22.214  0.00  0.00    -0.104 NA
ATOM      8  C   UNL     1       8.446   0.527  21.993  0.00  0.00    +0.377 C 
ATOM      9  N   UNL     1       9.526   1.117  21.434  0.00  0.00    -0.289 N 
ATOM     10  H   UNL     1       9.265   1.795  20.728  0.00  0.00    +0.255 HD
ATOM     11  H   UNL     1      10.131   0.407  21.032  0.00  0.00    +0.255 HD
ATOM     12  N   UNL     1       7.485   1.455  22.192  0.00  0.00    -0.289 N 
ATOM     13  H   UNL     1       7.850   2.337  22.528  0.00  0.00    +0.255 HD
ATOM     14  H   UNL     1       6.681   1.159  22.729  0.00  0.00    +0.255 HD
ENDBRANCH   6   7
BRANCH   1  17
ATOM     15  C   UNL     1       4.963   0.501  26.263  0.00  0.00    +0.109 C 
ATOM     16  C   UNL     1       6.213   0.226  25.472  0.00  0.00    +0.210 C 
ATOM     17  N   UNL     1       6.352  -1.093  25.104  0.00  0.00    -0.305 N 
ATOM     18  H   UNL     1       5.601  -1.735  25.324  0.00  0.00    +0.149 HD
ATOM     19  O   UNL     1       7.019   1.102  25.189  0.00  0.00    -0.276 OA
ENDBRANCH   1  17
BRANCH   4  20
ATOM     20  C   UNL     1       6.694  -5.040  21.705  0.00  0.00    +0.372 C 
ATOM     21  O   UNL     1       5.883  -5.031  20.792  0.00  0.00    -0.242 OA
BRANCH  20  22
ATOM     22  O   UNL     1       7.394  -6.137  22.071  0.00  0.00    -0.475 OA
ATOM     23  H   UNL     1       8.353  -5.961  21.982  0.00  0.00    +0.296 HD
ENDBRANCH  20  22
ENDBRANCH   4  20
BRANCH   2  24
ATOM     24  C   UNL     1       9.351  -3.253  24.965  0.00  0.00    +0.187 C 
BRANCH  24  25
ATOM     25  O   UNL     1      10.129  -2.968  23.801  0.00  0.00    -0.385 OA
ATOM     26  H   UNL     1       9.503  -2.696  23.100  0.00  0.00    +0.210 HD
ENDBRANCH  24  25
BRANCH  24  27
ATOM     27  C   UNL     1       9.746  -4.638  25.520  0.00  0.00    +0.172 C 
BRANCH  27  28
ATOM     28  O   UNL     1       9.474  -5.620  24.489  0.00  0.00    -0.387 OA
ATOM     29  H   UNL     1       8.914  -6.313  24.884  0.00  0.00    +0.210 HD
ENDBRANCH  27  28
BRANCH  27  30
ATOM     30  C   UNL     1       8.967  -5.091  26.759  0.00  0.00    +0.189 C 
BRANCH  30  31
ATOM     31  O   UNL     1       7.972  -6.040  26.364  0.00  0.00    -0.392 OA
ATOM     32  H   UNL     1       7.730  -5.790  25.452  0.00  0.00    +0.210 HD
ENDBRANCH  30  31
ENDBRANCH  27  30
ENDBRANCH  24  27
ENDBRANCH   2  24
TORSDOF 10
ENDMDL
MODEL 8
REMARK VINA RESULT:      -5.8      2.599      4.747
REMARK  Name = 
REMARK  11 active torsions:
REMARK  status: ('A' for Active; 'I' for Inactive)
REMARK    1  A    between atoms: C_1  and  C_2
REMARK    2  A    between atoms: N_4  and  C_5
REMARK    3  A    between atoms: C_7  and  N_25
REMARK    4  A    between atoms: C_10  and  C_22
REMARK    5  A    between atoms: C_12  and  C_14
REMARK    6  A    between atoms: C_14  and  C_16
REMARK    7  A    between atoms: C_14  and  O_21
REMARK    8  A    between atoms: C_16  and  C_18
REMARK    9  A    between atoms: C_16  and  O_20
REMARK   10  A    between atoms: C_18  and  O_19
REMARK   11  A    between atoms: C_22  and  O_24
REMARK                            x       y       z     vdW  Elec       q    Type
REMARK                         _______ _______ _______ _____ _____    ______ ____
ROOT
ATOM      1  C   UNL     1       7.762  -1.470  23.213  0.00  0.00    +0.160 C 
ATOM      2  C   UNL     1       7.907  -2.909  22.645  0.00  0.00    +0.229 C 
ATOM      3  O   UNL     1       8.653  -3.847  23.432  0.00  0.00    -0.477 OA
ATOM      4  C   UNL     1       8.665  -3.687  24.797  0.00  0.00    +0.204 C 
ATOM      5  C   UNL     1       8.247  -2.592  25.441  0.00  0.00    +0.071 C 
ATOM      6  C   UNL     1       7.735  -1.374  24.761  0.00  0.00    +0.238 C 
ENDROOT
BRANCH   6   7
ATOM      7  N   UNL     1       6.356  -1.140  25.203  0.00  0.00    -0.104 NA
ATOM      8  C   UNL     1       5.974   0.031  25.543  0.00  0.00    +0.377 C 
ATOM      9  N   UNL     1       4.714   0.221  25.995  0.00  0.00    -0.289 N 
ATOM     10  H   UNL     1       4.687   0.845  26.792  0.00  0.00    +0.255 HD
ATOM     11  H   UNL     1       4.301  -0.675  26.235  0.00  0.00    +0.255 HD
ATOM     12  N   UNL     1       6.640   1.206  25.574  0.00  0.00    -0.289 N 
ATOM     13  H   UNL     1       6.073   1.990  25.274  0.00  0.00    +0.255 HD
ATOM     14  H   UNL     1       7.549   1.218  25.132  0.00  0.00    +0.255 HD
ENDBRANCH   6   7
BRANCH   1  17
ATOM     15  C   UNL     1       9.734   1.483  21.768  0.00  0.00    +0.109 C 
ATOM     16  C   UNL     1       8.546   0.777  22.364  0.00  0.00    +0.210 C 
ATOM     17  N   UNL     1       8.765  -0.562  22.602  0.00  0.00    -0.305 N 
ATOM     18  H   UNL     1       9.690  -0.936  22.431  0.00  0.00    +0.149 HD
ATOM     19  O   UNL     1       7.494   1.351  22.609  0.00  0.00    -0.276 OA
ENDBRANCH   1  17
BRANCH   4  20
ATOM     20  C   UNL     1       9.254  -4.794  25.618  0.00  0.00    +0.372 C 
ATOM     21  O   UNL     1       8.858  -5.158  26.714  0.00  0.00    -0.242 OA
BRANCH  20  22
ATOM     22  O   UNL     1      10.313  -5.346  24.985  0.00  0.00    -0.475 OA
ATOM     23  H   UNL     1      10.401  -4.957  24.090  0.00  0.00    +0.296 HD
ENDBRANCH  20  22
ENDBRANCH   4  20
BRANCH   2  24
ATOM     24  C   UNL     1       6.546  -3.490  22.176  0.00  0.00    +0.187 C 
BRANCH  24  25
ATOM     25  O   UNL     1       5.497  -3.218  23.106  0.00  0.00    -0.385 OA
ATOM     26  H   UNL     1       5.028  -4.061  23.261  0.00  0.00    +0.210 HD
ENDBRANCH  24  25
BRANCH  24  27
ATOM     27  C   UNL     1       6.569  -4.999  21.855  0.00  0.00    +0.172 C 
BRANCH  27  28
ATOM     28  O   UNL     1       5.966  -5.182  20.549  0.00  0.00    -0.387 OA
ATOM     29  H   UNL     1       5.099  -5.604  20.682  0.00  0.00    +0.210 HD
ENDBRANCH  27  28
BRANCH  27  30
ATOM     30  C   UNL     1       5.774  -5.884  22.820  0.00  0.00    +0.189 C 
BRANCH  30  31
ATOM     31  O   UNL     1       4.421  -5.972  22.366  0.00  0.00    -0.392 OA
ATOM     32  H   UNL     1       4.110  -5.049  22.311  0.00  0.00    +0.210 HD
ENDBRANCH  30  31
ENDBRANCH  27  30
ENDBRANCH  24  27
ENDBRANCH   2  24
TORSDOF 10
ENDMDL
MODEL 9
REMARK VINA RESULT:      -5.6      4.249      6.781
REMARK  Name = 
REMARK  11 active torsions:
REMARK  status: ('A' for Active; 'I' for Inactive)
REMARK    1  A    between atoms: C_1  and  C_2
REMARK    2  A    between atoms: N_4  and  C_5
REMARK    3  A    between atoms: C_7  and  N_25
REMARK    4  A    between atoms: C_10  and  C_22
REMARK    5  A    between atoms: C_12  and  C_14
REMARK    6  A    between atoms: C_14  and  C_16
REMARK    7  A    between atoms: C_14  and  O_21
REMARK    8  A    between atoms: C_16  and  C_18
REMARK    9  A    between atoms: C_16  and  O_20
REMARK   10  A    between atoms: C_18  and  O_19
REMARK   11  A    between atoms: C_22  and  O_24
REMARK                            x       y       z     vdW  Elec       q    Type
REMARK                         _______ _______ _______ _____ _____    ______ ____
ROOT
ATOM      1  C   UNL     1       8.996   2.425  23.738  0.00  0.00    +0.160 C 
ATOM      2  C   UNL     1       9.981   1.223  23.697  0.00  0.00    +0.229 C 
ATOM      3  O   UNL     1      10.010   0.367  24.847  0.00  0.00    -0.477 OA
ATOM      4  C   UNL     1       8.862   0.237  25.592  0.00  0.00    +0.204 C 
ATOM      5  C   UNL     1       7.789   1.027  25.485  0.00  0.00    +0.071 C 
ATOM      6  C   UNL     1       7.701   2.185  24.558  0.00  0.00    +0.238 C 
ENDROOT
BRANCH   6   7
ATOM      7  N   UNL     1       6.584   1.958  23.635  0.00  0.00    -0.104 NA
ATOM      8  C   UNL     1       5.709   2.869  23.438  0.00  0.00    +0.377 C 
ATOM      9  N   UNL     1       4.659   2.626  22.622  0.00  0.00    -0.289 N 
ATOM     10  H   UNL     1       3.792   2.986  23.002  0.00  0.00    +0.255 HD
ATOM     11  H   UNL     1       4.582   1.627  22.456  0.00  0.00    +0.255 HD
ATOM     12  N   UNL     1       5.597   4.115  23.948  0.00  0.00    -0.289 N 
ATOM     13  H   UNL     1       5.275   4.793  23.269  0.00  0.00    +0.255 HD
ATOM     14  H   UNL     1       6.394   4.461  24.466  0.00  0.00    +0.255 HD
ENDBRANCH   6   7
BRANCH   1  17
ATOM     15  C   UNL     1      10.165   6.026  24.339  0.00  0.00    +0.109 C 
ATOM     16  C   UNL     1       9.296   4.934  23.778  0.00  0.00    +0.210 C 
ATOM     17  N   UNL     1       9.703   3.668  24.137  0.00  0.00    -0.305 N 
ATOM     18  H   UNL     1      10.479   3.577  24.780  0.00  0.00    +0.149 HD
ATOM     19  O   UNL     1       8.323   5.162  23.072  0.00  0.00    -0.276 OA
ENDBRANCH   1  17
BRANCH   4  20
ATOM     20  C   UNL     1       8.840  -0.827  26.648  0.00  0.00    +0.372 C 
ATOM     21  O   UNL     1       8.612  -2.012  26.463  0.00  0.00    -0.242 OA
BRANCH  20  22
ATOM     22  O   UNL     1       9.096  -0.296  27.865  0.00  0.00    -0.475 OA
ATOM     23  H   UNL     1       8.976  -0.981  28.555  0.00  0.00    +0.296 HD
ENDBRANCH  20  22
ENDBRANCH   4  20
BRANCH   2  24
ATOM     24  C   UNL     1       9.866   0.421  22.373  0.00  0.00    +0.187 C 
BRANCH  24  25
ATOM     25  O   UNL     1       8.834   0.929  21.526  0.00  0.00    -0.385 OA
ATOM     26  H   UNL     1       9.249   1.138  20.666  0.00  0.00    +0.210 HD
ENDBRANCH  24  25
BRANCH  24  27
ATOM     27  C   UNL     1       9.677  -1.099  22.558  0.00  0.00    +0.172 C 
BRANCH  27  28
ATOM     28  O   UNL     1      10.700  -1.769  21.779  0.00  0.00    -0.387 OA
ATOM     29  H   UNL     1      11.363  -1.101  21.529  0.00  0.00    +0.210 HD
ENDBRANCH  27  28
BRANCH  27  30
ATOM     30  C   UNL     1       8.335  -1.654  22.071  0.00  0.00    +0.189 C 
BRANCH  30  31
ATOM     31  O   UNL     1       7.278  -1.044  22.818  0.00  0.00    -0.392 OA
ATOM     32  H   UNL     1       7.458  -0.086  22.778  0.00  0.00    +0.210 HD
ENDBRANCH  30  31
ENDBRANCH  27  30
ENDBRANCH  24  27
ENDBRANCH   2  24
TORSDOF 10
ENDMDL
