MODEL 1
REMARK VINA RESULT:      -6.1      0.000      0.000
REMARK  Name = 
REMARK  5 active torsions:
REMARK  status: ('A' for Active; 'I' for Inactive)
REMARK    1  A    between atoms: C3*_2  and  O3*_19
REMARK    2  A    between atoms: C4*_3  and  C5*_17
REMARK    3  A    between atoms: C1*_5  and  N_6
REMARK    4  A    between atoms: C_8  and  C_14
REMARK    5  A    between atoms: C5*_17  and  O5*_18
REMARK                            x       y       z     vdW  Elec       q    Type
REMARK                         _______ _______ _______ _____ _____    ______ ____
ROOT
ATOM      1  N   UNL     1       8.122  -4.303  24.727  0.00  0.00    -0.273 N 
ATOM      2  C   UNL     1       8.950  -5.146  25.453  0.00  0.00    +0.331 A 
ATOM      3  O   UNL     1      10.121  -5.378  25.157  0.00  0.00    -0.246 OA
ATOM      4  N   UNL     1       8.399  -5.691  26.579  0.00  0.00    -0.274 N 
ATOM      5  H   UNL     1       9.015  -6.250  27.150  0.00  0.00    +0.173 HD
ATOM      6  C   UNL     1       7.227  -5.295  27.161  0.00  0.00    +0.261 A 
ATOM      7  O   UNL     1       6.941  -5.618  28.309  0.00  0.00    -0.267 OA
ATOM      8  C   UNL     1       6.339  -4.428  26.330  0.00  0.00    +0.056 A 
ATOM      9  C   UNL     1       6.847  -3.996  25.167  0.00  0.00    +0.106 A 
ENDROOT
BRANCH   1  11
ATOM     10  C2* UNL     1       9.562  -2.407  24.018  0.00  0.00    +0.088 C 
ATOM     11  C1* UNL     1       8.714  -3.604  23.590  0.00  0.00    +0.226 C 
ATOM     12  O4* UNL     1       7.699  -3.114  22.691  0.00  0.00    -0.348 OA
ATOM     13  C4* UNL     1       7.876  -1.690  22.507  0.00  0.00    +0.175 C 
ATOM     14  C3* UNL     1       9.315  -1.405  22.916  0.00  0.00    +0.150 C 
BRANCH  14  15
ATOM     15  O3* UNL     1      10.213  -1.652  21.834  0.00  0.00    -0.389 OA
ATOM     16  H3* UNL     1      11.071  -1.942  22.192  0.00  0.00    +0.210 HD
ENDBRANCH  14  15
BRANCH  13  17
ATOM     17  C5* UNL     1       6.865  -0.915  23.367  0.00  0.00    +0.190 C 
BRANCH  17  18
ATOM     18  O5* UNL     1       6.469   0.303  22.739  0.00  0.00    -0.392 OA
ATOM     19  H5* UNL     1       6.235   0.103  21.816  0.00  0.00    +0.210 HD
ENDBRANCH  17  18
ENDBRANCH  13  17
ENDBRANCH   1  11
BRANCH   8  20
ATOM     20  C   UNL     1       5.067  -3.975  26.868  0.00  0.00    +0.022 C 
ATOM     21  C   UNL     1       3.873  -4.540  26.651  0.00  0.00    +0.052 C 
ATOM     22 BR   UNL     1       2.279  -3.874  27.329  0.00  0.00    -0.059 Br
ENDBRANCH   8  20
TORSDOF 5
ENDMDL
MODEL 2
REMARK VINA RESULT:      -6.1      2.484      2.937
REMARK  Name = 
REMARK  5 active torsions:
REMARK  status: ('A' for Active; 'I' for Inactive)
REMARK    1  A    between atoms: C3*_2  and  O3*_19
REMARK    2  A    between atoms: C4*_3  and  C5*_17
REMARK    3  A    between atoms: C1*_5  and  N_6
REMARK    4  A    between atoms: C_8  and  C_14
REMARK    5  A    between atoms: C5*_17  and  O5*_18
REMARK                            x       y       z     vdW  Elec       q    Type
REMARK                         _______ _______ _______ _____ _____    ______ ____
ROOT
ATOM      1  N   UNL     1       6.738  -4.828  23.268  0.00  0.00    -0.273 N 
ATOM      2  C   UNL     1       6.156  -5.659  22.323  0.00  0.00    +0.331 A 
ATOM      3  O   UNL     1       6.521  -5.726  21.151  0.00  0.00    -0.246 OA
ATOM      4  N   UNL     1       5.150  -6.464  22.782  0.00  0.00    -0.274 N 
ATOM      5  H   UNL     1       4.767  -7.120  22.119  0.00  0.00    +0.173 HD
ATOM      6  C   UNL     1       4.850  -6.687  24.097  0.00  0.00    +0.261 A 
ATOM      7  O   UNL     1       4.141  -7.627  24.442  0.00  0.00    -0.267 OA
ATOM      8  C   UNL     1       5.457  -5.742  25.081  0.00  0.00    +0.056 A 
ATOM      9  C   UNL     1       6.357  -4.874  24.597  0.00  0.00    +0.106 A 
ENDROOT
BRANCH   1  11
ATOM     10  C2* UNL     1       8.765  -3.605  24.023  0.00  0.00    +0.088 C 
ATOM     11  C1* UNL     1       7.898  -4.048  22.845  0.00  0.00    +0.226 C 
ATOM     12  O4* UNL     1       7.498  -2.859  22.134  0.00  0.00    -0.348 OA
ATOM     13  C4* UNL     1       8.083  -1.703  22.776  0.00  0.00    +0.175 C 
ATOM     14  C3* UNL     1       9.250  -2.241  23.594  0.00  0.00    +0.150 C 
BRANCH  14  15
ATOM     15  O3* UNL     1      10.419  -2.380  22.787  0.00  0.00    -0.389 OA
ATOM     16  H3* UNL     1      10.152  -2.485  21.855  0.00  0.00    +0.210 HD
ENDBRANCH  14  15
BRANCH  13  17
ATOM     17  C5* UNL     1       7.036  -0.998  23.654  0.00  0.00    +0.190 C 
BRANCH  17  18
ATOM     18  O5* UNL     1       6.352   0.025  22.932  0.00  0.00    -0.392 OA
ATOM     19  H5* UNL     1       5.461   0.114  23.311  0.00  0.00    +0.210 HD
ENDBRANCH  17  18
ENDBRANCH  13  17
ENDBRANCH   1  11
BRANCH   8  20
ATOM     20  C   UNL     1       5.177  -5.900  26.499  0.00  0.00    +0.022 C 
ATOM     21  C   UNL     1       6.065  -5.793  27.495  0.00  0.00    +0.052 C 
ATOM     22 BR   UNL     1       5.646  -6.060  29.283  0.00  0.00    -0.059 Br
ENDBRANCH   8  20
TORSDOF 5
ENDMDL
MODEL 3
REMARK VINA RESULT:      -6.1      2.935      5.367
REMARK  Name = 
REMARK  5 active torsions:
REMARK  status: ('A' for Active; 'I' for Inactive)
REMARK    1  A    between atoms: C3*_2  and  O3*_19
REMARK    2  A    between atoms: C4*_3  and  C5*_17
REMARK    3  A    between atoms: C1*_5  and  N_6
REMARK    4  A    between atoms: C_8  and  C_14
REMARK    5  A    between atoms: C5*_17  and  O5*_18
REMARK                            x       y       z     vdW  Elec       q    Type
REMARK                         _______ _______ _______ _____ _____    ______ ____
ROOT
ATOM      1  N   UNL     1       9.167  -1.849  24.099  0.00  0.00    -0.273 N 
ATOM      2  C   UNL     1      10.121  -1.209  23.322  0.00  0.00    +0.331 A 
ATOM      3  O   UNL     1      10.698  -1.735  22.372  0.00  0.00    -0.246 OA
ATOM      4  N   UNL     1      10.366   0.098  23.644  0.00  0.00    -0.274 N 
ATOM      5  H   UNL     1      11.007   0.591  23.042  0.00  0.00    +0.173 HD
ATOM      6  C   UNL     1       9.601   0.867  24.474  0.00  0.00    +0.261 A 
ATOM      7  O   UNL     1       9.704   2.090  24.491  0.00  0.00    -0.267 OA
ATOM      8  C   UNL     1       8.618   0.137  25.331  0.00  0.00    +0.056 A 
ATOM      9  C   UNL     1       8.473  -1.173  25.086  0.00  0.00    +0.106 A 
ENDROOT
BRANCH   1  11
ATOM     10  C2* UNL     1       7.311  -3.495  23.969  0.00  0.00    +0.088 C 
ATOM     11  C1* UNL     1       8.787  -3.203  23.706  0.00  0.00    +0.226 C 
ATOM     12  O4* UNL     1       9.556  -4.191  24.421  0.00  0.00    -0.348 OA
ATOM     13  C4* UNL     1       8.653  -5.099  25.093  0.00  0.00    +0.175 C 
ATOM     14  C3* UNL     1       7.319  -4.949  24.373  0.00  0.00    +0.150 C 
BRANCH  14  15
ATOM     15  O3* UNL     1       7.272  -5.771  23.207  0.00  0.00    -0.389 OA
ATOM     16  H3* UNL     1       6.355  -5.807  22.878  0.00  0.00    +0.210 HD
ENDBRANCH  14  15
BRANCH  13  17
ATOM     17  C5* UNL     1       8.551  -4.739  26.584  0.00  0.00    +0.190 C 
BRANCH  17  18
ATOM     18  O5* UNL     1       8.015  -5.819  27.347  0.00  0.00    -0.392 OA
ATOM     19  H5* UNL     1       7.064  -5.881  27.151  0.00  0.00    +0.210 HD
ENDBRANCH  17  18
ENDBRANCH  13  17
ENDBRANCH   1  11
BRANCH   8  20
ATOM     20  C   UNL     1       7.775   0.880  26.254  0.00  0.00    +0.022 C 
ATOM     21  C   UNL     1       7.291   0.427  27.417  0.00  0.00    +0.052 C 
ATOM     22 BR   UNL     1       6.174   1.415  28.522  0.00  0.00    -0.059 Br
ENDBRANCH   8  20
TORSDOF 5
ENDMDL
MODEL 4
REMARK VINA RESULT:      -5.9      3.089      3.979
REMARK  Name = 
REMARK  5 active torsions:
REMARK  status: ('A' for Active; 'I' for Inactive)
REMARK    1  A    between atoms: C3*_2  and  O3*_19
REMARK    2  A    between atoms: C4*_3  and  C5*_17
REMARK    3  A    between atoms: C1*_5  and  N_6
REMARK    4  A    between atoms: C_8  and  C_14
REMARK    5  A    between atoms: C5*_17  and  O5*_18
REMARK                            x       y       z     vdW  Elec       q    Type
REMARK                         _______ _______ _______ _____ _____    ______ ____
ROOT
ATOM      1  N   UNL     1       9.148  -1.500  25.131  0.00  0.00    -0.273 N 
ATOM      2  C   UNL     1       8.631  -1.616  26.412  0.00  0.00    +0.331 A 
ATOM      3  O   UNL     1       8.721  -0.740  27.271  0.00  0.00    -0.246 OA
ATOM      4  N   UNL     1       7.951  -2.773  26.674  0.00  0.00    -0.274 N 
ATOM      5  H   UNL     1       7.513  -2.837  27.580  0.00  0.00    +0.173 HD
ATOM      6  C   UNL     1       7.541  -3.681  25.738  0.00  0.00    +0.261 A 
ATOM      7  O   UNL     1       6.698  -4.533  25.998  0.00  0.00    -0.267 OA
ATOM      8  C   UNL     1       8.156  -3.554  24.383  0.00  0.00    +0.056 A 
ATOM      9  C   UNL     1       8.922  -2.474  24.175  0.00  0.00    +0.106 A 
ENDROOT
BRANCH   1  11
ATOM     10  C2* UNL     1       8.742   0.876  24.532  0.00  0.00    +0.088 C 
ATOM     11  C1* UNL     1       9.770  -0.227  24.776  0.00  0.00    +0.226 C 
ATOM     12  O4* UNL     1      10.564  -0.349  23.579  0.00  0.00    -0.348 OA
ATOM     13  C4* UNL     1      10.116   0.629  22.611  0.00  0.00    +0.175 C 
ATOM     14  C3* UNL     1       9.365   1.681  23.417  0.00  0.00    +0.150 C 
BRANCH  14  15
ATOM     15  O3* UNL     1      10.267   2.643  23.967  0.00  0.00    -0.389 OA
ATOM     16  H3* UNL     1      10.402   2.449  24.912  0.00  0.00    +0.210 HD
ENDBRANCH  14  15
BRANCH  13  17
ATOM     17  C5* UNL     1       9.221  -0.041  21.557  0.00  0.00    +0.190 C 
BRANCH  17  18
ATOM     18  O5* UNL     1       9.773  -1.280  21.114  0.00  0.00    -0.392 OA
ATOM     19  H5* UNL     1       9.273  -1.567  20.330  0.00  0.00    +0.210 HD
ENDBRANCH  17  18
ENDBRANCH  13  17
ENDBRANCH   1  11
BRANCH   8  20
ATOM     20  C   UNL     1       7.787  -4.490  23.333  0.00  0.00    +0.022 C 
ATOM     21  C   UNL     1       6.791  -4.333  22.452  0.00  0.00    +0.052 C 
ATOM     22 BR   UNL     1       6.341  -5.597  21.170  0.00  0.00    -0.059 Br
ENDBRANCH   8  20
TORSDOF 5
ENDMDL
MODEL 5
REMARK VINA RESULT:      -5.7      3.209      5.220
REMARK  Name = 
REMARK  5 active torsions:
REMARK  status: ('A' for Active; 'I' for Inactive)
REMARK    1  A    between atoms: C3*_2  and  O3*_19
REMARK    2  A    between atoms: C4*_3  and  C5*_17
REMARK    3  A    between atoms: C1*_5  and  N_6
REMARK    4  A    between atoms: C_8  and  C_14
REMARK    5  A    between atoms: C5*_17  and  O5*_18
REMARK                            x       y       z     vdW  Elec       q    Type
REMARK                         _______ _______ _______ _____ _____    ______ ____
ROOT
ATOM      1  N   UNL     1       8.120  -3.041  23.565  0.00  0.00    -0.273 N 
ATOM      2  C   UNL     1       9.402  -2.925  24.082  0.00  0.00    +0.331 A 
ATOM      3  O   UNL     1      10.130  -3.884  24.333  0.00  0.00    -0.246 OA
ATOM      4  N   UNL     1       9.853  -1.647  24.264  0.00  0.00    -0.274 N 
ATOM      5  H   UNL     1      10.808  -1.552  24.574  0.00  0.00    +0.173 HD
ATOM      6  C   UNL     1       9.263  -0.519  23.766  0.00  0.00    +0.261 A 
ATOM      7  O   UNL     1       9.864   0.549  23.716  0.00  0.00    -0.267 OA
ATOM      8  C   UNL     1       7.865  -0.673  23.263  0.00  0.00    +0.056 A 
ATOM      9  C   UNL     1       7.388  -1.925  23.202  0.00  0.00    +0.106 A 
ENDROOT
BRANCH   1  11
ATOM     10  C2* UNL     1       6.761  -4.409  21.998  0.00  0.00    +0.088 C 
ATOM     11  C1* UNL     1       7.652  -4.386  23.239  0.00  0.00    +0.226 C 
ATOM     12  O4* UNL     1       6.894  -4.954  24.325  0.00  0.00    -0.348 OA
ATOM     13  C4* UNL     1       5.594  -5.357  23.836  0.00  0.00    +0.175 C 
ATOM     14  C3* UNL     1       5.750  -5.481  22.326  0.00  0.00    +0.150 C 
BRANCH  14  15
ATOM     15  O3* UNL     1       6.276  -6.760  21.970  0.00  0.00    -0.389 OA
ATOM     16  H3* UNL     1       5.864  -7.054  21.138  0.00  0.00    +0.210 HD
ENDBRANCH  14  15
BRANCH  13  17
ATOM     17  C5* UNL     1       4.534  -4.312  24.224  0.00  0.00    +0.190 C 
BRANCH  17  18
ATOM     18  O5* UNL     1       3.297  -4.548  23.554  0.00  0.00    -0.392 OA
ATOM     19  H5* UNL     1       3.441  -5.254  22.900  0.00  0.00    +0.210 HD
ENDBRANCH  17  18
ENDBRANCH  13  17
ENDBRANCH   1  11
BRANCH   8  20
ATOM     20  C   UNL     1       7.159   0.481  22.731  0.00  0.00    +0.022 C 
ATOM     21  C   UNL     1       6.560   1.438  23.449  0.00  0.00    +0.052 C 
ATOM     22 BR   UNL     1       5.629   2.859  22.700  0.00  0.00    -0.059 Br
ENDBRANCH   8  20
TORSDOF 5
ENDMDL
MODEL 6
REMARK VINA RESULT:      -5.7      6.128      8.473
REMARK  Name = 
REMARK  5 active torsions:
REMARK  status: ('A' for Active; 'I' for Inactive)
REMARK    1  A    between atoms: C3*_2  and  O3*_19
REMARK    2  A    between atoms: C4*_3  and  C5*_17
REMARK    3  A    between atoms: C1*_5  and  N_6
REMARK    4  A    between atoms: C_8  and  C_14
REMARK    5  A    between atoms: C5*_17  and  O5*_18
REMARK                            x       y       z     vdW  Elec       q    Type
REMARK                         _______ _______ _______ _____ _____    ______ ____
ROOT
ATOM      1  N   UNL     1       8.776   2.563  24.718  0.00  0.00    -0.273 N 
ATOM      2  C   UNL     1       7.894   3.185  25.588  0.00  0.00    +0.331 A 
ATOM      3  O   UNL     1       7.081   2.583  26.287  0.00  0.00    -0.246 OA
ATOM      4  N   UNL     1       8.004   4.545  25.670  0.00  0.00    -0.274 N 
ATOM      5  H   UNL     1       7.414   4.999  26.351  0.00  0.00    +0.173 HD
ATOM      6  C   UNL     1       9.037   5.289  25.172  0.00  0.00    +0.261 A 
ATOM      7  O   UNL     1       9.220   6.449  25.527  0.00  0.00    -0.267 OA
ATOM      8  C   UNL     1       9.937   4.599  24.201  0.00  0.00    +0.056 A 
ATOM      9  C   UNL     1       9.741   3.283  24.037  0.00  0.00    +0.106 A 
ENDROOT
BRANCH   1  11
ATOM     10  C2* UNL     1      10.185   0.517  24.673  0.00  0.00    +0.088 C 
ATOM     11  C1* UNL     1       8.774   1.102  24.698  0.00  0.00    +0.226 C 
ATOM     12  O4* UNL     1       8.077   0.596  23.542  0.00  0.00    -0.348 OA
ATOM     13  C4* UNL     1       8.954  -0.292  22.810  0.00  0.00    +0.175 C 
ATOM     14  C3* UNL     1      10.029  -0.709  23.806  0.00  0.00    +0.150 C 
BRANCH  14  15
ATOM     15  O3* UNL     1       9.588  -1.807  24.604  0.00  0.00    -0.389 OA
ATOM     16  H3* UNL     1       8.675  -2.036  24.353  0.00  0.00    +0.210 HD
ENDBRANCH  14  15
BRANCH  13  17
ATOM     17  C5* UNL     1       9.544   0.433  21.590  0.00  0.00    +0.190 C 
BRANCH  17  18
ATOM     18  O5* UNL     1       8.672   1.461  21.121  0.00  0.00    -0.392 OA
ATOM     19  H5* UNL     1       8.070   1.068  20.466  0.00  0.00    +0.210 HD
ENDBRANCH  17  18
ENDBRANCH  13  17
ENDBRANCH   1  11
BRANCH   8  20
ATOM     20  C   UNL     1      11.052   5.324  23.612  0.00  0.00    +0.022 C 
ATOM     21  C   UNL     1      12.072   4.784  22.933  0.00  0.00    +0.052 C 
ATOM     22 BR   UNL     1      13.492   5.767  22.253  0.00  0.00    -0.059 Br
ENDBRANCH   8  20
TORSDOF 5
ENDMDL
MODEL 7
REMARK VINA RESULT:      -5.7      2.417      3.277
REMARK  Name = 
REMARK  5 active torsions:
REMARK  status: ('A' for Active; 'I' for Inactive)
REMARK    1  A    between atoms: C3*_2  and  O3*_19
REMARK    2  A    between atoms: C4*_3  and  C5*_17
REMARK    3  A    between atoms: C1*_5  and  N_6
REMARK    4  A    between atoms: C_8  and  C_14
REMARK    5  A    between atoms: C5*_17  and  O5*_18
REMARK                            x       y       z     vdW  Elec       q    Type
REMARK                         _______ _______ _______ _____ _____    ______ ____
ROOT
ATOM      1  N   UNL     1       6.643  -5.339  25.633  0.00  0.00    -0.273 N 
ATOM      2  C   UNL     1       7.339  -5.442  26.828  0.00  0.00    +0.331 A 
ATOM      3  O   UNL     1       8.393  -4.853  27.061  0.00  0.00    -0.246 OA
ATOM      4  N   UNL     1       6.753  -6.220  27.788  0.00  0.00    -0.274 N 
ATOM      5  H   UNL     1       7.216  -6.245  28.683  0.00  0.00    +0.173 HD
ATOM      6  C   UNL     1       5.469  -6.686  27.757  0.00  0.00    +0.261 A 
ATOM      7  O   UNL     1       4.922  -7.123  28.765  0.00  0.00    -0.267 OA
ATOM      8  C   UNL     1       4.769  -6.603  26.440  0.00  0.00    +0.056 A 
ATOM      9  C   UNL     1       5.408  -5.939  25.467  0.00  0.00    +0.106 A 
ENDROOT
BRANCH   1  11
ATOM     10  C2* UNL     1       6.067  -3.700  23.857  0.00  0.00    +0.088 C 
ATOM     11  C1* UNL     1       7.172  -4.417  24.631  0.00  0.00    +0.226 C 
ATOM     12  O4* UNL     1       7.996  -5.106  23.669  0.00  0.00    -0.348 OA
ATOM     13  C4* UNL     1       7.492  -4.842  22.339  0.00  0.00    +0.175 C 
ATOM     14  C3* UNL     1       6.648  -3.581  22.468  0.00  0.00    +0.150 C 
BRANCH  14  15
ATOM     15  O3* UNL     1       7.462  -2.411  22.388  0.00  0.00    -0.389 OA
ATOM     16  H3* UNL     1       7.018  -1.681  22.858  0.00  0.00    +0.210 HD
ENDBRANCH  14  15
BRANCH  13  17
ATOM     17  C5* UNL     1       6.671  -6.040  21.836  0.00  0.00    +0.190 C 
BRANCH  17  18
ATOM     18  O5* UNL     1       5.880  -5.692  20.701  0.00  0.00    -0.392 OA
ATOM     19  H5* UNL     1       6.418  -5.838  19.904  0.00  0.00    +0.210 HD
ENDBRANCH  17  18
ENDBRANCH  13  17
ENDBRANCH   1  11
BRANCH   8  20
ATOM     20  C   UNL     1       3.405  -7.092  26.318  0.00  0.00    +0.022 C 
ATOM     21  C   UNL     1       2.417  -6.505  25.631  0.00  0.00    +0.052 C 
ATOM     22 BR   UNL     1       0.681  -7.159  25.561  0.00  0.00    -0.059 Br
ENDBRANCH   8  20
TORSDOF 5
ENDMDL
MODEL 8
REMARK VINA RESULT:      -5.7      5.063      7.617
REMARK  Name = 
REMARK  5 active torsions:
REMARK  status: ('A' for Active; 'I' for Inactive)
REMARK    1  A    between atoms: C3*_2  and  O3*_19
REMARK    2  A    between atoms: C4*_3  and  C5*_17
REMARK    3  A    between atoms: C1*_5  and  N_6
REMARK    4  A    between atoms: C_8  and  C_14
REMARK    5  A    between atoms: C5*_17  and  O5*_18
REMARK                            x       y       z     vdW  Elec       q    Type
REMARK                         _______ _______ _______ _____ _____    ______ ____
ROOT
ATOM      1  N   UNL     1       9.509   2.518  23.083  0.00  0.00    -0.273 N 
ATOM      2  C   UNL     1      10.365   3.571  23.365  0.00  0.00    +0.331 A 
ATOM      3  O   UNL     1      11.590   3.467  23.405  0.00  0.00    -0.246 OA
ATOM      4  N   UNL     1       9.767   4.785  23.558  0.00  0.00    -0.274 N 
ATOM      5  H   UNL     1      10.386   5.570  23.695  0.00  0.00    +0.173 HD
ATOM      6  C   UNL     1       8.467   5.085  23.262  0.00  0.00    +0.261 A 
ATOM      7  O   UNL     1       8.079   6.246  23.185  0.00  0.00    -0.267 OA
ATOM      8  C   UNL     1       7.563   3.922  23.012  0.00  0.00    +0.056 A 
ATOM      9  C   UNL     1       8.147   2.718  22.945  0.00  0.00    +0.106 A 
ENDROOT
BRANCH   1  11
ATOM     10  C2* UNL     1       9.146   0.294  22.037  0.00  0.00    +0.088 C 
ATOM     11  C1* UNL     1      10.118   1.234  22.746  0.00  0.00    +0.226 C 
ATOM     12  O4* UNL     1      10.592   0.555  23.926  0.00  0.00    -0.348 OA
ATOM     13  C4* UNL     1       9.998  -0.763  23.985  0.00  0.00    +0.175 C 
ATOM     14  C3* UNL     1       9.541  -1.064  22.563  0.00  0.00    +0.150 C 
BRANCH  14  15
ATOM     15  O3* UNL     1      10.615  -1.587  21.782  0.00  0.00    -0.389 OA
ATOM     16  H3* UNL     1      10.254  -2.189  21.106  0.00  0.00    +0.210 HD
ENDBRANCH  14  15
BRANCH  13  17
ATOM     17  C5* UNL     1       8.829  -0.773  24.983  0.00  0.00    +0.190 C 
BRANCH  17  18
ATOM     18  O5* UNL     1       8.979   0.243  25.974  0.00  0.00    -0.392 OA
ATOM     19  H5* UNL     1       9.931   0.405  26.095  0.00  0.00    +0.210 HD
ENDBRANCH  17  18
ENDBRANCH  13  17
ENDBRANCH   1  11
BRANCH   8  20
ATOM     20  C   UNL     1       6.160   4.153  22.706  0.00  0.00    +0.022 C 
ATOM     21  C   UNL     1       5.203   3.219  22.648  0.00  0.00    +0.052 C 
ATOM     22 BR   UNL     1       3.439   3.579  22.198  0.00  0.00    -0.059 Br
ENDBRANCH   8  20
TORSDOF 5
ENDMDL
MODEL 9
REMARK VINA RESULT:      -5.7      2.699      3.878
REMARK  Name = 
REMARK  5 active torsions:
REMARK  status: ('A' for Active; 'I' for Inactive)
REMARK    1  A    between atoms: C3*_2  and  O3*_19
REMARK    2  A    between atoms: C4*_3  and  C5*_17
REMARK    3  A    between atoms: C1*_5  and  N_6
REMARK    4  A    between atoms: C_8  and  C_14
REMARK    5  A    between atoms: C5*_17  and  O5*_18
REMARK                            x       y       z     vdW  Elec       q    Type
REMARK                         _______ _______ _______ _____ _____    ______ ____
ROOT
ATOM      1  N   UNL     1       6.415  -5.111  23.716  0.00  0.00    -0.273 N 
ATOM      2  C   UNL     1       6.014  -5.922  22.665  0.00  0.00    +0.331 A 
ATOM      3  O   UNL     1       6.765  -6.689  22.065  0.00  0.00    -0.246 OA
ATOM      4  N   UNL     1       4.686  -5.861  22.345  0.00  0.00    -0.274 N 
ATOM      5  H   UNL     1       4.372  -6.498  21.629  0.00  0.00    +0.173 HD
ATOM      6  C   UNL     1       3.712  -5.277  23.106  0.00  0.00    +0.261 A 
ATOM      7  O   UNL     1       2.523  -5.508  22.912  0.00  0.00    -0.267 OA
ATOM      8  C   UNL     1       4.183  -4.372  24.197  0.00  0.00    +0.056 A 
ATOM      9  C   UNL     1       5.504  -4.348  24.423  0.00  0.00    +0.106 A 
ENDROOT
BRANCH   1  11
ATOM     10  C2* UNL     1       7.915  -5.246  25.692  0.00  0.00    +0.088 C 
ATOM     11  C1* UNL     1       7.798  -5.242  24.169  0.00  0.00    +0.226 C 
ATOM     12  O4* UNL     1       8.615  -4.162  23.676  0.00  0.00    -0.348 OA
ATOM     13  C4* UNL     1       9.258  -3.506  24.794  0.00  0.00    +0.175 C 
ATOM     14  C3* UNL     1       9.213  -4.514  25.935  0.00  0.00    +0.150 C 
BRANCH  14  15
ATOM     15  O3* UNL     1      10.303  -5.432  25.850  0.00  0.00    -0.389 OA
ATOM     16  H3* UNL     1      10.424  -5.697  24.920  0.00  0.00    +0.210 HD
ENDBRANCH  14  15
BRANCH  13  17
ATOM     17  C5* UNL     1       8.519  -2.204  25.141  0.00  0.00    +0.190 C 
BRANCH  17  18
ATOM     18  O5* UNL     1       8.646  -1.884  26.526  0.00  0.00    -0.392 OA
ATOM     19  H5* UNL     1       7.930  -2.337  27.005  0.00  0.00    +0.210 HD
ENDBRANCH  17  18
ENDBRANCH  13  17
ENDBRANCH   1  11
BRANCH   8  20
ATOM     20  C   UNL     1       3.211  -3.699  25.043  0.00  0.00    +0.022 C 
ATOM     21  C   UNL     1       3.212  -3.678  26.382  0.00  0.00    +0.052 C 
ATOM     22 BR   UNL     1       1.906  -2.840  27.401  0.00  0.00    -0.059 Br
ENDBRANCH   8  20
TORSDOF 5
ENDMDL
