MODEL 1
REMARK VINA RESULT:      -7.2      0.000      0.000
REMARK  Name = 
REMARK  27 active torsions:
REMARK  status: ('A' for Active; 'I' for Inactive)
REMARK    1  A    between atoms: C_1  and  C_2
REMARK    2  A    between atoms: C_2  and  C_3
REMARK    3  A    between atoms: C_2  and  C_4
REMARK    4  A    between atoms: C_2  and  C_5
REMARK    5  A    between atoms: C_5  and  C_7
REMARK    6  A    between atoms: C_5  and  N_49
REMARK    7  A    between atoms: N_9  and  N_10
REMARK    8  A    between atoms: N_10  and  C_11
REMARK    9  A    between atoms: N_10  and  C_24
REMARK   10  A    between atoms: C_11  and  C_12
REMARK   11  A    between atoms: C_15  and  C_18
REMARK   12  A    between atoms: C_24  and  C_25
REMARK   13  A    between atoms: C_25  and  C_26
REMARK   14  A    between atoms: C_25  and  O_48
REMARK   15  A    between atoms: C_26  and  C_28
REMARK   16  A    between atoms: C_26  and  N_35
REMARK   17  A    between atoms: C_28  and  C_29
REMARK   18  A    between atoms: C_36  and  C_38
REMARK   19  A    between atoms: C_38  and  C_39
REMARK   20  A    between atoms: C_38  and  N_43
REMARK   21  A    between atoms: C_39  and  C_40
REMARK   22  A    between atoms: C_39  and  C_41
REMARK   23  A    between atoms: C_39  and  C_42
REMARK   24  A    between atoms: C_44  and  O_46
REMARK   25  A    between atoms: O_46  and  C_47
REMARK   26  A    between atoms: C_50  and  O_52
REMARK   27  A    between atoms: O_52  and  C_53
REMARK                            x       y       z     vdW  Elec       q    Type
REMARK                         _______ _______ _______ _____ _____    ______ ____
ROOT
ATOM      1  N   UNL     1       8.436  -2.045  24.358  0.00  0.00    -0.220 NA
ENDROOT
BRANCH   1   3
ATOM      2  C   UNL     1       7.678  -4.412  24.121  0.00  0.00    +0.248 C 
ATOM      3  N   UNL     1       7.405  -3.048  24.271  0.00  0.00    -0.246 N 
ATOM      4  H   UNL     1       6.439  -2.736  24.245  0.00  0.00    +0.169 HD
ATOM      5  O   UNL     1       8.798  -4.912  23.995  0.00  0.00    -0.272 OA
BRANCH   2   6
ATOM      6  C   UNL     1       6.401  -5.296  24.201  0.00  0.00    +0.169 C 
BRANCH   6   7
ATOM      7  N   UNL     1       5.548  -4.813  25.289  0.00  0.00    -0.269 N 
ATOM      8  H   UNL     1       5.410  -3.816  25.389  0.00  0.00    +0.153 HD
ATOM      9  C   UNL     1       5.333  -5.507  26.440  0.00  0.00    +0.401 C 
ATOM     10  O   UNL     1       5.706  -6.644  26.667  0.00  0.00    -0.226 OA
BRANCH   9  11
ATOM     11  O   UNL     1       4.641  -4.712  27.299  0.00  0.00    -0.454 OA
ATOM     12  C   UNL     1       4.125  -3.502  26.737  0.00  0.00    +0.282 C 
ENDBRANCH   9  11
ENDBRANCH   6   7
BRANCH   6  14
ATOM     13  C   UNL     1       6.463  -6.061  21.756  0.00  0.00    +0.013 C 
ATOM     14  C   UNL     1       5.647  -5.308  22.827  0.00  0.00    -0.011 C 
ATOM     15  C   UNL     1       4.297  -6.038  22.978  0.00  0.00    +0.013 C 
ATOM     16  C   UNL     1       5.374  -3.881  22.305  0.00  0.00    +0.013 C 
ENDBRANCH   6  14
ENDBRANCH   2   6
ENDBRANCH   1   3
BRANCH   1  17
ATOM     17  C   UNL     1       9.039  -1.745  23.033  0.00  0.00    +0.140 C 
BRANCH  17  18
ATOM     18  C   UNL     1       9.719  -0.392  22.954  0.00  0.00    -0.032 A 
ATOM     19  C   UNL     1       9.395   0.532  21.951  0.00  0.00    +0.005 A 
ATOM     20  C   UNL     1       9.806   1.867  22.056  0.00  0.00    +0.010 A 
ATOM     21  C   UNL     1      10.544   2.304  23.168  0.00  0.00    +0.000 A 
ATOM     22  C   UNL     1      10.972   1.333  24.088  0.00  0.00    +0.010 A 
ATOM     23  C   UNL     1      10.588   0.002  23.970  0.00  0.00    +0.005 A 
BRANCH  21  24
ATOM     24  C   UNL     1      10.786   3.729  23.452  0.00  0.00    +0.071 A 
ATOM     25  N   UNL     1      12.089   4.110  23.340  0.00  0.00    -0.255 NA
ATOM     26  C   UNL     1      12.411   5.379  23.662  0.00  0.00    +0.111 A 
ATOM     27  C   UNL     1      11.490   6.315  24.088  0.00  0.00    +0.020 A 
ATOM     28  C   UNL     1      10.159   5.929  24.178  0.00  0.00    +0.004 A 
ATOM     29  C   UNL     1       9.797   4.620  23.857  0.00  0.00    +0.028 A 
ENDBRANCH  21  24
ENDBRANCH  17  18
ENDBRANCH   1  17
BRANCH   1  30
ATOM     30  C   UNL     1       7.912  -0.855  25.098  0.00  0.00    +0.139 C 
BRANCH  30  31
ATOM     31  C   UNL     1       6.642  -0.093  24.587  0.00  0.00    +0.151 C 
BRANCH  31  32
ATOM     32  O   UNL     1       6.240  -0.664  23.332  0.00  0.00    -0.389 OA
ATOM     33  H   UNL     1       6.184   0.061  22.674  0.00  0.00    +0.210 HD
ENDBRANCH  31  32
BRANCH  31  34
ATOM     34  C   UNL     1       6.907   1.463  24.441  0.00  0.00    +0.107 C 
BRANCH  34  35
ATOM     35  N   UNL     1       5.656   2.244  24.271  0.00  0.00    -0.308 N 
ATOM     36  H   UNL     1       4.892   2.123  24.936  0.00  0.00    +0.149 HD
ATOM     37  C   UNL     1       5.414   3.002  23.141  0.00  0.00    +0.234 C 
ATOM     38  O   UNL     1       6.182   2.951  22.184  0.00  0.00    -0.274 OA
BRANCH  37  39
ATOM     39  C   UNL     1       4.094   3.826  23.149  0.00  0.00    +0.167 C 
BRANCH  39  40
ATOM     40  N   UNL     1       3.574   3.871  21.786  0.00  0.00    -0.269 N 
ATOM     41  H   UNL     1       4.142   4.237  21.035  0.00  0.00    +0.153 HD
ATOM     42  C   UNL     1       2.423   3.271  21.397  0.00  0.00    +0.401 C 
ATOM     43  O   UNL     1       1.699   2.605  22.121  0.00  0.00    -0.226 OA
BRANCH  42  44
ATOM     44  O   UNL     1       2.214   3.544  20.088  0.00  0.00    -0.454 OA
ATOM     45  C   UNL     1       1.642   4.825  19.822  0.00  0.00    +0.282 C 
ENDBRANCH  42  44
ENDBRANCH  39  40
BRANCH  39  46
ATOM     46  C   UNL     1       4.218   5.267  23.759  0.00  0.00    -0.011 C 
ATOM     47  C   UNL     1       5.679   5.754  23.671  0.00  0.00    +0.013 C 
ATOM     48  C   UNL     1       3.837   5.232  25.261  0.00  0.00    +0.013 C 
ATOM     49  C   UNL     1       3.304   6.307  23.080  0.00  0.00    +0.013 C 
ENDBRANCH  39  46
ENDBRANCH  37  39
ENDBRANCH  34  35
BRANCH  34  50
ATOM     50  C   UNL     1       7.743   2.040  25.620  0.00  0.00    +0.060 C 
BRANCH  50  51
ATOM     51  C   UNL     1       7.092   3.072  26.531  0.00  0.00    -0.046 A 
ATOM     52  C   UNL     1       7.426   4.432  26.527  0.00  0.00    +0.004 A 
ATOM     53  C   UNL     1       6.821   5.325  27.422  0.00  0.00    +0.000 A 
ATOM     54  C   UNL     1       5.887   4.869  28.348  0.00  0.00    +0.000 A 
ATOM     55  C   UNL     1       5.569   3.516  28.394  0.00  0.00    +0.000 A 
ATOM     56  C   UNL     1       6.171   2.625  27.498  0.00  0.00    +0.004 A 
ENDBRANCH  50  51
ENDBRANCH  34  50
ENDBRANCH  31  34
ENDBRANCH  30  31
ENDBRANCH   1  30
TORSDOF 19
ENDMDL
MODEL 2
REMARK VINA RESULT:      -7.2      2.418      4.210
REMARK  Name = 
REMARK  27 active torsions:
REMARK  status: ('A' for Active; 'I' for Inactive)
REMARK    1  A    between atoms: C_1  and  C_2
REMARK    2  A    between atoms: C_2  and  C_3
REMARK    3  A    between atoms: C_2  and  C_4
REMARK    4  A    between atoms: C_2  and  C_5
REMARK    5  A    between atoms: C_5  and  C_7
REMARK    6  A    between atoms: C_5  and  N_49
REMARK    7  A    between atoms: N_9  and  N_10
REMARK    8  A    between atoms: N_10  and  C_11
REMARK    9  A    between atoms: N_10  and  C_24
REMARK   10  A    between atoms: C_11  and  C_12
REMARK   11  A    between atoms: C_15  and  C_18
REMARK   12  A    between atoms: C_24  and  C_25
REMARK   13  A    between atoms: C_25  and  C_26
REMARK   14  A    between atoms: C_25  and  O_48
REMARK   15  A    between atoms: C_26  and  C_28
REMARK   16  A    between atoms: C_26  and  N_35
REMARK   17  A    between atoms: C_28  and  C_29
REMARK   18  A    between atoms: C_36  and  C_38
REMARK   19  A    between atoms: C_38  and  C_39
REMARK   20  A    between atoms: C_38  and  N_43
REMARK   21  A    between atoms: C_39  and  C_40
REMARK   22  A    between atoms: C_39  and  C_41
REMARK   23  A    between atoms: C_39  and  C_42
REMARK   24  A    between atoms: C_44  and  O_46
REMARK   25  A    between atoms: O_46  and  C_47
REMARK   26  A    between atoms: C_50  and  O_52
REMARK   27  A    between atoms: O_52  and  C_53
REMARK                            x       y       z     vdW  Elec       q    Type
REMARK                         _______ _______ _______ _____ _____    ______ ____
ROOT
ATOM      1  N   UNL     1       9.269  -2.386  24.549  0.00  0.00    -0.220 NA
ENDROOT
BRANCH   1   3
ATOM      2  C   UNL     1       8.128  -4.587  24.255  0.00  0.00    +0.248 C 
ATOM      3  N   UNL     1       8.092  -3.191  24.342  0.00  0.00    -0.246 N 
ATOM      4  H   UNL     1       7.211  -2.712  24.181  0.00  0.00    +0.169 HD
ATOM      5  O   UNL     1       9.143  -5.284  24.289  0.00  0.00    -0.272 OA
BRANCH   2   6
ATOM      6  C   UNL     1       6.711  -5.223  24.178  0.00  0.00    +0.169 C 
BRANCH   6   7
ATOM      7  N   UNL     1       5.899  -4.730  25.293  0.00  0.00    -0.269 N 
ATOM      8  H   UNL     1       5.661  -3.747  25.320  0.00  0.00    +0.153 HD
ATOM      9  C   UNL     1       5.855  -5.331  26.513  0.00  0.00    +0.401 C 
ATOM     10  O   UNL     1       6.367  -6.397  26.802  0.00  0.00    -0.226 OA
BRANCH   9  11
ATOM     11  O   UNL     1       5.151  -4.534  27.360  0.00  0.00    -0.454 OA
ATOM     12  C   UNL     1       5.223  -4.892  28.744  0.00  0.00    +0.282 C 
ENDBRANCH   9  11
ENDBRANCH   6   7
BRANCH   6  14
ATOM     13  C   UNL     1       5.690  -3.430  22.659  0.00  0.00    +0.013 C 
ATOM     14  C   UNL     1       6.043  -4.926  22.792  0.00  0.00    -0.011 C 
ATOM     15  C   UNL     1       7.024  -5.273  21.653  0.00  0.00    +0.013 C 
ATOM     16  C   UNL     1       4.749  -5.744  22.586  0.00  0.00    +0.013 C 
ENDBRANCH   6  14
ENDBRANCH   2   6
ENDBRANCH   1   3
BRANCH   1  17
ATOM     17  C   UNL     1       9.913  -1.995  23.268  0.00  0.00    +0.140 C 
BRANCH  17  18
ATOM     18  C   UNL     1       9.855  -0.509  22.973  0.00  0.00    -0.032 A 
ATOM     19  C   UNL     1       9.024   0.007  21.969  0.00  0.00    +0.005 A 
ATOM     20  C   UNL     1       8.760   1.380  21.902  0.00  0.00    +0.010 A 
ATOM     21  C   UNL     1       9.317   2.264  22.840  0.00  0.00    +0.000 A 
ATOM     22  C   UNL     1      10.253   1.743  23.748  0.00  0.00    +0.010 A 
ATOM     23  C   UNL     1      10.537   0.383  23.799  0.00  0.00    +0.005 A 
BRANCH  21  24
ATOM     24  C   UNL     1       8.883   3.666  22.970  0.00  0.00    +0.071 A 
ATOM     25  N   UNL     1       7.773   3.979  22.245  0.00  0.00    -0.255 NA
ATOM     26  C   UNL     1       7.355   5.261  22.243  0.00  0.00    +0.111 A 
ATOM     27  C   UNL     1       7.985   6.269  22.943  0.00  0.00    +0.020 A 
ATOM     28  C   UNL     1       9.103   5.941  23.700  0.00  0.00    +0.004 A 
ATOM     29  C   UNL     1       9.562   4.624  23.716  0.00  0.00    +0.028 A 
ENDBRANCH  21  24
ENDBRANCH  17  18
ENDBRANCH   1  17
BRANCH   1  30
ATOM     30  C   UNL     1       8.941  -1.249  25.464  0.00  0.00    +0.139 C 
BRANCH  30  31
ATOM     31  C   UNL     1       7.683  -1.313  26.397  0.00  0.00    +0.151 C 
BRANCH  31  32
ATOM     32  O   UNL     1       7.615  -2.621  26.984  0.00  0.00    -0.389 OA
ATOM     33  H   UNL     1       6.844  -2.640  27.590  0.00  0.00    +0.210 HD
ENDBRANCH  31  32
BRANCH  31  34
ATOM     34  C   UNL     1       6.349  -0.974  25.612  0.00  0.00    +0.107 C 
BRANCH  34  35
ATOM     35  N   UNL     1       5.233  -0.594  26.514  0.00  0.00    -0.308 N 
ATOM     36  H   UNL     1       5.412   0.030  27.300  0.00  0.00    +0.149 HD
ATOM     37  C   UNL     1       3.991  -1.195  26.436  0.00  0.00    +0.234 C 
ATOM     38  O   UNL     1       3.813  -2.155  25.692  0.00  0.00    -0.274 OA
BRANCH  37  39
ATOM     39  C   UNL     1       2.904  -0.630  27.396  0.00  0.00    +0.167 C 
BRANCH  39  40
ATOM     40  N   UNL     1       3.238   0.757  27.699  0.00  0.00    -0.269 N 
ATOM     41  H   UNL     1       3.982   0.973  28.348  0.00  0.00    +0.153 HD
ATOM     42  C   UNL     1       2.741   1.820  27.021  0.00  0.00    +0.401 C 
ATOM     43  O   UNL     1       1.982   1.750  26.066  0.00  0.00    -0.226 OA
BRANCH  42  44
ATOM     44  O   UNL     1       3.217   2.953  27.584  0.00  0.00    -0.454 OA
ATOM     45  C   UNL     1       4.216   2.757  28.586  0.00  0.00    +0.282 C 
ENDBRANCH  42  44
ENDBRANCH  39  40
BRANCH  39  46
ATOM     46  C   UNL     1       2.682  -1.464  28.707  0.00  0.00    -0.011 C 
ATOM     47  C   UNL     1       2.115  -2.855  28.358  0.00  0.00    +0.013 C 
ATOM     48  C   UNL     1       1.637  -0.755  29.605  0.00  0.00    +0.013 C 
ATOM     49  C   UNL     1       3.961  -1.644  29.550  0.00  0.00    +0.013 C 
ENDBRANCH  39  46
ENDBRANCH  37  39
ENDBRANCH  34  35
BRANCH  34  50
ATOM     50  C   UNL     1       6.556   0.120  24.525  0.00  0.00    +0.060 C 
BRANCH  50  51
ATOM     51  C   UNL     1       6.456   1.582  24.942  0.00  0.00    -0.046 A 
ATOM     52  C   UNL     1       7.296   2.177  25.893  0.00  0.00    +0.004 A 
ATOM     53  C   UNL     1       7.124   3.517  26.266  0.00  0.00    +0.000 A 
ATOM     54  C   UNL     1       6.098   4.277  25.711  0.00  0.00    +0.000 A 
ATOM     55  C   UNL     1       5.230   3.694  24.794  0.00  0.00    +0.000 A 
ATOM     56  C   UNL     1       5.403   2.357  24.419  0.00  0.00    +0.004 A 
ENDBRANCH  50  51
ENDBRANCH  34  50
ENDBRANCH  31  34
ENDBRANCH  30  31
ENDBRANCH   1  30
TORSDOF 19
ENDMDL
MODEL 3
REMARK VINA RESULT:      -7.1      2.113      6.308
REMARK  Name = 
REMARK  27 active torsions:
REMARK  status: ('A' for Active; 'I' for Inactive)
REMARK    1  A    between atoms: C_1  and  C_2
REMARK    2  A    between atoms: C_2  and  C_3
REMARK    3  A    between atoms: C_2  and  C_4
REMARK    4  A    between atoms: C_2  and  C_5
REMARK    5  A    between atoms: C_5  and  C_7
REMARK    6  A    between atoms: C_5  and  N_49
REMARK    7  A    between atoms: N_9  and  N_10
REMARK    8  A    between atoms: N_10  and  C_11
REMARK    9  A    between atoms: N_10  and  C_24
REMARK   10  A    between atoms: C_11  and  C_12
REMARK   11  A    between atoms: C_15  and  C_18
REMARK   12  A    between atoms: C_24  and  C_25
REMARK   13  A    between atoms: C_25  and  C_26
REMARK   14  A    between atoms: C_25  and  O_48
REMARK   15  A    between atoms: C_26  and  C_28
REMARK   16  A    between atoms: C_26  and  N_35
REMARK   17  A    between atoms: C_28  and  C_29
REMARK   18  A    between atoms: C_36  and  C_38
REMARK   19  A    between atoms: C_38  and  C_39
REMARK   20  A    between atoms: C_38  and  N_43
REMARK   21  A    between atoms: C_39  and  C_40
REMARK   22  A    between atoms: C_39  and  C_41
REMARK   23  A    between atoms: C_39  and  C_42
REMARK   24  A    between atoms: C_44  and  O_46
REMARK   25  A    between atoms: O_46  and  C_47
REMARK   26  A    between atoms: C_50  and  O_52
REMARK   27  A    between atoms: O_52  and  C_53
REMARK                            x       y       z     vdW  Elec       q    Type
REMARK                         _______ _______ _______ _____ _____    ______ ____
ROOT
ATOM      1  N   UNL     1       8.409  -1.908  23.763  0.00  0.00    -0.220 NA
ENDROOT
BRANCH   1   3
ATOM      2  C   UNL     1       7.638  -2.721  25.994  0.00  0.00    +0.248 C 
ATOM      3  N   UNL     1       7.372  -2.231  24.711  0.00  0.00    -0.246 N 
ATOM      4  H   UNL     1       6.407  -2.165  24.401  0.00  0.00    +0.169 HD
ATOM      5  O   UNL     1       8.753  -2.984  26.448  0.00  0.00    -0.272 OA
BRANCH   2   6
ATOM      6  C   UNL     1       6.358  -2.849  26.868  0.00  0.00    +0.169 C 
BRANCH   6   7
ATOM      7  N   UNL     1       5.336  -1.928  26.365  0.00  0.00    -0.269 N 
ATOM      8  H   UNL     1       5.132  -1.927  25.374  0.00  0.00    +0.153 HD
ATOM      9  C   UNL     1       5.001  -0.765  26.987  0.00  0.00    +0.401 C 
ATOM     10  O   UNL     1       5.398  -0.401  28.079  0.00  0.00    -0.226 OA
BRANCH   9  11
ATOM     11  O   UNL     1       4.154  -0.073  26.180  0.00  0.00    -0.454 OA
ATOM     12  C   UNL     1       3.895   1.278  26.574  0.00  0.00    +0.282 C 
ENDBRANCH   9  11
ENDBRANCH   6   7
BRANCH   6  14
ATOM     13  C   UNL     1       5.908  -4.910  28.322  0.00  0.00    +0.013 C 
ATOM     14  C   UNL     1       5.848  -4.331  26.894  0.00  0.00    -0.011 C 
ATOM     15  C   UNL     1       4.377  -4.386  26.434  0.00  0.00    +0.013 C 
ATOM     16  C   UNL     1       6.682  -5.245  25.970  0.00  0.00    +0.013 C 
ENDBRANCH   6  14
ENDBRANCH   2   6
ENDBRANCH   1   3
BRANCH   1  17
ATOM     17  C   UNL     1       8.377  -2.798  22.574  0.00  0.00    +0.140 C 
BRANCH  17  18
ATOM     18  C   UNL     1       7.125  -3.649  22.469  0.00  0.00    -0.032 A 
ATOM     19  C   UNL     1       7.195  -5.044  22.356  0.00  0.00    +0.005 A 
ATOM     20  C   UNL     1       6.053  -5.830  22.552  0.00  0.00    +0.010 A 
ATOM     21  C   UNL     1       4.821  -5.237  22.872  0.00  0.00    +0.000 A 
ATOM     22  C   UNL     1       4.746  -3.835  22.843  0.00  0.00    +0.010 A 
ATOM     23  C   UNL     1       5.874  -3.053  22.621  0.00  0.00    +0.005 A 
BRANCH  21  24
ATOM     24  C   UNL     1       3.657  -6.016  23.329  0.00  0.00    +0.071 A 
ATOM     25  N   UNL     1       2.456  -5.532  22.906  0.00  0.00    -0.255 NA
ATOM     26  C   UNL     1       1.335  -6.138  23.347  0.00  0.00    +0.111 A 
ATOM     27  C   UNL     1       1.339  -7.228  24.193  0.00  0.00    +0.020 A 
ATOM     28  C   UNL     1       2.567  -7.733  24.603  0.00  0.00    +0.004 A 
ATOM     29  C   UNL     1       3.744  -7.122  24.168  0.00  0.00    +0.028 A 
ENDBRANCH  21  24
ENDBRANCH  17  18
ENDBRANCH   1  17
BRANCH   1  30
ATOM     30  C   UNL     1       8.367  -0.444  23.459  0.00  0.00    +0.139 C 
BRANCH  30  31
ATOM     31  C   UNL     1       7.368   0.500  24.211  0.00  0.00    +0.151 C 
BRANCH  31  32
ATOM     32  O   UNL     1       6.030   0.144  23.832  0.00  0.00    -0.389 OA
ATOM     33  H   UNL     1       5.684  -0.486  24.498  0.00  0.00    +0.210 HD
ENDBRANCH  31  32
BRANCH  31  34
ATOM     34  C   UNL     1       7.656   2.028  23.905  0.00  0.00    +0.107 C 
BRANCH  34  35
ATOM     35  N   UNL     1       6.422   2.853  23.893  0.00  0.00    -0.308 N 
ATOM     36  H   UNL     1       5.808   2.851  24.708  0.00  0.00    +0.149 HD
ATOM     37  C   UNL     1       5.976   3.487  22.749  0.00  0.00    +0.234 C 
ATOM     38  O   UNL     1       6.529   3.284  21.672  0.00  0.00    -0.274 OA
BRANCH  37  39
ATOM     39  C   UNL     1       4.712   4.379  22.919  0.00  0.00    +0.167 C 
BRANCH  39  40
ATOM     40  N   UNL     1       3.813   4.117  21.800  0.00  0.00    -0.269 N 
ATOM     41  H   UNL     1       4.090   4.353  20.857  0.00  0.00    +0.153 HD
ATOM     42  C   UNL     1       2.675   3.389  21.899  0.00  0.00    +0.401 C 
ATOM     43  O   UNL     1       2.276   2.845  22.918  0.00  0.00    -0.226 OA
BRANCH  42  44
ATOM     44  O   UNL     1       2.062   3.379  20.694  0.00  0.00    -0.454 OA
ATOM     45  C   UNL     1       1.207   2.259  20.459  0.00  0.00    +0.282 C 
ENDBRANCH  42  44
ENDBRANCH  39  40
BRANCH  39  46
ATOM     46  C   UNL     1       5.001   5.914  23.071  0.00  0.00    -0.011 C 
ATOM     47  C   UNL     1       3.974   6.728  22.257  0.00  0.00    +0.013 C 
ATOM     48  C   UNL     1       6.403   6.241  22.498  0.00  0.00    +0.013 C 
ATOM     49  C   UNL     1       4.979   6.406  24.533  0.00  0.00    +0.013 C 
ENDBRANCH  39  46
ENDBRANCH  37  39
ENDBRANCH  34  35
BRANCH  34  50
ATOM     50  C   UNL     1       8.703   2.645  24.877  0.00  0.00    +0.060 C 
BRANCH  50  51
ATOM     51  C   UNL     1       8.934   4.150  24.831  0.00  0.00    -0.046 A 
ATOM     52  C   UNL     1       8.329   5.055  25.713  0.00  0.00    +0.004 A 
ATOM     53  C   UNL     1       8.548   6.433  25.590  0.00  0.00    +0.000 A 
ATOM     54  C   UNL     1       9.358   6.931  24.573  0.00  0.00    +0.000 A 
ATOM     55  C   UNL     1       9.938   6.052  23.665  0.00  0.00    +0.000 A 
ATOM     56  C   UNL     1       9.722   4.675  23.789  0.00  0.00    +0.004 A 
ENDBRANCH  50  51
ENDBRANCH  34  50
ENDBRANCH  31  34
ENDBRANCH  30  31
ENDBRANCH   1  30
TORSDOF 19
ENDMDL
MODEL 4
REMARK VINA RESULT:      -6.8      2.476      8.034
REMARK  Name = 
REMARK  27 active torsions:
REMARK  status: ('A' for Active; 'I' for Inactive)
REMARK    1  A    between atoms: C_1  and  C_2
REMARK    2  A    between atoms: C_2  and  C_3
REMARK    3  A    between atoms: C_2  and  C_4
REMARK    4  A    between atoms: C_2  and  C_5
REMARK    5  A    between atoms: C_5  and  C_7
REMARK    6  A    between atoms: C_5  and  N_49
REMARK    7  A    between atoms: N_9  and  N_10
REMARK    8  A    between atoms: N_10  and  C_11
REMARK    9  A    between atoms: N_10  and  C_24
REMARK   10  A    between atoms: C_11  and  C_12
REMARK   11  A    between atoms: C_15  and  C_18
REMARK   12  A    between atoms: C_24  and  C_25
REMARK   13  A    between atoms: C_25  and  C_26
REMARK   14  A    between atoms: C_25  and  O_48
REMARK   15  A    between atoms: C_26  and  C_28
REMARK   16  A    between atoms: C_26  and  N_35
REMARK   17  A    between atoms: C_28  and  C_29
REMARK   18  A    between atoms: C_36  and  C_38
REMARK   19  A    between atoms: C_38  and  C_39
REMARK   20  A    between atoms: C_38  and  N_43
REMARK   21  A    between atoms: C_39  and  C_40
REMARK   22  A    between atoms: C_39  and  C_41
REMARK   23  A    between atoms: C_39  and  C_42
REMARK   24  A    between atoms: C_44  and  O_46
REMARK   25  A    between atoms: O_46  and  C_47
REMARK   26  A    between atoms: C_50  and  O_52
REMARK   27  A    between atoms: O_52  and  C_53
REMARK                            x       y       z     vdW  Elec       q    Type
REMARK                         _______ _______ _______ _____ _____    ______ ____
ROOT
ATOM      1  N   UNL     1       8.876   0.740  24.353  0.00  0.00    -0.220 NA
ENDROOT
BRANCH   1   3
ATOM      2  C   UNL     1       9.482   3.030  23.565  0.00  0.00    +0.248 C 
ATOM      3  N   UNL     1       9.624   1.967  24.464  0.00  0.00    -0.246 N 
ATOM      4  H   UNL     1      10.337   2.026  25.185  0.00  0.00    +0.169 HD
ATOM      5  O   UNL     1       8.762   3.037  22.566  0.00  0.00    -0.272 OA
BRANCH   2   6
ATOM      6  C   UNL     1      10.291   4.289  23.988  0.00  0.00    +0.169 C 
BRANCH   6   7
ATOM      7  N   UNL     1      11.155   4.702  22.880  0.00  0.00    -0.269 N 
ATOM      8  H   UNL     1      10.972   4.327  21.958  0.00  0.00    +0.153 HD
ATOM      9  C   UNL     1      12.438   5.127  23.045  0.00  0.00    +0.401 C 
ATOM     10  O   UNL     1      12.987   5.337  24.111  0.00  0.00    -0.226 OA
BRANCH   9  11
ATOM     11  O   UNL     1      13.007   5.267  21.818  0.00  0.00    -0.454 OA
ATOM     12  C   UNL     1      13.896   6.379  21.676  0.00  0.00    +0.282 C 
ENDBRANCH   9  11
ENDBRANCH   6   7
BRANCH   6  14
ATOM     13  C   UNL     1       8.151   4.884  25.265  0.00  0.00    +0.013 C 
ATOM     14  C   UNL     1       9.331   5.441  24.441  0.00  0.00    -0.011 C 
ATOM     15  C   UNL     1      10.094   6.436  25.339  0.00  0.00    +0.013 C 
ATOM     16  C   UNL     1       8.751   6.217  23.238  0.00  0.00    +0.013 C 
ENDBRANCH   6  14
ENDBRANCH   2   6
ENDBRANCH   1   3
BRANCH   1  17
ATOM     17  C   UNL     1       9.693  -0.367  23.791  0.00  0.00    +0.140 C 
BRANCH  17  18
ATOM     18  C   UNL     1       8.914  -1.642  23.530  0.00  0.00    -0.032 A 
ATOM     19  C   UNL     1       9.121  -2.796  24.298  0.00  0.00    +0.005 A 
ATOM     20  C   UNL     1       8.209  -3.857  24.245  0.00  0.00    +0.010 A 
ATOM     21  C   UNL     1       7.069  -3.782  23.428  0.00  0.00    +0.000 A 
ATOM     22  C   UNL     1       6.957  -2.678  22.567  0.00  0.00    +0.010 A 
ATOM     23  C   UNL     1       7.877  -1.636  22.599  0.00  0.00    +0.005 A 
BRANCH  21  24
ATOM     24  C   UNL     1       5.960  -4.747  23.519  0.00  0.00    +0.071 A 
ATOM     25  N   UNL     1       4.863  -4.413  22.783  0.00  0.00    -0.255 NA
ATOM     26  C   UNL     1       3.773  -5.200  22.873  0.00  0.00    +0.111 A 
ATOM     27  C   UNL     1       3.711  -6.331  23.661  0.00  0.00    +0.020 A 
ATOM     28  C   UNL     1       4.840  -6.681  24.392  0.00  0.00    +0.004 A 
ATOM     29  C   UNL     1       5.981  -5.882  24.323  0.00  0.00    +0.028 A 
ENDBRANCH  21  24
ENDBRANCH  17  18
ENDBRANCH   1  17
BRANCH   1  30
ATOM     30  C   UNL     1       8.219   0.438  25.664  0.00  0.00    +0.139 C 
BRANCH  30  31
ATOM     31  C   UNL     1       7.089   1.368  26.224  0.00  0.00    +0.151 C 
BRANCH  31  32
ATOM     32  O   UNL     1       7.392   1.683  27.591  0.00  0.00    -0.389 OA
ATOM     33  H   UNL     1       7.899   2.522  27.603  0.00  0.00    +0.210 HD
ENDBRANCH  31  32
BRANCH  31  34
ATOM     34  C   UNL     1       5.659   0.697  26.101  0.00  0.00    +0.107 C 
BRANCH  34  35
ATOM     35  N   UNL     1       4.627   1.635  25.591  0.00  0.00    -0.308 N 
ATOM     36  H   UNL     1       3.713   1.672  26.043  0.00  0.00    +0.149 HD
ATOM     37  C   UNL     1       4.793   2.336  24.412  0.00  0.00    +0.234 C 
ATOM     38  O   UNL     1       5.756   2.108  23.686  0.00  0.00    -0.274 OA
BRANCH  37  39
ATOM     39  C   UNL     1       3.659   3.339  24.055  0.00  0.00    +0.167 C 
BRANCH  39  40
ATOM     40  N   UNL     1       3.334   3.179  22.642  0.00  0.00    -0.269 N 
ATOM     41  H   UNL     1       4.069   3.136  21.951  0.00  0.00    +0.153 HD
ATOM     42  C   UNL     1       2.093   2.886  22.180  0.00  0.00    +0.401 C 
ATOM     43  O   UNL     1       1.110   2.697  22.880  0.00  0.00    -0.226 OA
BRANCH  42  44
ATOM     44  O   UNL     1       2.133   2.852  20.828  0.00  0.00    -0.454 OA
ATOM     45  C   UNL     1       1.643   4.026  20.179  0.00  0.00    +0.282 C 
ENDBRANCH  42  44
ENDBRANCH  39  40
BRANCH  39  46
ATOM     46  C   UNL     1       3.967   4.838  24.403  0.00  0.00    -0.011 C 
ATOM     47  C   UNL     1       4.579   4.937  25.815  0.00  0.00    +0.013 C 
ATOM     48  C   UNL     1       2.649   5.653  24.417  0.00  0.00    +0.013 C 
ATOM     49  C   UNL     1       4.917   5.523  23.399  0.00  0.00    +0.013 C 
ENDBRANCH  39  46
ENDBRANCH  37  39
ENDBRANCH  34  35
BRANCH  34  50
ATOM     50  C   UNL     1       5.678  -0.598  25.237  0.00  0.00    +0.060 C 
BRANCH  50  51
ATOM     51  C   UNL     1       5.251  -1.907  25.888  0.00  0.00    -0.046 A 
ATOM     52  C   UNL     1       3.989  -2.489  25.704  0.00  0.00    +0.004 A 
ATOM     53  C   UNL     1       3.641  -3.674  26.366  0.00  0.00    +0.000 A 
ATOM     54  C   UNL     1       4.539  -4.285  27.237  0.00  0.00    +0.000 A 
ATOM     55  C   UNL     1       5.782  -3.702  27.462  0.00  0.00    +0.000 A 
ATOM     56  C   UNL     1       6.131  -2.521  26.799  0.00  0.00    +0.004 A 
ENDBRANCH  50  51
ENDBRANCH  34  50
ENDBRANCH  31  34
ENDBRANCH  30  31
ENDBRANCH   1  30
TORSDOF 19
ENDMDL
MODEL 5
REMARK VINA RESULT:      -6.7      2.090      4.047
REMARK  Name = 
REMARK  27 active torsions:
REMARK  status: ('A' for Active; 'I' for Inactive)
REMARK    1  A    between atoms: C_1  and  C_2
REMARK    2  A    between atoms: C_2  and  C_3
REMARK    3  A    between atoms: C_2  and  C_4
REMARK    4  A    between atoms: C_2  and  C_5
REMARK    5  A    between atoms: C_5  and  C_7
REMARK    6  A    between atoms: C_5  and  N_49
REMARK    7  A    between atoms: N_9  and  N_10
REMARK    8  A    between atoms: N_10  and  C_11
REMARK    9  A    between atoms: N_10  and  C_24
REMARK   10  A    between atoms: C_11  and  C_12
REMARK   11  A    between atoms: C_15  and  C_18
REMARK   12  A    between atoms: C_24  and  C_25
REMARK   13  A    between atoms: C_25  and  C_26
REMARK   14  A    between atoms: C_25  and  O_48
REMARK   15  A    between atoms: C_26  and  C_28
REMARK   16  A    between atoms: C_26  and  N_35
REMARK   17  A    between atoms: C_28  and  C_29
REMARK   18  A    between atoms: C_36  and  C_38
REMARK   19  A    between atoms: C_38  and  C_39
REMARK   20  A    between atoms: C_38  and  N_43
REMARK   21  A    between atoms: C_39  and  C_40
REMARK   22  A    between atoms: C_39  and  C_41
REMARK   23  A    between atoms: C_39  and  C_42
REMARK   24  A    between atoms: C_44  and  O_46
REMARK   25  A    between atoms: O_46  and  C_47
REMARK   26  A    between atoms: C_50  and  O_52
REMARK   27  A    between atoms: O_52  and  C_53
REMARK                            x       y       z     vdW  Elec       q    Type
REMARK                         _______ _______ _______ _____ _____    ______ ____
ROOT
ATOM      1  N   UNL     1       7.654  -1.433  23.768  0.00  0.00    -0.220 NA
ENDROOT
BRANCH   1   3
ATOM      2  C   UNL     1       7.774  -3.851  24.378  0.00  0.00    +0.248 C 
ATOM      3  N   UNL     1       7.076  -2.749  23.873  0.00  0.00    -0.246 N 
ATOM      4  H   UNL     1       6.144  -2.891  23.494  0.00  0.00    +0.169 HD
ATOM      5  O   UNL     1       8.953  -3.852  24.739  0.00  0.00    -0.272 OA
BRANCH   2   6
ATOM      6  C   UNL     1       6.882  -5.116  24.522  0.00  0.00    +0.169 C 
BRANCH   6   7
ATOM      7  N   UNL     1       6.021  -4.968  25.697  0.00  0.00    -0.269 N 
ATOM      8  H   UNL     1       5.277  -4.283  25.668  0.00  0.00    +0.153 HD
ATOM      9  C   UNL     1       6.412  -5.288  26.961  0.00  0.00    +0.401 C 
ATOM     10  O   UNL     1       7.453  -5.842  27.266  0.00  0.00    -0.226 OA
BRANCH   9  11
ATOM     11  O   UNL     1       5.449  -4.875  27.827  0.00  0.00    -0.454 OA
ATOM     12  C   UNL     1       5.513  -5.450  29.136  0.00  0.00    +0.282 C 
ENDBRANCH   9  11
ENDBRANCH   6   7
BRANCH   6  14
ATOM     13  C   UNL     1       5.102  -6.566  23.385  0.00  0.00    +0.013 C 
ATOM     14  C   UNL     1       6.052  -5.363  23.216  0.00  0.00    -0.011 C 
ATOM     15  C   UNL     1       5.183  -4.126  22.907  0.00  0.00    +0.013 C 
ATOM     16  C   UNL     1       6.960  -5.637  21.997  0.00  0.00    +0.013 C 
ENDBRANCH   6  14
ENDBRANCH   2   6
ENDBRANCH   1   3
BRANCH   1  17
ATOM     17  C   UNL     1       8.718  -1.370  22.733  0.00  0.00    +0.140 C 
BRANCH  17  18
ATOM     18  C   UNL     1       9.555  -0.106  22.780  0.00  0.00    -0.032 A 
ATOM     19  C   UNL     1       9.520   0.835  21.743  0.00  0.00    +0.005 A 
ATOM     20  C   UNL     1      10.060   2.115  21.925  0.00  0.00    +0.010 A 
ATOM     21  C   UNL     1      10.641   2.479  23.151  0.00  0.00    +0.000 A 
ATOM     22  C   UNL     1      10.787   1.477  24.125  0.00  0.00    +0.010 A 
ATOM     23  C   UNL     1      10.276   0.199  23.934  0.00  0.00    +0.005 A 
BRANCH  21  24
ATOM     24  C   UNL     1      10.996   3.870  23.482  0.00  0.00    +0.071 A 
ATOM     25  N   UNL     1      12.299   4.188  23.248  0.00  0.00    -0.255 NA
ATOM     26  C   UNL     1      12.728   5.417  23.599  0.00  0.00    +0.111 A 
ATOM     27  C   UNL     1      11.914   6.373  24.173  0.00  0.00    +0.020 A 
ATOM     28  C   UNL     1      10.580   6.052  24.389  0.00  0.00    +0.004 A 
ATOM     29  C   UNL     1      10.110   4.786  24.041  0.00  0.00    +0.028 A 
ENDBRANCH  21  24
ENDBRANCH  17  18
ENDBRANCH   1  17
BRANCH   1  30
ATOM     30  C   UNL     1       6.563  -0.421  23.615  0.00  0.00    +0.139 C 
BRANCH  30  31
ATOM     31  C   UNL     1       5.994   0.335  24.864  0.00  0.00    +0.151 C 
BRANCH  31  32
ATOM     32  O   UNL     1       4.906  -0.431  25.405  0.00  0.00    -0.389 OA
ATOM     33  H   UNL     1       5.281  -1.098  26.018  0.00  0.00    +0.210 HD
ENDBRANCH  31  32
BRANCH  31  34
ATOM     34  C   UNL     1       5.526   1.805  24.502  0.00  0.00    +0.107 C 
BRANCH  34  35
ATOM     35  N   UNL     1       5.706   2.758  25.626  0.00  0.00    -0.308 N 
ATOM     36  H   UNL     1       4.923   3.341  25.922  0.00  0.00    +0.149 HD
ATOM     37  C   UNL     1       6.948   3.016  26.175  0.00  0.00    +0.234 C 
ATOM     38  O   UNL     1       7.961   2.551  25.662  0.00  0.00    -0.274 OA
BRANCH  37  39
ATOM     39  C   UNL     1       6.960   3.977  27.399  0.00  0.00    +0.167 C 
BRANCH  39  40
ATOM     40  N   UNL     1       6.133   3.393  28.448  0.00  0.00    -0.269 N 
ATOM     41  H   UNL     1       5.140   3.271  28.307  0.00  0.00    +0.153 HD
ATOM     42  C   UNL     1       6.630   2.808  29.565  0.00  0.00    +0.401 C 
ATOM     43  O   UNL     1       7.818   2.675  29.819  0.00  0.00    -0.226 OA
BRANCH  42  44
ATOM     44  O   UNL     1       5.596   2.413  30.343  0.00  0.00    -0.454 OA
ATOM     45  C   UNL     1       4.897   1.258  29.879  0.00  0.00    +0.282 C 
ENDBRANCH  42  44
ENDBRANCH  39  40
BRANCH  39  46
ATOM     46  C   UNL     1       6.527   5.452  27.086  0.00  0.00    -0.011 C 
ATOM     47  C   UNL     1       6.922   6.378  28.255  0.00  0.00    +0.013 C 
ATOM     48  C   UNL     1       4.986   5.526  26.945  0.00  0.00    +0.013 C 
ATOM     49  C   UNL     1       7.132   6.012  25.782  0.00  0.00    +0.013 C 
ENDBRANCH  39  46
ENDBRANCH  37  39
ENDBRANCH  34  35
BRANCH  34  50
ATOM     50  C   UNL     1       6.217   2.353  23.220  0.00  0.00    +0.060 C 
BRANCH  50  51
ATOM     51  C   UNL     1       6.111   3.843  22.922  0.00  0.00    -0.046 A 
ATOM     52  C   UNL     1       4.935   4.586  23.088  0.00  0.00    +0.004 A 
ATOM     53  C   UNL     1       4.891   5.946  22.754  0.00  0.00    +0.000 A 
ATOM     54  C   UNL     1       6.015   6.580  22.230  0.00  0.00    +0.000 A 
ATOM     55  C   UNL     1       7.180   5.851  22.022  0.00  0.00    +0.000 A 
ATOM     56  C   UNL     1       7.226   4.493  22.358  0.00  0.00    +0.004 A 
ENDBRANCH  50  51
ENDBRANCH  34  50
ENDBRANCH  31  34
ENDBRANCH  30  31
ENDBRANCH   1  30
TORSDOF 19
ENDMDL
MODEL 6
REMARK VINA RESULT:      -6.6      2.410      8.521
REMARK  Name = 
REMARK  27 active torsions:
REMARK  status: ('A' for Active; 'I' for Inactive)
REMARK    1  A    between atoms: C_1  and  C_2
REMARK    2  A    between atoms: C_2  and  C_3
REMARK    3  A    between atoms: C_2  and  C_4
REMARK    4  A    between atoms: C_2  and  C_5
REMARK    5  A    between atoms: C_5  and  C_7
REMARK    6  A    between atoms: C_5  and  N_49
REMARK    7  A    between atoms: N_9  and  N_10
REMARK    8  A    between atoms: N_10  and  C_11
REMARK    9  A    between atoms: N_10  and  C_24
REMARK   10  A    between atoms: C_11  and  C_12
REMARK   11  A    between atoms: C_15  and  C_18
REMARK   12  A    between atoms: C_24  and  C_25
REMARK   13  A    between atoms: C_25  and  C_26
REMARK   14  A    between atoms: C_25  and  O_48
REMARK   15  A    between atoms: C_26  and  C_28
REMARK   16  A    between atoms: C_26  and  N_35
REMARK   17  A    between atoms: C_28  and  C_29
REMARK   18  A    between atoms: C_36  and  C_38
REMARK   19  A    between atoms: C_38  and  C_39
REMARK   20  A    between atoms: C_38  and  N_43
REMARK   21  A    between atoms: C_39  and  C_40
REMARK   22  A    between atoms: C_39  and  C_41
REMARK   23  A    between atoms: C_39  and  C_42
REMARK   24  A    between atoms: C_44  and  O_46
REMARK   25  A    between atoms: O_46  and  C_47
REMARK   26  A    between atoms: C_50  and  O_52
REMARK   27  A    between atoms: O_52  and  C_53
REMARK                            x       y       z     vdW  Elec       q    Type
REMARK                         _______ _______ _______ _____ _____    ______ ____
ROOT
ATOM      1  N   UNL     1       7.956  -1.453  24.276  0.00  0.00    -0.220 NA
ENDROOT
BRANCH   1   3
ATOM      2  C   UNL     1       8.341   0.979  24.688  0.00  0.00    +0.248 C 
ATOM      3  N   UNL     1       8.217  -0.111  23.820  0.00  0.00    -0.246 N 
ATOM      4  H   UNL     1       8.240   0.055  22.818  0.00  0.00    +0.169 HD
ATOM      5  O   UNL     1       8.194   0.945  25.912  0.00  0.00    -0.272 OA
BRANCH   2   6
ATOM      6  C   UNL     1       8.767   2.285  23.960  0.00  0.00    +0.169 C 
BRANCH   6   7
ATOM      7  N   UNL     1       8.675   3.410  24.894  0.00  0.00    -0.269 N 
ATOM      8  H   UNL     1       8.773   3.225  25.884  0.00  0.00    +0.153 HD
ATOM      9  C   UNL     1       7.997   4.558  24.623  0.00  0.00    +0.401 C 
ATOM     10  O   UNL     1       7.495   4.854  23.554  0.00  0.00    -0.226 OA
BRANCH   9  11
ATOM     11  O   UNL     1       7.965   5.316  25.751  0.00  0.00    -0.454 OA
ATOM     12  C   UNL     1       9.044   6.245  25.898  0.00  0.00    +0.282 C 
ENDBRANCH   9  11
ENDBRANCH   6   7
BRANCH   6  14
ATOM     13  C   UNL     1      10.958   3.488  23.398  0.00  0.00    +0.013 C 
ATOM     14  C   UNL     1      10.206   2.141  23.358  0.00  0.00    -0.011 C 
ATOM     15  C   UNL     1      11.023   1.130  24.189  0.00  0.00    +0.013 C 
ATOM     16  C   UNL     1      10.174   1.654  21.893  0.00  0.00    +0.013 C 
ENDBRANCH   6  14
ENDBRANCH   2   6
ENDBRANCH   1   3
BRANCH   1  17
ATOM     17  C   UNL     1       8.272  -2.469  23.239  0.00  0.00    +0.140 C 
BRANCH  17  18
ATOM     18  C   UNL     1       7.163  -3.474  22.995  0.00  0.00    -0.032 A 
ATOM     19  C   UNL     1       7.311  -4.826  23.332  0.00  0.00    +0.005 A 
ATOM     20  C   UNL     1       6.197  -5.674  23.375  0.00  0.00    +0.010 A 
ATOM     21  C   UNL     1       4.913  -5.184  23.088  0.00  0.00    +0.000 A 
ATOM     22  C   UNL     1       4.809  -3.864  22.619  0.00  0.00    +0.010 A 
ATOM     23  C   UNL     1       5.919  -3.029  22.550  0.00  0.00    +0.005 A 
BRANCH  21  24
ATOM     24  C   UNL     1       3.688  -5.957  23.356  0.00  0.00    +0.071 A 
ATOM     25  N   UNL     1       2.548  -5.391  22.869  0.00  0.00    -0.255 NA
ATOM     26  C   UNL     1       1.373  -5.991  23.141  0.00  0.00    +0.111 A 
ATOM     27  C   UNL     1       1.263  -7.155  23.876  0.00  0.00    +0.020 A 
ATOM     28  C   UNL     1       2.429  -7.742  24.350  0.00  0.00    +0.004 A 
ATOM     29  C   UNL     1       3.660  -7.139  24.089  0.00  0.00    +0.028 A 
ENDBRANCH  21  24
ENDBRANCH  17  18
ENDBRANCH   1  17
BRANCH   1  30
ATOM     30  C   UNL     1       8.624  -1.669  25.597  0.00  0.00    +0.139 C 
BRANCH  30  31
ATOM     31  C   UNL     1       7.958  -2.574  26.690  0.00  0.00    +0.151 C 
BRANCH  31  32
ATOM     32  O   UNL     1       8.069  -3.945  26.278  0.00  0.00    -0.389 OA
ATOM     33  H   UNL     1       7.194  -4.369  26.403  0.00  0.00    +0.210 HD
ENDBRANCH  31  32
BRANCH  31  34
ATOM     34  C   UNL     1       6.445  -2.179  26.942  0.00  0.00    +0.107 C 
BRANCH  34  35
ATOM     35  N   UNL     1       6.245  -0.711  27.047  0.00  0.00    -0.308 N 
ATOM     36  H   UNL     1       6.906  -0.079  26.595  0.00  0.00    +0.149 HD
ATOM     37  C   UNL     1       5.295  -0.160  27.886  0.00  0.00    +0.234 C 
ATOM     38  O   UNL     1       4.668  -0.873  28.665  0.00  0.00    -0.274 OA
BRANCH  37  39
ATOM     39  C   UNL     1       5.153   1.388  27.824  0.00  0.00    +0.167 C 
BRANCH  39  40
ATOM     40  N   UNL     1       5.479   1.823  26.471  0.00  0.00    -0.269 N 
ATOM     41  H   UNL     1       6.437   1.820  26.150  0.00  0.00    +0.153 HD
ATOM     42  C   UNL     1       4.553   2.065  25.511  0.00  0.00    +0.401 C 
ATOM     43  O   UNL     1       3.347   1.925  25.648  0.00  0.00    -0.226 OA
BRANCH  42  44
ATOM     44  O   UNL     1       5.187   2.491  24.395  0.00  0.00    -0.454 OA
ATOM     45  C   UNL     1       4.342   3.080  23.406  0.00  0.00    +0.282 C 
ENDBRANCH  42  44
ENDBRANCH  39  40
BRANCH  39  46
ATOM     46  C   UNL     1       5.993   2.173  28.893  0.00  0.00    -0.011 C 
ATOM     47  C   UNL     1       5.061   2.733  29.988  0.00  0.00    +0.013 C 
ATOM     48  C   UNL     1       6.691   3.383  28.223  0.00  0.00    +0.013 C 
ATOM     49  C   UNL     1       7.093   1.323  29.562  0.00  0.00    +0.013 C 
ENDBRANCH  39  46
ENDBRANCH  37  39
ENDBRANCH  34  35
BRANCH  34  50
ATOM     50  C   UNL     1       5.486  -2.774  25.870  0.00  0.00    +0.060 C 
BRANCH  50  51
ATOM     51  C   UNL     1       4.335  -3.655  26.338  0.00  0.00    -0.046 A 
ATOM     52  C   UNL     1       4.510  -4.836  27.072  0.00  0.00    +0.004 A 
ATOM     53  C   UNL     1       3.412  -5.626  27.435  0.00  0.00    +0.000 A 
ATOM     54  C   UNL     1       2.123  -5.260  27.055  0.00  0.00    +0.000 A 
ATOM     55  C   UNL     1       1.932  -4.111  26.295  0.00  0.00    +0.000 A 
ATOM     56  C   UNL     1       3.029  -3.320  25.934  0.00  0.00    +0.004 A 
ENDBRANCH  50  51
ENDBRANCH  34  50
ENDBRANCH  31  34
ENDBRANCH  30  31
ENDBRANCH   1  30
TORSDOF 19
ENDMDL
MODEL 7
REMARK VINA RESULT:      -6.6      2.520      8.977
REMARK  Name = 
REMARK  27 active torsions:
REMARK  status: ('A' for Active; 'I' for Inactive)
REMARK    1  A    between atoms: C_1  and  C_2
REMARK    2  A    between atoms: C_2  and  C_3
REMARK    3  A    between atoms: C_2  and  C_4
REMARK    4  A    between atoms: C_2  and  C_5
REMARK    5  A    between atoms: C_5  and  C_7
REMARK    6  A    between atoms: C_5  and  N_49
REMARK    7  A    between atoms: N_9  and  N_10
REMARK    8  A    between atoms: N_10  and  C_11
REMARK    9  A    between atoms: N_10  and  C_24
REMARK   10  A    between atoms: C_11  and  C_12
REMARK   11  A    between atoms: C_15  and  C_18
REMARK   12  A    between atoms: C_24  and  C_25
REMARK   13  A    between atoms: C_25  and  C_26
REMARK   14  A    between atoms: C_25  and  O_48
REMARK   15  A    between atoms: C_26  and  C_28
REMARK   16  A    between atoms: C_26  and  N_35
REMARK   17  A    between atoms: C_28  and  C_29
REMARK   18  A    between atoms: C_36  and  C_38
REMARK   19  A    between atoms: C_38  and  C_39
REMARK   20  A    between atoms: C_38  and  N_43
REMARK   21  A    between atoms: C_39  and  C_40
REMARK   22  A    between atoms: C_39  and  C_41
REMARK   23  A    between atoms: C_39  and  C_42
REMARK   24  A    between atoms: C_44  and  O_46
REMARK   25  A    between atoms: O_46  and  C_47
REMARK   26  A    between atoms: C_50  and  O_52
REMARK   27  A    between atoms: O_52  and  C_53
REMARK                            x       y       z     vdW  Elec       q    Type
REMARK                         _______ _______ _______ _____ _____    ______ ____
ROOT
ATOM      1  N   UNL     1       9.214   0.947  24.628  0.00  0.00    -0.220 NA
ENDROOT
BRANCH   1   3
ATOM      2  C   UNL     1       9.466   3.269  23.745  0.00  0.00    +0.248 C 
ATOM      3  N   UNL     1       9.795   2.265  24.663  0.00  0.00    -0.246 N 
ATOM      4  H   UNL     1      10.530   2.444  25.341  0.00  0.00    +0.169 HD
ATOM      5  O   UNL     1       8.700   3.145  22.787  0.00  0.00    -0.272 OA
BRANCH   2   6
ATOM      6  C   UNL     1      10.119   4.638  24.087  0.00  0.00    +0.169 C 
BRANCH   6   7
ATOM      7  N   UNL     1      10.992   5.044  22.983  0.00  0.00    -0.269 N 
ATOM      8  H   UNL     1      10.795   4.692  22.056  0.00  0.00    +0.153 HD
ATOM      9  C   UNL     1      12.287   5.428  23.152  0.00  0.00    +0.401 C 
ATOM     10  O   UNL     1      12.845   5.603  24.220  0.00  0.00    -0.226 OA
BRANCH   9  11
ATOM     11  O   UNL     1      12.857   5.574  21.926  0.00  0.00    -0.454 OA
ATOM     12  C   UNL     1      13.973   6.467  21.869  0.00  0.00    +0.282 C 
ENDBRANCH   9  11
ENDBRANCH   6   7
BRANCH   6  14
ATOM     13  C   UNL     1       7.846   5.098  25.176  0.00  0.00    +0.013 C 
ATOM     14  C   UNL     1       9.023   5.715  24.393  0.00  0.00    -0.011 C 
ATOM     15  C   UNL     1       9.623   6.836  25.267  0.00  0.00    +0.013 C 
ATOM     16  C   UNL     1       8.461   6.351  23.104  0.00  0.00    +0.013 C 
ENDBRANCH   6  14
ENDBRANCH   2   6
ENDBRANCH   1   3
BRANCH   1  17
ATOM     17  C   UNL     1      10.196  -0.088  24.213  0.00  0.00    +0.140 C 
BRANCH  17  18
ATOM     18  C   UNL     1       9.566  -1.373  23.711  0.00  0.00    -0.032 A 
ATOM     19  C   UNL     1       9.579  -2.545  24.480  0.00  0.00    +0.005 A 
ATOM     20  C   UNL     1       8.756  -3.626  24.142  0.00  0.00    +0.010 A 
ATOM     21  C   UNL     1       7.899  -3.554  23.031  0.00  0.00    +0.000 A 
ATOM     22  C   UNL     1       8.005  -2.427  22.199  0.00  0.00    +0.010 A 
ATOM     23  C   UNL     1       8.843  -1.365  22.519  0.00  0.00    +0.005 A 
BRANCH  21  24
ATOM     24  C   UNL     1       6.842  -4.547  22.776  0.00  0.00    +0.071 A 
ATOM     25  N   UNL     1       5.592  -4.144  23.138  0.00  0.00    -0.255 NA
ATOM     26  C   UNL     1       4.579  -5.024  23.014  0.00  0.00    +0.111 A 
ATOM     27  C   UNL     1       4.737  -6.306  22.528  0.00  0.00    +0.020 A 
ATOM     28  C   UNL     1       6.009  -6.705  22.137  0.00  0.00    +0.004 A 
ATOM     29  C   UNL     1       7.078  -5.818  22.261  0.00  0.00    +0.028 A 
ENDBRANCH  21  24
ENDBRANCH  17  18
ENDBRANCH   1  17
BRANCH   1  30
ATOM     30  C   UNL     1       8.519   0.676  25.926  0.00  0.00    +0.139 C 
BRANCH  30  31
ATOM     31  C   UNL     1       7.271   1.520  26.355  0.00  0.00    +0.151 C 
BRANCH  31  32
ATOM     32  O   UNL     1       7.337   1.745  27.772  0.00  0.00    -0.389 OA
ATOM     33  H   UNL     1       6.899   2.601  27.963  0.00  0.00    +0.210 HD
ENDBRANCH  31  32
BRANCH  31  34
ATOM     34  C   UNL     1       5.912   0.808  25.958  0.00  0.00    +0.107 C 
BRANCH  34  35
ATOM     35  N   UNL     1       5.630  -0.392  26.787  0.00  0.00    -0.308 N 
ATOM     36  H   UNL     1       5.736  -0.340  27.800  0.00  0.00    +0.149 HD
ATOM     37  C   UNL     1       5.401  -1.633  26.223  0.00  0.00    +0.234 C 
ATOM     38  O   UNL     1       5.546  -1.802  25.016  0.00  0.00    -0.274 OA
BRANCH  37  39
ATOM     39  C   UNL     1       5.040  -2.772  27.220  0.00  0.00    +0.167 C 
BRANCH  39  40
ATOM     40  N   UNL     1       5.269  -4.051  26.556  0.00  0.00    -0.269 N 
ATOM     41  H   UNL     1       4.673  -4.344  25.793  0.00  0.00    +0.153 HD
ATOM     42  C   UNL     1       6.365  -4.822  26.757  0.00  0.00    +0.401 C 
ATOM     43  O   UNL     1       7.299  -4.537  27.491  0.00  0.00    -0.226 OA
BRANCH  42  44
ATOM     44  O   UNL     1       6.239  -5.952  26.023  0.00  0.00    -0.454 OA
ATOM     45  C   UNL     1       5.051  -6.705  26.270  0.00  0.00    +0.282 C 
ENDBRANCH  42  44
ENDBRANCH  39  40
BRANCH  39  46
ATOM     46  C   UNL     1       3.593  -2.692  27.821  0.00  0.00    -0.011 C 
ATOM     47  C   UNL     1       3.622  -1.945  29.170  0.00  0.00    +0.013 C 
ATOM     48  C   UNL     1       3.063  -4.121  28.100  0.00  0.00    +0.013 C 
ATOM     49  C   UNL     1       2.575  -2.001  26.891  0.00  0.00    +0.013 C 
ENDBRANCH  39  46
ENDBRANCH  37  39
ENDBRANCH  34  35
BRANCH  34  50
ATOM     50  C   UNL     1       4.697   1.779  25.991  0.00  0.00    +0.060 C 
BRANCH  50  51
ATOM     51  C   UNL     1       4.609   2.864  24.926  0.00  0.00    -0.046 A 
ATOM     52  C   UNL     1       5.259   2.790  23.687  0.00  0.00    +0.004 A 
ATOM     53  C   UNL     1       5.174   3.843  22.766  0.00  0.00    +0.000 A 
ATOM     54  C   UNL     1       4.455   4.994  23.076  0.00  0.00    +0.000 A 
ATOM     55  C   UNL     1       3.834   5.103  24.315  0.00  0.00    +0.000 A 
ATOM     56  C   UNL     1       3.916   4.051  25.234  0.00  0.00    +0.004 A 
ENDBRANCH  50  51
ENDBRANCH  34  50
ENDBRANCH  31  34
ENDBRANCH  30  31
ENDBRANCH   1  30
TORSDOF 19
ENDMDL
MODEL 8
REMARK VINA RESULT:      -6.6      1.708      2.574
REMARK  Name = 
REMARK  27 active torsions:
REMARK  status: ('A' for Active; 'I' for Inactive)
REMARK    1  A    between atoms: C_1  and  C_2
REMARK    2  A    between atoms: C_2  and  C_3
REMARK    3  A    between atoms: C_2  and  C_4
REMARK    4  A    between atoms: C_2  and  C_5
REMARK    5  A    between atoms: C_5  and  C_7
REMARK    6  A    between atoms: C_5  and  N_49
REMARK    7  A    between atoms: N_9  and  N_10
REMARK    8  A    between atoms: N_10  and  C_11
REMARK    9  A    between atoms: N_10  and  C_24
REMARK   10  A    between atoms: C_11  and  C_12
REMARK   11  A    between atoms: C_15  and  C_18
REMARK   12  A    between atoms: C_24  and  C_25
REMARK   13  A    between atoms: C_25  and  C_26
REMARK   14  A    between atoms: C_25  and  O_48
REMARK   15  A    between atoms: C_26  and  C_28
REMARK   16  A    between atoms: C_26  and  N_35
REMARK   17  A    between atoms: C_28  and  C_29
REMARK   18  A    between atoms: C_36  and  C_38
REMARK   19  A    between atoms: C_38  and  C_39
REMARK   20  A    between atoms: C_38  and  N_43
REMARK   21  A    between atoms: C_39  and  C_40
REMARK   22  A    between atoms: C_39  and  C_41
REMARK   23  A    between atoms: C_39  and  C_42
REMARK   24  A    between atoms: C_44  and  O_46
REMARK   25  A    between atoms: O_46  and  C_47
REMARK   26  A    between atoms: C_50  and  O_52
REMARK   27  A    between atoms: O_52  and  C_53
REMARK                            x       y       z     vdW  Elec       q    Type
REMARK                         _______ _______ _______ _____ _____    ______ ____
ROOT
ATOM      1  N   UNL     1       8.503  -2.054  24.254  0.00  0.00    -0.220 NA
ENDROOT
BRANCH   1   3
ATOM      2  C   UNL     1       7.759  -4.433  24.119  0.00  0.00    +0.248 C 
ATOM      3  N   UNL     1       7.480  -3.062  24.132  0.00  0.00    -0.246 N 
ATOM      4  H   UNL     1       6.525  -2.754  23.975  0.00  0.00    +0.169 HD
ATOM      5  O   UNL     1       8.882  -4.940  24.155  0.00  0.00    -0.272 OA
BRANCH   2   6
ATOM      6  C   UNL     1       6.475  -5.310  24.125  0.00  0.00    +0.169 C 
BRANCH   6   7
ATOM      7  N   UNL     1       5.574  -4.838  25.178  0.00  0.00    -0.269 N 
ATOM      8  H   UNL     1       5.440  -3.841  25.289  0.00  0.00    +0.153 HD
ATOM      9  C   UNL     1       5.297  -5.549  26.306  0.00  0.00    +0.401 C 
ATOM     10  O   UNL     1       5.648  -6.693  26.530  0.00  0.00    -0.226 OA
BRANCH   9  11
ATOM     11  O   UNL     1       4.571  -4.763  27.144  0.00  0.00    -0.454 OA
ATOM     12  C   UNL     1       5.286  -3.678  27.743  0.00  0.00    +0.282 C 
ENDBRANCH   9  11
ENDBRANCH   6   7
BRANCH   6  14
ATOM     13  C   UNL     1       5.587  -3.853  22.213  0.00  0.00    +0.013 C 
ATOM     14  C   UNL     1       5.786  -5.297  22.717  0.00  0.00    -0.011 C 
ATOM     15  C   UNL     1       6.679  -6.026  21.692  0.00  0.00    +0.013 C 
ATOM     16  C   UNL     1       4.407  -5.991  22.742  0.00  0.00    +0.013 C 
ENDBRANCH   6  14
ENDBRANCH   2   6
ENDBRANCH   1   3
BRANCH   1  17
ATOM     17  C   UNL     1       9.106  -1.705  22.941  0.00  0.00    +0.140 C 
BRANCH  17  18
ATOM     18  C   UNL     1       9.787  -0.350  22.912  0.00  0.00    -0.032 A 
ATOM     19  C   UNL     1       9.500   0.591  21.914  0.00  0.00    +0.005 A 
ATOM     20  C   UNL     1       9.905   1.924  22.058  0.00  0.00    +0.010 A 
ATOM     21  C   UNL     1      10.599   2.342  23.205  0.00  0.00    +0.000 A 
ATOM     22  C   UNL     1      10.994   1.355  24.123  0.00  0.00    +0.010 A 
ATOM     23  C   UNL     1      10.616   0.026  23.967  0.00  0.00    +0.005 A 
BRANCH  21  24
ATOM     24  C   UNL     1      10.828   3.762  23.524  0.00  0.00    +0.071 A 
ATOM     25  N   UNL     1      12.100   4.192  23.291  0.00  0.00    -0.255 NA
ATOM     26  C   UNL     1      12.417   5.457  23.632  0.00  0.00    +0.111 A 
ATOM     27  C   UNL     1      11.520   6.343  24.193  0.00  0.00    +0.020 A 
ATOM     28  C   UNL     1      10.218   5.908  24.408  0.00  0.00    +0.004 A 
ATOM     29  C   UNL     1       9.863   4.602  24.071  0.00  0.00    +0.028 A 
ENDBRANCH  21  24
ENDBRANCH  17  18
ENDBRANCH   1  17
BRANCH   1  30
ATOM     30  C   UNL     1       7.967  -0.893  25.031  0.00  0.00    +0.139 C 
BRANCH  30  31
ATOM     31  C   UNL     1       6.425  -0.625  25.105  0.00  0.00    +0.151 C 
BRANCH  31  32
ATOM     32  O   UNL     1       5.968  -0.225  23.803  0.00  0.00    -0.389 OA
ATOM     33  H   UNL     1       6.046   0.751  23.742  0.00  0.00    +0.210 HD
ENDBRANCH  31  32
BRANCH  31  34
ATOM     34  C   UNL     1       6.068   0.472  26.191  0.00  0.00    +0.107 C 
BRANCH  34  35
ATOM     35  N   UNL     1       5.583   1.740  25.589  0.00  0.00    -0.308 N 
ATOM     36  H   UNL     1       4.720   1.741  25.045  0.00  0.00    +0.149 HD
ATOM     37  C   UNL     1       6.352   2.888  25.584  0.00  0.00    +0.234 C 
ATOM     38  O   UNL     1       7.515   2.858  25.975  0.00  0.00    -0.274 OA
BRANCH  37  39
ATOM     39  C   UNL     1       5.672   4.155  24.988  0.00  0.00    +0.167 C 
BRANCH  39  40
ATOM     40  N   UNL     1       6.481   4.623  23.868  0.00  0.00    -0.269 N 
ATOM     41  H   UNL     1       7.254   5.256  24.025  0.00  0.00    +0.153 HD
ATOM     42  C   UNL     1       6.398   4.119  22.612  0.00  0.00    +0.401 C 
ATOM     43  O   UNL     1       5.665   3.204  22.270  0.00  0.00    -0.226 OA
BRANCH  42  44
ATOM     44  O   UNL     1       7.250   4.804  21.815  0.00  0.00    -0.454 OA
ATOM     45  C   UNL     1       7.250   6.219  22.004  0.00  0.00    +0.282 C 
ENDBRANCH  42  44
ENDBRANCH  39  40
BRANCH  39  46
ATOM     46  C   UNL     1       5.401   5.307  26.017  0.00  0.00    -0.011 C 
ATOM     47  C   UNL     1       4.132   6.087  25.615  0.00  0.00    +0.013 C 
ATOM     48  C   UNL     1       6.580   6.313  25.999  0.00  0.00    +0.013 C 
ATOM     49  C   UNL     1       5.243   4.815  27.470  0.00  0.00    +0.013 C 
ENDBRANCH  39  46
ENDBRANCH  37  39
ENDBRANCH  34  35
BRANCH  34  50
ATOM     50  C   UNL     1       5.047  -0.043  27.247  0.00  0.00    +0.060 C 
BRANCH  50  51
ATOM     51  C   UNL     1       4.255   0.982  28.048  0.00  0.00    -0.046 A 
ATOM     52  C   UNL     1       4.712   1.555  29.243  0.00  0.00    +0.004 A 
ATOM     53  C   UNL     1       3.916   2.461  29.956  0.00  0.00    +0.000 A 
ATOM     54  C   UNL     1       2.644   2.794  29.499  0.00  0.00    +0.000 A 
ATOM     55  C   UNL     1       2.157   2.207  28.335  0.00  0.00    +0.000 A 
ATOM     56  C   UNL     1       2.953   1.305  27.621  0.00  0.00    +0.004 A 
ENDBRANCH  50  51
ENDBRANCH  34  50
ENDBRANCH  31  34
ENDBRANCH  30  31
ENDBRANCH   1  30
TORSDOF 19
ENDMDL
MODEL 9
REMARK VINA RESULT:      -6.4      2.958      7.994
REMARK  Name = 
REMARK  27 active torsions:
REMARK  status: ('A' for Active; 'I' for Inactive)
REMARK    1  A    between atoms: C_1  and  C_2
REMARK    2  A    between atoms: C_2  and  C_3
REMARK    3  A    between atoms: C_2  and  C_4
REMARK    4  A    between atoms: C_2  and  C_5
REMARK    5  A    between atoms: C_5  and  C_7
REMARK    6  A    between atoms: C_5  and  N_49
REMARK    7  A    between atoms: N_9  and  N_10
REMARK    8  A    between atoms: N_10  and  C_11
REMARK    9  A    between atoms: N_10  and  C_24
REMARK   10  A    between atoms: C_11  and  C_12
REMARK   11  A    between atoms: C_15  and  C_18
REMARK   12  A    between atoms: C_24  and  C_25
REMARK   13  A    between atoms: C_25  and  C_26
REMARK   14  A    between atoms: C_25  and  O_48
REMARK   15  A    between atoms: C_26  and  C_28
REMARK   16  A    between atoms: C_26  and  N_35
REMARK   17  A    between atoms: C_28  and  C_29
REMARK   18  A    between atoms: C_36  and  C_38
REMARK   19  A    between atoms: C_38  and  C_39
REMARK   20  A    between atoms: C_38  and  N_43
REMARK   21  A    between atoms: C_39  and  C_40
REMARK   22  A    between atoms: C_39  and  C_41
REMARK   23  A    between atoms: C_39  and  C_42
REMARK   24  A    between atoms: C_44  and  O_46
REMARK   25  A    between atoms: O_46  and  C_47
REMARK   26  A    between atoms: C_50  and  O_52
REMARK   27  A    between atoms: O_52  and  C_53
REMARK                            x       y       z     vdW  Elec       q    Type
REMARK                         _______ _______ _______ _____ _____    ______ ____
ROOT
ATOM      1  N   UNL     1       4.913  -1.559  26.061  0.00  0.00    -0.220 NA
ENDROOT
BRANCH   1   3
ATOM      2  C   UNL     1       6.164  -2.589  24.162  0.00  0.00    +0.248 C 
ATOM      3  N   UNL     1       5.628  -2.653  25.452  0.00  0.00    -0.246 N 
ATOM      4  H   UNL     1       5.677  -3.530  25.961  0.00  0.00    +0.169 HD
ATOM      5  O   UNL     1       6.054  -1.641  23.382  0.00  0.00    -0.272 OA
BRANCH   2   6
ATOM      6  C   UNL     1       7.010  -3.842  23.798  0.00  0.00    +0.169 C 
BRANCH   6   7
ATOM      7  N   UNL     1       7.228  -4.644  25.003  0.00  0.00    -0.269 N 
ATOM      8  H   UNL     1       6.552  -4.582  25.754  0.00  0.00    +0.153 HD
ATOM      9  C   UNL     1       8.455  -5.066  25.414  0.00  0.00    +0.401 C 
ATOM     10  O   UNL     1       9.494  -4.948  24.791  0.00  0.00    -0.226 OA
BRANCH   9  11
ATOM     11  O   UNL     1       8.327  -5.633  26.643  0.00  0.00    -0.454 OA
ATOM     12  C   UNL     1       7.040  -5.495  27.252  0.00  0.00    +0.282 C 
ENDBRANCH   9  11
ENDBRANCH   6   7
BRANCH   6  14
ATOM     13  C   UNL     1       4.941  -5.195  23.123  0.00  0.00    +0.013 C 
ATOM     14  C   UNL     1       6.317  -4.670  22.662  0.00  0.00    -0.011 C 
ATOM     15  C   UNL     1       6.081  -3.773  21.429  0.00  0.00    +0.013 C 
ATOM     16  C   UNL     1       7.170  -5.881  22.226  0.00  0.00    +0.013 C 
ENDBRANCH   6  14
ENDBRANCH   2   6
ENDBRANCH   1   3
BRANCH   1  17
ATOM     17  C   UNL     1       3.885  -2.029  27.026  0.00  0.00    +0.140 C 
BRANCH  17  18
ATOM     18  C   UNL     1       3.057  -3.198  26.529  0.00  0.00    -0.032 A 
ATOM     19  C   UNL     1       2.008  -3.018  25.618  0.00  0.00    +0.005 A 
ATOM     20  C   UNL     1       1.449  -4.116  24.952  0.00  0.00    +0.010 A 
ATOM     21  C   UNL     1       1.933  -5.414  25.179  0.00  0.00    +0.000 A 
ATOM     22  C   UNL     1       2.888  -5.584  26.196  0.00  0.00    +0.010 A 
ATOM     23  C   UNL     1       3.423  -4.497  26.878  0.00  0.00    +0.005 A 
BRANCH  21  24
ATOM     24  C   UNL     1       1.560  -6.562  24.335  0.00  0.00    +0.071 A 
ATOM     25  N   UNL     1       1.430  -7.738  25.011  0.00  0.00    -0.255 NA
ATOM     26  C   UNL     1       1.170  -8.855  24.302  0.00  0.00    +0.111 A 
ATOM     27  C   UNL     1       1.019  -8.869  22.930  0.00  0.00    +0.020 A 
ATOM     28  C   UNL     1       1.129  -7.664  22.247  0.00  0.00    +0.004 A 
ATOM     29  C   UNL     1       1.404  -6.493  22.955  0.00  0.00    +0.028 A 
ENDBRANCH  21  24
ENDBRANCH  17  18
ENDBRANCH   1  17
BRANCH   1  30
ATOM     30  C   UNL     1       5.892  -0.570  26.611  0.00  0.00    +0.139 C 
BRANCH  30  31
ATOM     31  C   UNL     1       5.888   0.917  26.117  0.00  0.00    +0.151 C 
BRANCH  31  32
ATOM     32  O   UNL     1       4.753   1.111  25.259  0.00  0.00    -0.389 OA
ATOM     33  H   UNL     1       5.014   0.852  24.350  0.00  0.00    +0.210 HD
ENDBRANCH  31  32
BRANCH  31  34
ATOM     34  C   UNL     1       7.234   1.293  25.369  0.00  0.00    +0.107 C 
BRANCH  34  35
ATOM     35  N   UNL     1       7.786   2.601  25.805  0.00  0.00    -0.308 N 
ATOM     36  H   UNL     1       8.031   2.742  26.785  0.00  0.00    +0.149 HD
ATOM     37  C   UNL     1       7.814   3.700  24.968  0.00  0.00    +0.234 C 
ATOM     38  O   UNL     1       7.266   3.656  23.870  0.00  0.00    -0.274 OA
BRANCH  37  39
ATOM     39  C   UNL     1       8.496   4.974  25.545  0.00  0.00    +0.167 C 
BRANCH  39  40
ATOM     40  N   UNL     1       7.455   5.861  26.051  0.00  0.00    -0.269 N 
ATOM     41  H   UNL     1       6.984   6.502  25.428  0.00  0.00    +0.153 HD
ATOM     42  C   UNL     1       6.918   5.766  27.292  0.00  0.00    +0.401 C 
ATOM     43  O   UNL     1       7.215   4.921  28.122  0.00  0.00    -0.226 OA
BRANCH  42  44
ATOM     44  O   UNL     1       6.018   6.763  27.451  0.00  0.00    -0.454 OA
ATOM     45  C   UNL     1       5.494   6.900  28.772  0.00  0.00    +0.282 C 
ENDBRANCH  42  44
ENDBRANCH  39  40
BRANCH  39  46
ATOM     46  C   UNL     1       9.449   5.722  24.548  0.00  0.00    -0.011 C 
ATOM     47  C   UNL     1      10.327   6.732  25.315  0.00  0.00    +0.013 C 
ATOM     48  C   UNL     1       8.608   6.529  23.527  0.00  0.00    +0.013 C 
ATOM     49  C   UNL     1      10.365   4.779  23.741  0.00  0.00    +0.013 C 
ENDBRANCH  39  46
ENDBRANCH  37  39
ENDBRANCH  34  35
BRANCH  34  50
ATOM     50  C   UNL     1       8.319   0.185  25.497  0.00  0.00    +0.060 C 
BRANCH  50  51
ATOM     51  C   UNL     1       8.977  -0.332  24.225  0.00  0.00    -0.046 A 
ATOM     52  C   UNL     1       9.748  -1.502  24.170  0.00  0.00    +0.004 A 
ATOM     53  C   UNL     1      10.365  -1.900  22.977  0.00  0.00    +0.000 A 
ATOM     54  C   UNL     1      10.238  -1.128  21.825  0.00  0.00    +0.000 A 
ATOM     55  C   UNL     1       9.509   0.055  21.869  0.00  0.00    +0.000 A 
ATOM     56  C   UNL     1       8.890   0.452  23.059  0.00  0.00    +0.004 A 
ENDBRANCH  50  51
ENDBRANCH  34  50
ENDBRANCH  31  34
ENDBRANCH  30  31
ENDBRANCH   1  30
TORSDOF 19
ENDMDL
