MODEL 1
REMARK VINA RESULT:      -5.9      0.000      0.000
REMARK  Name = 
REMARK  21 active torsions:
REMARK  status: ('A' for Active; 'I' for Inactive)
REMARK    1  A    between atoms: C_1  and  C_2
REMARK    2  A    between atoms: C_2  and  C_3
REMARK    3  A    between atoms: C_2  and  C_4
REMARK    4  A    between atoms: C_9  and  C_12
REMARK    5  A    between atoms: C_18  and  O_21
REMARK    6  A    between atoms: O_21  and  C_22
REMARK    7  A    between atoms: C_23  and  O_25
REMARK    8  A    between atoms: O_25  and  C_26
REMARK    9  A    between atoms: C_29  and  C_50
REMARK   10  A    between atoms: C_33  and  C_35
REMARK   11  A    between atoms: C_35  and  C_37
REMARK   12  A    between atoms: C_35  and  N_41
REMARK   13  A    between atoms: C_37  and  C_38
REMARK   14  A    between atoms: C_37  and  C_39
REMARK   15  A    between atoms: C_37  and  C_40
REMARK   16  A    between atoms: C_42  and  O_44
REMARK   17  A    between atoms: O_44  and  C_45
REMARK   18  A    between atoms: N_52  and  C_53
REMARK   19  A    between atoms: C_53  and  C_59
REMARK   20  A    between atoms: C_55  and  C_57
REMARK   21  A    between atoms: C_59  and  O_61
REMARK                            x       y       z     vdW  Elec       q    Type
REMARK                         _______ _______ _______ _____ _____    ______ ____
ROOT
ATOM      1  C   UNL     1       6.986   1.816  28.169  0.00  0.00    +0.193 C 
ATOM      2  C   UNL     1       7.150   2.287  26.706  0.00  0.00    +0.153 C 
ATOM      3  N   UNL     1       7.811   1.179  26.006  0.00  0.00    -0.285 N 
ATOM      4  C   UNL     1       8.561   1.340  24.853  0.00  0.00    +0.237 C 
ATOM      5  O   UNL     1       9.487   0.564  24.601  0.00  0.00    -0.274 OA
ATOM      6  C   UNL     1       8.240   0.180  26.986  0.00  0.00    +0.166 C 
ATOM      7  C   UNL     1       7.157   0.301  28.045  0.00  0.00    +0.078 C 
ENDROOT
BRANCH   6   8
ATOM      8  C   UNL     1       8.343  -1.264  26.487  0.00  0.00    +0.235 C 
ATOM      9  N   UNL     1       7.500  -1.611  25.455  0.00  0.00    -0.298 N 
ATOM     10  H   UNL     1       7.237  -0.868  24.824  0.00  0.00    +0.150 HD
ATOM     11  O   UNL     1       9.039  -2.107  27.055  0.00  0.00    -0.274 OA
BRANCH   9  12
ATOM     12  C   UNL     1       7.507  -2.962  24.926  0.00  0.00    +0.138 C 
ATOM     13  C   UNL     1       7.508  -3.097  23.401  0.00  0.00    +0.048 C 
ATOM     14  C   UNL     1       8.738  -3.449  24.176  0.00  0.00    +0.048 C 
BRANCH  12  15
ATOM     15  C   UNL     1       6.781  -3.991  25.774  0.00  0.00    +0.329 C 
ATOM     16  O   UNL     1       7.148  -5.150  25.859  0.00  0.00    -0.249 OA
BRANCH  15  17
ATOM     17  O   UNL     1       5.732  -3.471  26.463  0.00  0.00    -0.479 OA
ATOM     18  H   UNL     1       5.921  -2.548  26.755  0.00  0.00    +0.295 HD
ENDBRANCH  15  17
ENDBRANCH  12  15
BRANCH  13  19
ATOM     19  C   UNL     1       6.685  -4.129  22.765  0.00  0.00    -0.028 C 
ATOM     20  C   UNL     1       7.161  -5.093  21.965  0.00  0.00    +0.004 C 
ENDBRANCH  13  19
ENDBRANCH   9  12
ENDBRANCH   6   8
BRANCH   1  21
ATOM     21  O   UNL     1       5.698   2.171  28.672  0.00  0.00    -0.486 OA
BRANCH  21  24
ATOM     22  C   UNL     1       3.020   0.135  27.193  0.00  0.00    +0.094 A 
ATOM     23  C   UNL     1       4.107   0.460  27.987  0.00  0.00    +0.076 A 
ATOM     24  C   UNL     1       4.602   1.755  27.944  0.00  0.00    +0.132 A 
ATOM     25  C   UNL     1       3.973   2.715  27.127  0.00  0.00    +0.043 A 
ATOM     26  C   UNL     1       4.459   4.035  27.038  0.00  0.00    +0.017 A 
ATOM     27  C   UNL     1       3.864   4.974  26.203  0.00  0.00    +0.047 A 
ATOM     28  C   UNL     1       2.746   4.623  25.454  0.00  0.00    +0.136 A 
ATOM     29  C   UNL     1       2.246   3.306  25.555  0.00  0.00    +0.085 A 
ATOM     30 BR   UNL     1       0.683   2.829  24.549  0.00  0.00    -0.044 Br
ATOM     31  C   UNL     1       2.851   2.322  26.365  0.00  0.00    +0.093 A 
ATOM     32  N   UNL     1       2.392   1.043  26.409  0.00  0.00    -0.244 NA
BRANCH  22  39
ATOM     33  C   UNL     1       3.413  -4.463  24.551  0.00  0.00    +0.221 C 
ATOM     34  N   UNL     1       2.681  -4.479  25.722  0.00  0.00    -0.264 N 
ATOM     35  H   UNL     1       2.222  -5.317  26.045  0.00  0.00    +0.157 HD
ATOM     36  C   UNL     1       2.462  -3.324  26.429  0.00  0.00    +0.165 A 
ATOM     37  S   UNL     1       1.335  -3.435  27.701  0.00  0.00    -0.060 S 
ATOM     38  C   UNL     1       1.573  -1.758  28.032  0.00  0.00    +0.078 A 
ATOM     39  C   UNL     1       2.533  -1.246  27.180  0.00  0.00    +0.098 A 
ATOM     40  N   UNL     1       3.025  -2.159  26.259  0.00  0.00    -0.223 NA
ATOM     41  O   UNL     1       3.823  -3.455  23.979  0.00  0.00    -0.275 OA
BRANCH  33  43
ATOM     42  C   UNL     1       3.911  -6.864  25.098  0.00  0.00    +0.017 C 
ATOM     43  C   UNL     1       3.669  -5.858  23.971  0.00  0.00    +0.069 C 
ATOM     44  C   UNL     1       2.487  -6.310  23.116  0.00  0.00    +0.017 C 
ENDBRANCH  33  43
ENDBRANCH  22  39
BRANCH  28  45
ATOM     45  O   UNL     1       2.094   5.488  24.612  0.00  0.00    -0.494 OA
ATOM     46  C   UNL     1       2.884   6.387  23.840  0.00  0.00    +0.277 C 
ENDBRANCH  28  45
ENDBRANCH  21  24
ENDBRANCH   1  21
BRANCH   4  47
ATOM     47  C   UNL     1       8.122   2.410  23.823  0.00  0.00    +0.168 C 
BRANCH  47  48
ATOM     48  N   UNL     1       9.324   3.198  23.540  0.00  0.00    -0.269 N 
ATOM     49  H   UNL     1      10.199   2.891  23.948  0.00  0.00    +0.153 HD
ATOM     50  C   UNL     1       9.247   4.555  23.412  0.00  0.00    +0.401 C 
ATOM     51  O   UNL     1       8.206   5.181  23.277  0.00  0.00    -0.226 OA
BRANCH  50  52
ATOM     52  O   UNL     1      10.488   5.095  23.495  0.00  0.00    -0.447 OA
BRANCH  52  53
ATOM     53  C   UNL     1      10.605   6.266  24.313  0.00  0.00    +0.178 C 
ATOM     54  C   UNL     1      12.078   6.527  24.650  0.00  0.00    +0.045 C 
ATOM     55  C   UNL     1      12.113   7.018  26.099  0.00  0.00    +0.004 C 
ATOM     56  C   UNL     1      10.662   7.108  26.548  0.00  0.00    +0.004 C 
ATOM     57  C   UNL     1       9.943   6.092  25.678  0.00  0.00    +0.045 C 
ENDBRANCH  52  53
ENDBRANCH  50  52
ENDBRANCH  47  48
BRANCH  47  58
ATOM     58  C   UNL     1       7.491   1.781  22.533  0.00  0.00    -0.011 C 
ATOM     59  C   UNL     1       6.811   0.445  22.903  0.00  0.00    +0.013 C 
ATOM     60  C   UNL     1       8.568   1.453  21.479  0.00  0.00    +0.013 C 
ATOM     61  C   UNL     1       6.438   2.695  21.874  0.00  0.00    +0.013 C 
ENDBRANCH  47  58
ENDBRANCH   4  47
TORSDOF 15
ENDMDL
MODEL 2
REMARK VINA RESULT:      -5.1      1.647      2.147
REMARK  Name = 
REMARK  21 active torsions:
REMARK  status: ('A' for Active; 'I' for Inactive)
REMARK    1  A    between atoms: C_1  and  C_2
REMARK    2  A    between atoms: C_2  and  C_3
REMARK    3  A    between atoms: C_2  and  C_4
REMARK    4  A    between atoms: C_9  and  C_12
REMARK    5  A    between atoms: C_18  and  O_21
REMARK    6  A    between atoms: O_21  and  C_22
REMARK    7  A    between atoms: C_23  and  O_25
REMARK    8  A    between atoms: O_25  and  C_26
REMARK    9  A    between atoms: C_29  and  C_50
REMARK   10  A    between atoms: C_33  and  C_35
REMARK   11  A    between atoms: C_35  and  C_37
REMARK   12  A    between atoms: C_35  and  N_41
REMARK   13  A    between atoms: C_37  and  C_38
REMARK   14  A    between atoms: C_37  and  C_39
REMARK   15  A    between atoms: C_37  and  C_40
REMARK   16  A    between atoms: C_42  and  O_44
REMARK   17  A    between atoms: O_44  and  C_45
REMARK   18  A    between atoms: N_52  and  C_53
REMARK   19  A    between atoms: C_53  and  C_59
REMARK   20  A    between atoms: C_55  and  C_57
REMARK   21  A    between atoms: C_59  and  O_61
REMARK                            x       y       z     vdW  Elec       q    Type
REMARK                         _______ _______ _______ _____ _____    ______ ____
ROOT
ATOM      1  C   UNL     1       7.212   1.180  28.248  0.00  0.00    +0.193 C 
ATOM      2  C   UNL     1       7.347   1.663  26.786  0.00  0.00    +0.153 C 
ATOM      3  N   UNL     1       7.865   0.513  26.035  0.00  0.00    -0.285 N 
ATOM      4  C   UNL     1       8.569   0.627  24.848  0.00  0.00    +0.237 C 
ATOM      5  O   UNL     1       9.404  -0.227  24.537  0.00  0.00    -0.274 OA
ATOM      6  C   UNL     1       8.246  -0.541  26.976  0.00  0.00    +0.166 C 
ATOM      7  C   UNL     1       7.234  -0.341  28.092  0.00  0.00    +0.078 C 
ENDROOT
BRANCH   6   8
ATOM      8  C   UNL     1       8.187  -1.979  26.451  0.00  0.00    +0.235 C 
ATOM      9  N   UNL     1       7.246  -2.230  25.477  0.00  0.00    -0.298 N 
ATOM     10  H   UNL     1       7.005  -1.455  24.878  0.00  0.00    +0.150 HD
ATOM     11  O   UNL     1       8.845  -2.890  26.955  0.00  0.00    -0.274 OA
BRANCH   9  12
ATOM     12  C   UNL     1       7.099  -3.566  24.930  0.00  0.00    +0.138 C 
ATOM     13  C   UNL     1       7.136  -3.686  23.404  0.00  0.00    +0.048 C 
ATOM     14  C   UNL     1       8.282  -4.200  24.215  0.00  0.00    +0.048 C 
BRANCH  12  15
ATOM     15  C   UNL     1       6.217  -4.501  25.739  0.00  0.00    +0.329 C 
ATOM     16  O   UNL     1       6.626  -5.550  26.205  0.00  0.00    -0.249 OA
BRANCH  15  17
ATOM     17  O   UNL     1       4.963  -4.018  25.933  0.00  0.00    -0.479 OA
ATOM     18  H   UNL     1       4.758  -3.937  26.895  0.00  0.00    +0.295 HD
ENDBRANCH  15  17
ENDBRANCH  12  15
BRANCH  13  19
ATOM     19  C   UNL     1       6.209  -4.596  22.726  0.00  0.00    -0.028 C 
ATOM     20  C   UNL     1       6.347  -5.015  21.460  0.00  0.00    +0.004 C 
ENDBRANCH  13  19
ENDBRANCH   9  12
ENDBRANCH   6   8
BRANCH   1  21
ATOM     21  O   UNL     1       5.990   1.644  28.822  0.00  0.00    -0.486 OA
BRANCH  21  24
ATOM     22  C   UNL     1       3.107  -0.193  27.473  0.00  0.00    +0.094 A 
ATOM     23  C   UNL     1       4.267   0.043  28.192  0.00  0.00    +0.076 A 
ATOM     24  C   UNL     1       4.823   1.314  28.166  0.00  0.00    +0.132 A 
ATOM     25  C   UNL     1       4.183   2.339  27.441  0.00  0.00    +0.043 A 
ATOM     26  C   UNL     1       4.727   3.638  27.371  0.00  0.00    +0.017 A 
ATOM     27  C   UNL     1       4.118   4.642  26.626  0.00  0.00    +0.047 A 
ATOM     28  C   UNL     1       2.930   4.380  25.953  0.00  0.00    +0.136 A 
ATOM     29  C   UNL     1       2.373   3.084  26.037  0.00  0.00    +0.085 A 
ATOM     30 BR   UNL     1       0.715   2.729  25.138  0.00  0.00    -0.044 Br
ATOM     31  C   UNL     1       2.987   2.036  26.755  0.00  0.00    +0.093 A 
ATOM     32  N   UNL     1       2.469   0.779  26.780  0.00  0.00    -0.244 NA
BRANCH  22  39
ATOM     33  C   UNL     1       4.082  -5.203  28.965  0.00  0.00    +0.221 C 
ATOM     34  N   UNL     1       2.842  -4.948  28.412  0.00  0.00    -0.264 N 
ATOM     35  H   UNL     1       2.165  -5.683  28.274  0.00  0.00    +0.157 HD
ATOM     36  C   UNL     1       2.531  -3.703  27.929  0.00  0.00    +0.165 A 
ATOM     37  S   UNL     1       1.080  -3.590  27.044  0.00  0.00    -0.060 S 
ATOM     38  C   UNL     1       1.388  -1.912  26.787  0.00  0.00    +0.078 A 
ATOM     39  C   UNL     1       2.552  -1.547  27.439  0.00  0.00    +0.098 A 
ATOM     40  N   UNL     1       3.199  -2.592  28.081  0.00  0.00    -0.223 NA
ATOM     41  O   UNL     1       5.032  -4.424  28.975  0.00  0.00    -0.275 OA
BRANCH  33  43
ATOM     42  C   UNL     1       5.509  -6.728  30.361  0.00  0.00    +0.017 C 
ATOM     43  C   UNL     1       4.204  -6.604  29.572  0.00  0.00    +0.069 C 
ATOM     44  C   UNL     1       3.016  -6.901  30.485  0.00  0.00    +0.017 C 
ENDBRANCH  33  43
ENDBRANCH  22  39
BRANCH  28  45
ATOM     45  O   UNL     1       2.260   5.312  25.203  0.00  0.00    -0.494 OA
ATOM     46  C   UNL     1       2.834   5.703  23.959  0.00  0.00    +0.277 C 
ENDBRANCH  28  45
ENDBRANCH  21  24
ENDBRANCH   1  21
BRANCH   4  47
ATOM     47  C   UNL     1       8.182   1.753  23.859  0.00  0.00    +0.168 C 
BRANCH  47  48
ATOM     48  N   UNL     1       9.070   2.874  24.175  0.00  0.00    -0.269 N 
ATOM     49  H   UNL     1       9.877   2.689  24.760  0.00  0.00    +0.153 HD
ATOM     50  C   UNL     1       8.563   4.129  24.354  0.00  0.00    +0.401 C 
ATOM     51  O   UNL     1       7.432   4.472  24.041  0.00  0.00    -0.226 OA
BRANCH  50  52
ATOM     52  O   UNL     1       9.488   4.916  24.959  0.00  0.00    -0.447 OA
BRANCH  52  53
ATOM     53  C   UNL     1      10.463   5.510  24.094  0.00  0.00    +0.178 C 
ATOM     54  C   UNL     1      11.239   4.418  23.347  0.00  0.00    +0.045 C 
ATOM     55  C   UNL     1      12.692   4.891  23.271  0.00  0.00    +0.004 C 
ATOM     56  C   UNL     1      12.717   6.276  23.901  0.00  0.00    +0.004 C 
ATOM     57  C   UNL     1      11.543   6.264  24.864  0.00  0.00    +0.045 C 
ENDBRANCH  52  53
ENDBRANCH  50  52
ENDBRANCH  47  48
BRANCH  47  58
ATOM     58  C   UNL     1       8.284   1.301  22.361  0.00  0.00    -0.011 C 
ATOM     59  C   UNL     1       7.549   2.326  21.472  0.00  0.00    +0.013 C 
ATOM     60  C   UNL     1       7.595  -0.060  22.132  0.00  0.00    +0.013 C 
ATOM     61  C   UNL     1       9.741   1.188  21.868  0.00  0.00    +0.013 C 
ENDBRANCH  47  58
ENDBRANCH   4  47
TORSDOF 15
ENDMDL
MODEL 3
REMARK VINA RESULT:      -5.1      2.452      4.160
REMARK  Name = 
REMARK  21 active torsions:
REMARK  status: ('A' for Active; 'I' for Inactive)
REMARK    1  A    between atoms: C_1  and  C_2
REMARK    2  A    between atoms: C_2  and  C_3
REMARK    3  A    between atoms: C_2  and  C_4
REMARK    4  A    between atoms: C_9  and  C_12
REMARK    5  A    between atoms: C_18  and  O_21
REMARK    6  A    between atoms: O_21  and  C_22
REMARK    7  A    between atoms: C_23  and  O_25
REMARK    8  A    between atoms: O_25  and  C_26
REMARK    9  A    between atoms: C_29  and  C_50
REMARK   10  A    between atoms: C_33  and  C_35
REMARK   11  A    between atoms: C_35  and  C_37
REMARK   12  A    between atoms: C_35  and  N_41
REMARK   13  A    between atoms: C_37  and  C_38
REMARK   14  A    between atoms: C_37  and  C_39
REMARK   15  A    between atoms: C_37  and  C_40
REMARK   16  A    between atoms: C_42  and  O_44
REMARK   17  A    between atoms: O_44  and  C_45
REMARK   18  A    between atoms: N_52  and  C_53
REMARK   19  A    between atoms: C_53  and  C_59
REMARK   20  A    between atoms: C_55  and  C_57
REMARK   21  A    between atoms: C_59  and  O_61
REMARK                            x       y       z     vdW  Elec       q    Type
REMARK                         _______ _______ _______ _____ _____    ______ ____
ROOT
ATOM      1  C   UNL     1       8.315   0.141  26.936  0.00  0.00    +0.193 C 
ATOM      2  C   UNL     1       7.644   1.055  25.885  0.00  0.00    +0.153 C 
ATOM      3  N   UNL     1       7.434   0.212  24.703  0.00  0.00    -0.285 N 
ATOM      4  C   UNL     1       7.318   0.711  23.417  0.00  0.00    +0.237 C 
ATOM      5  O   UNL     1       7.664   0.026  22.451  0.00  0.00    -0.274 OA
ATOM      6  C   UNL     1       8.119  -1.066  24.898  0.00  0.00    +0.166 C 
ATOM      7  C   UNL     1       7.998  -1.256  26.401  0.00  0.00    +0.078 C 
ENDROOT
BRANCH   6   8
ATOM      8  C   UNL     1       7.536  -2.273  24.157  0.00  0.00    +0.235 C 
ATOM      9  N   UNL     1       6.316  -2.728  24.604  0.00  0.00    -0.298 N 
ATOM     10  H   UNL     1       5.707  -2.038  25.020  0.00  0.00    +0.150 HD
ATOM     11  O   UNL     1       8.172  -2.888  23.299  0.00  0.00    -0.274 OA
BRANCH   9  12
ATOM     12  C   UNL     1       5.690  -3.878  23.980  0.00  0.00    +0.138 C 
ATOM     13  C   UNL     1       4.169  -3.822  23.816  0.00  0.00    +0.048 C 
ATOM     14  C   UNL     1       5.047  -3.711  22.611  0.00  0.00    +0.048 C 
BRANCH  12  15
ATOM     15  C   UNL     1       6.371  -5.208  24.249  0.00  0.00    +0.329 C 
ATOM     16  O   UNL     1       6.765  -5.938  23.356  0.00  0.00    -0.249 OA
BRANCH  15  17
ATOM     17  O   UNL     1       6.543  -5.462  25.572  0.00  0.00    -0.479 OA
ATOM     18  H   UNL     1       5.675  -5.555  26.032  0.00  0.00    +0.295 HD
ENDBRANCH  15  17
ENDBRANCH  12  15
BRANCH  13  19
ATOM     19  C   UNL     1       3.368  -5.022  24.070  0.00  0.00    -0.028 C 
ATOM     20  C   UNL     1       2.853  -5.807  23.113  0.00  0.00    +0.004 C 
ENDBRANCH  13  19
ENDBRANCH   9  12
ENDBRANCH   6   8
BRANCH   1  21
ATOM     21  O   UNL     1       7.752   0.361  28.230  0.00  0.00    -0.486 OA
BRANCH  21  24
ATOM     22  C   UNL     1       4.099  -0.008  28.067  0.00  0.00    +0.094 A 
ATOM     23  C   UNL     1       5.437  -0.360  28.005  0.00  0.00    +0.076 A 
ATOM     24  C   UNL     1       6.395   0.602  28.292  0.00  0.00    +0.132 A 
ATOM     25  C   UNL     1       5.991   1.897  28.671  0.00  0.00    +0.043 A 
ATOM     26  C   UNL     1       6.932   2.908  28.949  0.00  0.00    +0.017 A 
ATOM     27  C   UNL     1       6.536   4.198  29.286  0.00  0.00    +0.047 A 
ATOM     28  C   UNL     1       5.183   4.503  29.382  0.00  0.00    +0.136 A 
ATOM     29  C   UNL     1       4.238   3.486  29.122  0.00  0.00    +0.085 A 
ATOM     30 BR   UNL     1       2.369   3.895  29.287  0.00  0.00    -0.044 Br
ATOM     31  C   UNL     1       4.608   2.179  28.742  0.00  0.00    +0.093 A 
ATOM     32  N   UNL     1       3.687   1.227  28.439  0.00  0.00    -0.244 NA
BRANCH  22  39
ATOM     33  C   UNL     1       3.275  -5.236  27.553  0.00  0.00    +0.221 C 
ATOM     34  N   UNL     1       2.177  -4.414  27.392  0.00  0.00    -0.264 N 
ATOM     35  H   UNL     1       1.268  -4.787  27.161  0.00  0.00    +0.157 HD
ATOM     36  C   UNL     1       2.309  -3.049  27.430  0.00  0.00    +0.165 A 
ATOM     37  S   UNL     1       0.937  -2.156  26.961  0.00  0.00    -0.060 S 
ATOM     38  C   UNL     1       1.820  -0.697  27.222  0.00  0.00    +0.078 A 
ATOM     39  C   UNL     1       3.084  -0.996  27.698  0.00  0.00    +0.098 A 
ATOM     40  N   UNL     1       3.349  -2.354  27.802  0.00  0.00    -0.223 NA
ATOM     41  O   UNL     1       4.443  -4.860  27.624  0.00  0.00    -0.275 OA
BRANCH  33  43
ATOM     42  C   UNL     1       2.607  -7.135  29.056  0.00  0.00    +0.017 C 
ATOM     43  C   UNL     1       2.920  -6.725  27.615  0.00  0.00    +0.069 C 
ATOM     44  C   UNL     1       1.723  -7.031  26.717  0.00  0.00    +0.017 C 
ENDBRANCH  33  43
ENDBRANCH  22  39
BRANCH  28  45
ATOM     45  O   UNL     1       4.706   5.745  29.716  0.00  0.00    -0.494 OA
ATOM     46  C   UNL     1       4.969   6.821  28.820  0.00  0.00    +0.277 C 
ENDBRANCH  28  45
ENDBRANCH  21  24
ENDBRANCH   1  21
BRANCH   4  47
ATOM     47  C   UNL     1       6.612   2.073  23.209  0.00  0.00    +0.168 C 
BRANCH  47  48
ATOM     48  N   UNL     1       5.582   2.144  24.248  0.00  0.00    -0.269 N 
ATOM     49  H   UNL     1       5.592   1.436  24.974  0.00  0.00    +0.153 HD
ATOM     50  C   UNL     1       4.323   2.575  23.947  0.00  0.00    +0.401 C 
ATOM     51  O   UNL     1       4.014   3.146  22.911  0.00  0.00    -0.226 OA
BRANCH  50  52
ATOM     52  O   UNL     1       3.471   2.240  24.947  0.00  0.00    -0.447 OA
BRANCH  52  53
ATOM     53  C   UNL     1       2.901   3.337  25.673  0.00  0.00    +0.178 C 
ATOM     54  C   UNL     1       1.630   3.829  24.970  0.00  0.00    +0.045 C 
ATOM     55  C   UNL     1       1.627   5.354  25.095  0.00  0.00    +0.004 C 
ATOM     56  C   UNL     1       2.847   5.711  25.931  0.00  0.00    +0.004 C 
ATOM     57  C   UNL     1       3.810   4.563  25.686  0.00  0.00    +0.045 C 
ENDBRANCH  52  53
ENDBRANCH  50  52
ENDBRANCH  47  48
BRANCH  47  58
ATOM     58  C   UNL     1       7.609   3.283  23.259  0.00  0.00    -0.011 C 
ATOM     59  C   UNL     1       9.040   2.768  22.996  0.00  0.00    +0.013 C 
ATOM     60  C   UNL     1       7.625   3.946  24.651  0.00  0.00    +0.013 C 
ATOM     61  C   UNL     1       7.285   4.370  22.214  0.00  0.00    +0.013 C 
ENDBRANCH  47  58
ENDBRANCH   4  47
TORSDOF 15
ENDMDL
MODEL 4
REMARK VINA RESULT:      -5.0      3.097      8.345
REMARK  Name = 
REMARK  21 active torsions:
REMARK  status: ('A' for Active; 'I' for Inactive)
REMARK    1  A    between atoms: C_1  and  C_2
REMARK    2  A    between atoms: C_2  and  C_3
REMARK    3  A    between atoms: C_2  and  C_4
REMARK    4  A    between atoms: C_9  and  C_12
REMARK    5  A    between atoms: C_18  and  O_21
REMARK    6  A    between atoms: O_21  and  C_22
REMARK    7  A    between atoms: C_23  and  O_25
REMARK    8  A    between atoms: O_25  and  C_26
REMARK    9  A    between atoms: C_29  and  C_50
REMARK   10  A    between atoms: C_33  and  C_35
REMARK   11  A    between atoms: C_35  and  C_37
REMARK   12  A    between atoms: C_35  and  N_41
REMARK   13  A    between atoms: C_37  and  C_38
REMARK   14  A    between atoms: C_37  and  C_39
REMARK   15  A    between atoms: C_37  and  C_40
REMARK   16  A    between atoms: C_42  and  O_44
REMARK   17  A    between atoms: O_44  and  C_45
REMARK   18  A    between atoms: N_52  and  C_53
REMARK   19  A    between atoms: C_53  and  C_59
REMARK   20  A    between atoms: C_55  and  C_57
REMARK   21  A    between atoms: C_59  and  O_61
REMARK                            x       y       z     vdW  Elec       q    Type
REMARK                         _______ _______ _______ _____ _____    ______ ____
ROOT
ATOM      1  C   UNL     1       6.678   0.687  22.772  0.00  0.00    +0.193 C 
ATOM      2  C   UNL     1       6.129   1.039  24.174  0.00  0.00    +0.153 C 
ATOM      3  N   UNL     1       5.894  -0.247  24.842  0.00  0.00    -0.285 N 
ATOM      4  C   UNL     1       4.990  -0.420  25.876  0.00  0.00    +0.237 C 
ATOM      5  O   UNL     1       4.443  -1.513  26.048  0.00  0.00    -0.274 OA
ATOM      6  C   UNL     1       6.061  -1.329  23.870  0.00  0.00    +0.166 C 
ATOM      7  C   UNL     1       7.134  -0.762  22.956  0.00  0.00    +0.078 C 
ENDROOT
BRANCH   6   8
ATOM      8  C   UNL     1       6.496  -2.687  24.429  0.00  0.00    +0.235 C 
ATOM      9  N   UNL     1       5.506  -3.636  24.557  0.00  0.00    -0.298 N 
ATOM     10  H   UNL     1       4.740  -3.573  23.903  0.00  0.00    +0.150 HD
ATOM     11  O   UNL     1       7.631  -2.885  24.865  0.00  0.00    -0.274 OA
BRANCH   9  12
ATOM     12  C   UNL     1       5.814  -4.947  25.096  0.00  0.00    +0.138 C 
ATOM     13  C   UNL     1       4.917  -6.100  24.639  0.00  0.00    +0.048 C 
ATOM     14  C   UNL     1       6.329  -6.025  24.154  0.00  0.00    +0.048 C 
BRANCH  12  15
ATOM     15  C   UNL     1       6.387  -4.948  26.502  0.00  0.00    +0.329 C 
ATOM     16  O   UNL     1       7.272  -5.710  26.851  0.00  0.00    -0.249 OA
BRANCH  15  17
ATOM     17  O   UNL     1       5.856  -3.983  27.296  0.00  0.00    -0.479 OA
ATOM     18  H   UNL     1       6.472  -3.747  28.029  0.00  0.00    +0.295 HD
ENDBRANCH  15  17
ENDBRANCH  12  15
BRANCH  13  19
ATOM     19  C   UNL     1       4.495  -7.117  25.606  0.00  0.00    -0.028 C 
ATOM     20  C   UNL     1       3.253  -7.224  26.099  0.00  0.00    +0.004 C 
ENDBRANCH  13  19
ENDBRANCH   9  12
ENDBRANCH   6   8
BRANCH   1  21
ATOM     21  O   UNL     1       7.760   1.550  22.423  0.00  0.00    -0.486 OA
BRANCH  21  24
ATOM     22  C   UNL     1       6.630   4.826  23.646  0.00  0.00    +0.094 A 
ATOM     23  C   UNL     1       6.552   3.529  23.168  0.00  0.00    +0.076 A 
ATOM     24  C   UNL     1       7.728   2.834  22.928  0.00  0.00    +0.132 A 
ATOM     25  C   UNL     1       8.967   3.444  23.206  0.00  0.00    +0.043 A 
ATOM     26  C   UNL     1      10.185   2.780  22.955  0.00  0.00    +0.017 A 
ATOM     27  C   UNL     1      11.411   3.394  23.192  0.00  0.00    +0.047 A 
ATOM     28  C   UNL     1      11.449   4.681  23.715  0.00  0.00    +0.136 A 
ATOM     29  C   UNL     1      10.229   5.341  23.985  0.00  0.00    +0.085 A 
ATOM     30 BR   UNL     1      10.280   7.106  24.740  0.00  0.00    -0.044 Br
ATOM     31  C   UNL     1       8.972   4.759  23.720  0.00  0.00    +0.093 A 
ATOM     32  N   UNL     1       7.808   5.429  23.932  0.00  0.00    -0.244 NA
BRANCH  22  39
ATOM     33  C   UNL     1       2.849   5.935  27.219  0.00  0.00    +0.221 C 
ATOM     34  N   UNL     1       2.805   6.634  26.028  0.00  0.00    -0.264 N 
ATOM     35  H   UNL     1       2.075   7.303  25.836  0.00  0.00    +0.157 HD
ATOM     36  C   UNL     1       3.693   6.360  25.019  0.00  0.00    +0.165 A 
ATOM     37  S   UNL     1       3.369   7.104  23.522  0.00  0.00    -0.060 S 
ATOM     38  C   UNL     1       4.756   6.324  22.855  0.00  0.00    +0.078 A 
ATOM     39  C   UNL     1       5.396   5.592  23.837  0.00  0.00    +0.098 A 
ATOM     40  N   UNL     1       4.765   5.617  25.072  0.00  0.00    -0.223 NA
ATOM     41  O   UNL     1       3.566   4.963  27.449  0.00  0.00    -0.275 OA
BRANCH  33  43
ATOM     42  C   UNL     1       0.471   6.597  27.681  0.00  0.00    +0.017 C 
ATOM     43  C   UNL     1       1.875   6.464  28.275  0.00  0.00    +0.069 C 
ATOM     44  C   UNL     1       1.840   5.537  29.488  0.00  0.00    +0.017 C 
ENDBRANCH  33  43
ENDBRANCH  22  39
BRANCH  28  45
ATOM     45  O   UNL     1      12.612   5.356  23.987  0.00  0.00    -0.494 OA
ATOM     46  C   UNL     1      13.576   5.465  22.944  0.00  0.00    +0.277 C 
ENDBRANCH  28  45
ENDBRANCH  21  24
ENDBRANCH   1  21
BRANCH   4  47
ATOM     47  C   UNL     1       4.797   0.731  26.895  0.00  0.00    +0.168 C 
BRANCH  47  48
ATOM     48  N   UNL     1       3.559   0.415  27.611  0.00  0.00    -0.269 N 
ATOM     49  H   UNL     1       3.489  -0.491  28.061  0.00  0.00    +0.153 HD
ATOM     50  C   UNL     1       2.358   0.873  27.153  0.00  0.00    +0.401 C 
ATOM     51  O   UNL     1       2.225   1.742  26.302  0.00  0.00    -0.226 OA
BRANCH  50  52
ATOM     52  O   UNL     1       1.349   0.195  27.753  0.00  0.00    -0.447 OA
BRANCH  52  53
ATOM     53  C   UNL     1       1.685  -1.102  28.262  0.00  0.00    +0.178 C 
ATOM     54  C   UNL     1       1.012  -2.189  27.415  0.00  0.00    +0.045 C 
ATOM     55  C   UNL     1       0.568  -3.285  28.387  0.00  0.00    +0.004 C 
ATOM     56  C   UNL     1       1.058  -2.851  29.761  0.00  0.00    +0.004 C 
ATOM     57  C   UNL     1       1.135  -1.338  29.665  0.00  0.00    +0.045 C 
ENDBRANCH  52  53
ENDBRANCH  50  52
ENDBRANCH  47  48
BRANCH  47  58
ATOM     58  C   UNL     1       6.027   0.901  27.852  0.00  0.00    -0.011 C 
ATOM     59  C   UNL     1       5.553   0.759  29.314  0.00  0.00    +0.013 C 
ATOM     60  C   UNL     1       6.655   2.304  27.724  0.00  0.00    +0.013 C 
ATOM     61  C   UNL     1       7.133  -0.144  27.598  0.00  0.00    +0.013 C 
ENDBRANCH  47  58
ENDBRANCH   4  47
TORSDOF 15
ENDMDL
MODEL 5
REMARK VINA RESULT:      -5.0      2.908      8.832
REMARK  Name = 
REMARK  21 active torsions:
REMARK  status: ('A' for Active; 'I' for Inactive)
REMARK    1  A    between atoms: C_1  and  C_2
REMARK    2  A    between atoms: C_2  and  C_3
REMARK    3  A    between atoms: C_2  and  C_4
REMARK    4  A    between atoms: C_9  and  C_12
REMARK    5  A    between atoms: C_18  and  O_21
REMARK    6  A    between atoms: O_21  and  C_22
REMARK    7  A    between atoms: C_23  and  O_25
REMARK    8  A    between atoms: O_25  and  C_26
REMARK    9  A    between atoms: C_29  and  C_50
REMARK   10  A    between atoms: C_33  and  C_35
REMARK   11  A    between atoms: C_35  and  C_37
REMARK   12  A    between atoms: C_35  and  N_41
REMARK   13  A    between atoms: C_37  and  C_38
REMARK   14  A    between atoms: C_37  and  C_39
REMARK   15  A    between atoms: C_37  and  C_40
REMARK   16  A    between atoms: C_42  and  O_44
REMARK   17  A    between atoms: O_44  and  C_45
REMARK   18  A    between atoms: N_52  and  C_53
REMARK   19  A    between atoms: C_53  and  C_59
REMARK   20  A    between atoms: C_55  and  C_57
REMARK   21  A    between atoms: C_59  and  O_61
REMARK                            x       y       z     vdW  Elec       q    Type
REMARK                         _______ _______ _______ _____ _____    ______ ____
ROOT
ATOM      1  C   UNL     1       9.562  -0.134  23.929  0.00  0.00    +0.193 C 
ATOM      2  C   UNL     1       8.568  -1.316  23.862  0.00  0.00    +0.153 C 
ATOM      3  N   UNL     1       8.049  -1.475  25.226  0.00  0.00    -0.285 N 
ATOM      4  C   UNL     1       7.530  -2.662  25.715  0.00  0.00    +0.237 C 
ATOM      5  O   UNL     1       7.600  -2.921  26.919  0.00  0.00    -0.274 OA
ATOM      6  C   UNL     1       8.816  -0.621  26.133  0.00  0.00    +0.166 C 
ATOM      7  C   UNL     1       9.159   0.555  25.234  0.00  0.00    +0.078 C 
ENDROOT
BRANCH   6   8
ATOM      8  C   UNL     1       8.089  -0.138  27.393  0.00  0.00    +0.235 C 
ATOM      9  N   UNL     1       6.802   0.316  27.213  0.00  0.00    -0.298 N 
ATOM     10  H   UNL     1       6.285  -0.094  26.449  0.00  0.00    +0.150 HD
ATOM     11  O   UNL     1       8.658  -0.034  28.480  0.00  0.00    -0.274 OA
BRANCH   9  12
ATOM     12  C   UNL     1       6.037   0.814  28.342  0.00  0.00    +0.138 C 
ATOM     13  C   UNL     1       4.513   0.796  28.194  0.00  0.00    +0.048 C 
ATOM     14  C   UNL     1       5.177  -0.161  29.131  0.00  0.00    +0.048 C 
BRANCH  12  15
ATOM     15  C   UNL     1       6.706   1.922  29.136  0.00  0.00    +0.329 C 
ATOM     16  O   UNL     1       6.660   1.979  30.352  0.00  0.00    -0.249 OA
BRANCH  15  17
ATOM     17  O   UNL     1       7.399   2.793  28.358  0.00  0.00    -0.479 OA
ATOM     18  H   UNL     1       8.218   3.101  28.812  0.00  0.00    +0.295 HD
ENDBRANCH  15  17
ENDBRANCH  12  15
BRANCH  13  19
ATOM     19  C   UNL     1       3.725   1.927  28.689  0.00  0.00    -0.028 C 
ATOM     20  C   UNL     1       3.005   1.914  29.820  0.00  0.00    +0.004 C 
ENDBRANCH  13  19
ENDBRANCH   9  12
ENDBRANCH   6   8
BRANCH   1  21
ATOM     21  O   UNL     1       9.404   0.723  22.799  0.00  0.00    -0.486 OA
BRANCH  21  24
ATOM     22  C   UNL     1       6.790   3.280  23.161  0.00  0.00    +0.094 A 
ATOM     23  C   UNL     1       7.358   2.031  22.978  0.00  0.00    +0.076 A 
ATOM     24  C   UNL     1       8.740   1.915  23.001  0.00  0.00    +0.132 A 
ATOM     25  C   UNL     1       9.531   3.056  23.242  0.00  0.00    +0.043 A 
ATOM     26  C   UNL     1      10.939   2.985  23.251  0.00  0.00    +0.017 A 
ATOM     27  C   UNL     1      11.723   4.116  23.451  0.00  0.00    +0.047 A 
ATOM     28  C   UNL     1      11.116   5.346  23.676  0.00  0.00    +0.136 A 
ATOM     29  C   UNL     1       9.705   5.416  23.686  0.00  0.00    +0.085 A 
ATOM     30 BR   UNL     1       8.865   7.108  24.031  0.00  0.00    -0.044 Br
ATOM     31  C   UNL     1       8.884   4.294  23.450  0.00  0.00    +0.093 A 
ATOM     32  N   UNL     1       7.529   4.388  23.406  0.00  0.00    -0.244 NA
BRANCH  22  39
ATOM     33  C   UNL     1       2.962   6.369  21.141  0.00  0.00    +0.221 C 
ATOM     34  N   UNL     1       2.559   5.195  21.748  0.00  0.00    -0.264 N 
ATOM     35  H   UNL     1       1.584   4.950  21.827  0.00  0.00    +0.157 HD
ATOM     36  C   UNL     1       3.469   4.375  22.364  0.00  0.00    +0.165 A 
ATOM     37  S   UNL     1       2.817   3.104  23.291  0.00  0.00    -0.060 S 
ATOM     38  C   UNL     1       4.416   2.612  23.710  0.00  0.00    +0.078 A 
ATOM     39  C   UNL     1       5.336   3.423  23.070  0.00  0.00    +0.098 A 
ATOM     40  N   UNL     1       4.772   4.436  22.309  0.00  0.00    -0.223 NA
ATOM     41  O   UNL     1       4.094   6.844  21.188  0.00  0.00    -0.275 OA
BRANCH  33  43
ATOM     42  C   UNL     1       2.093   7.047  18.884  0.00  0.00    +0.017 C 
ATOM     43  C   UNL     1       1.835   7.087  20.392  0.00  0.00    +0.069 C 
ATOM     44  C   UNL     1       0.485   6.444  20.705  0.00  0.00    +0.017 C 
ENDBRANCH  33  43
ENDBRANCH  22  39
BRANCH  28  45
ATOM     45  O   UNL     1      11.812   6.509  23.890  0.00  0.00    -0.494 OA
ATOM     46  C   UNL     1      12.286   6.767  25.208  0.00  0.00    +0.277 C 
ENDBRANCH  28  45
ENDBRANCH  21  24
ENDBRANCH   1  21
BRANCH   4  47
ATOM     47  C   UNL     1       6.736  -3.579  24.752  0.00  0.00    +0.168 C 
BRANCH  47  48
ATOM     48  N   UNL     1       6.392  -4.767  25.538  0.00  0.00    -0.269 N 
ATOM     49  H   UNL     1       5.583  -4.715  26.146  0.00  0.00    +0.153 HD
ATOM     50  C   UNL     1       7.372  -5.580  26.028  0.00  0.00    +0.401 C 
ATOM     51  O   UNL     1       8.542  -5.546  25.675  0.00  0.00    -0.226 OA
BRANCH  50  52
ATOM     52  O   UNL     1       6.859  -6.394  26.983  0.00  0.00    -0.447 OA
BRANCH  52  53
ATOM     53  C   UNL     1       5.576  -6.017  27.499  0.00  0.00    +0.178 C 
ATOM     54  C   UNL     1       5.574  -6.119  29.029  0.00  0.00    +0.045 C 
ATOM     55  C   UNL     1       4.199  -6.660  29.428  0.00  0.00    +0.004 C 
ATOM     56  C   UNL     1       3.406  -6.787  28.135  0.00  0.00    +0.004 C 
ATOM     57  C   UNL     1       4.469  -6.975  27.067  0.00  0.00    +0.045 C 
ENDBRANCH  52  53
ENDBRANCH  50  52
ENDBRANCH  47  48
BRANCH  47  58
ATOM     58  C   UNL     1       5.478  -2.867  24.144  0.00  0.00    -0.011 C 
ATOM     59  C   UNL     1       4.279  -3.839  24.184  0.00  0.00    +0.013 C 
ATOM     60  C   UNL     1       5.698  -2.496  22.663  0.00  0.00    +0.013 C 
ATOM     61  C   UNL     1       5.088  -1.585  24.907  0.00  0.00    +0.013 C 
ENDBRANCH  47  58
ENDBRANCH   4  47
TORSDOF 15
ENDMDL
MODEL 6
REMARK VINA RESULT:      -4.8      2.760      7.700
REMARK  Name = 
REMARK  21 active torsions:
REMARK  status: ('A' for Active; 'I' for Inactive)
REMARK    1  A    between atoms: C_1  and  C_2
REMARK    2  A    between atoms: C_2  and  C_3
REMARK    3  A    between atoms: C_2  and  C_4
REMARK    4  A    between atoms: C_9  and  C_12
REMARK    5  A    between atoms: C_18  and  O_21
REMARK    6  A    between atoms: O_21  and  C_22
REMARK    7  A    between atoms: C_23  and  O_25
REMARK    8  A    between atoms: O_25  and  C_26
REMARK    9  A    between atoms: C_29  and  C_50
REMARK   10  A    between atoms: C_33  and  C_35
REMARK   11  A    between atoms: C_35  and  C_37
REMARK   12  A    between atoms: C_35  and  N_41
REMARK   13  A    between atoms: C_37  and  C_38
REMARK   14  A    between atoms: C_37  and  C_39
REMARK   15  A    between atoms: C_37  and  C_40
REMARK   16  A    between atoms: C_42  and  O_44
REMARK   17  A    between atoms: O_44  and  C_45
REMARK   18  A    between atoms: N_52  and  C_53
REMARK   19  A    between atoms: C_53  and  C_59
REMARK   20  A    between atoms: C_55  and  C_57
REMARK   21  A    between atoms: C_59  and  O_61
REMARK                            x       y       z     vdW  Elec       q    Type
REMARK                         _______ _______ _______ _____ _____    ______ ____
ROOT
ATOM      1  C   UNL     1       5.595   1.913  28.580  0.00  0.00    +0.193 C 
ATOM      2  C   UNL     1       4.790   0.637  28.240  0.00  0.00    +0.153 C 
ATOM      3  N   UNL     1       3.580   1.103  27.554  0.00  0.00    -0.285 N 
ATOM      4  C   UNL     1       2.399   0.382  27.508  0.00  0.00    +0.237 C 
ATOM      5  O   UNL     1       1.316   0.967  27.414  0.00  0.00    -0.274 OA
ATOM      6  C   UNL     1       3.505   2.562  27.651  0.00  0.00    +0.166 C 
ATOM      7  C   UNL     1       4.975   2.948  27.640  0.00  0.00    +0.078 C 
ENDROOT
BRANCH   6   8
ATOM      8  C   UNL     1       2.753   3.283  26.529  0.00  0.00    +0.235 C 
ATOM      9  N   UNL     1       3.331   3.230  25.280  0.00  0.00    -0.298 N 
ATOM     10  H   UNL     1       3.890   2.414  25.080  0.00  0.00    +0.150 HD
ATOM     11  O   UNL     1       1.761   3.981  26.745  0.00  0.00    -0.274 OA
BRANCH   9  12
ATOM     12  C   UNL     1       2.706   3.900  24.155  0.00  0.00    +0.138 C 
ATOM     13  C   UNL     1       2.635   3.110  22.845  0.00  0.00    +0.048 C 
ATOM     14  C   UNL     1       1.385   3.363  23.624  0.00  0.00    +0.048 C 
BRANCH  12  15
ATOM     15  C   UNL     1       2.887   5.407  24.119  0.00  0.00    +0.329 C 
ATOM     16  O   UNL     1       1.952   6.178  23.992  0.00  0.00    -0.249 OA
BRANCH  15  17
ATOM     17  O   UNL     1       4.175   5.795  24.302  0.00  0.00    -0.479 OA
ATOM     18  H   UNL     1       4.267   6.773  24.217  0.00  0.00    +0.295 HD
ENDBRANCH  15  17
ENDBRANCH  12  15
BRANCH  13  19
ATOM     19  C   UNL     1       2.895   3.792  21.574  0.00  0.00    -0.028 C 
ATOM     20  C   UNL     1       1.989   3.947  20.598  0.00  0.00    +0.004 C 
ENDBRANCH  13  19
ENDBRANCH   9  12
ENDBRANCH   6   8
BRANCH   1  21
ATOM     21  O   UNL     1       6.985   1.717  28.321  0.00  0.00    -0.486 OA
BRANCH  21  24
ATOM     22  C   UNL     1       7.857  -0.968  25.968  0.00  0.00    +0.094 A 
ATOM     23  C   UNL     1       7.490  -0.362  27.158  0.00  0.00    +0.076 A 
ATOM     24  C   UNL     1       7.319   1.015  27.181  0.00  0.00    +0.132 A 
ATOM     25  C   UNL     1       7.488   1.758  25.997  0.00  0.00    +0.043 A 
ATOM     26  C   UNL     1       7.345   3.160  25.983  0.00  0.00    +0.017 A 
ATOM     27  C   UNL     1       7.548   3.901  24.824  0.00  0.00    +0.047 A 
ATOM     28  C   UNL     1       7.872   3.252  23.637  0.00  0.00    +0.136 A 
ATOM     29  C   UNL     1       7.997   1.846  23.644  0.00  0.00    +0.085 A 
ATOM     30 BR   UNL     1       8.410   0.945  22.000  0.00  0.00    -0.044 Br
ATOM     31  C   UNL     1       7.833   1.071  24.812  0.00  0.00    +0.093 A 
ATOM     32  N   UNL     1       8.013  -0.276  24.815  0.00  0.00    -0.244 NA
BRANCH  22  39
ATOM     33  C   UNL     1       6.403  -5.542  28.258  0.00  0.00    +0.221 C 
ATOM     34  N   UNL     1       7.259  -5.632  27.178  0.00  0.00    -0.264 N 
ATOM     35  H   UNL     1       7.611  -6.520  26.856  0.00  0.00    +0.157 HD
ATOM     36  C   UNL     1       7.747  -4.502  26.573  0.00  0.00    +0.165 A 
ATOM     37  S   UNL     1       8.985  -4.746  25.430  0.00  0.00    -0.060 S 
ATOM     38  C   UNL     1       9.067  -3.041  25.179  0.00  0.00    +0.078 A 
ATOM     39  C   UNL     1       8.106  -2.411  25.950  0.00  0.00    +0.098 A 
ATOM     40  N   UNL     1       7.365  -3.266  26.751  0.00  0.00    -0.223 NA
ATOM     41  O   UNL     1       6.098  -4.505  28.842  0.00  0.00    -0.275 OA
BRANCH  33  43
ATOM     42  C   UNL     1       6.165  -7.118  30.200  0.00  0.00    +0.017 C 
ATOM     43  C   UNL     1       5.855  -6.897  28.718  0.00  0.00    +0.069 C 
ATOM     44  C   UNL     1       4.348  -6.974  28.486  0.00  0.00    +0.017 C 
ENDBRANCH  33  43
ENDBRANCH  22  39
BRANCH  28  45
ATOM     45  O   UNL     1       8.081   3.904  22.448  0.00  0.00    -0.494 OA
ATOM     46  C   UNL     1       7.321   5.081  22.192  0.00  0.00    +0.277 C 
ENDBRANCH  28  45
ENDBRANCH  21  24
ENDBRANCH   1  21
BRANCH   4  47
ATOM     47  C   UNL     1       2.474  -1.163  27.426  0.00  0.00    +0.168 C 
BRANCH  47  48
ATOM     48  N   UNL     1       3.716  -1.457  26.707  0.00  0.00    -0.269 N 
ATOM     49  H   UNL     1       4.392  -0.709  26.603  0.00  0.00    +0.153 HD
ATOM     50  C   UNL     1       3.716  -2.321  25.651  0.00  0.00    +0.401 C 
ATOM     51  O   UNL     1       2.797  -3.079  25.374  0.00  0.00    -0.226 OA
BRANCH  50  52
ATOM     52  O   UNL     1       4.864  -2.182  24.943  0.00  0.00    -0.447 OA
BRANCH  52  53
ATOM     53  C   UNL     1       4.945  -2.940  23.730  0.00  0.00    +0.178 C 
ATOM     54  C   UNL     1       5.355  -4.385  24.040  0.00  0.00    +0.045 C 
ATOM     55  C   UNL     1       6.303  -4.819  22.919  0.00  0.00    +0.004 C 
ATOM     56  C   UNL     1       6.363  -3.651  21.944  0.00  0.00    +0.004 C 
ATOM     57  C   UNL     1       6.047  -2.438  22.801  0.00  0.00    +0.045 C 
ENDBRANCH  52  53
ENDBRANCH  50  52
ENDBRANCH  47  48
BRANCH  47  58
ATOM     58  C   UNL     1       2.413  -1.845  28.837  0.00  0.00    -0.011 C 
ATOM     59  C   UNL     1       1.470  -3.065  28.768  0.00  0.00    +0.013 C 
ATOM     60  C   UNL     1       1.828  -0.893  29.900  0.00  0.00    +0.013 C 
ATOM     61  C   UNL     1       3.792  -2.325  29.330  0.00  0.00    +0.013 C 
ENDBRANCH  47  58
ENDBRANCH   4  47
TORSDOF 15
ENDMDL
MODEL 7
REMARK VINA RESULT:      -4.1      3.344      8.118
REMARK  Name = 
REMARK  21 active torsions:
REMARK  status: ('A' for Active; 'I' for Inactive)
REMARK    1  A    between atoms: C_1  and  C_2
REMARK    2  A    between atoms: C_2  and  C_3
REMARK    3  A    between atoms: C_2  and  C_4
REMARK    4  A    between atoms: C_9  and  C_12
REMARK    5  A    between atoms: C_18  and  O_21
REMARK    6  A    between atoms: O_21  and  C_22
REMARK    7  A    between atoms: C_23  and  O_25
REMARK    8  A    between atoms: O_25  and  C_26
REMARK    9  A    between atoms: C_29  and  C_50
REMARK   10  A    between atoms: C_33  and  C_35
REMARK   11  A    between atoms: C_35  and  C_37
REMARK   12  A    between atoms: C_35  and  N_41
REMARK   13  A    between atoms: C_37  and  C_38
REMARK   14  A    between atoms: C_37  and  C_39
REMARK   15  A    between atoms: C_37  and  C_40
REMARK   16  A    between atoms: C_42  and  O_44
REMARK   17  A    between atoms: O_44  and  C_45
REMARK   18  A    between atoms: N_52  and  C_53
REMARK   19  A    between atoms: C_53  and  C_59
REMARK   20  A    between atoms: C_55  and  C_57
REMARK   21  A    between atoms: C_59  and  O_61
REMARK                            x       y       z     vdW  Elec       q    Type
REMARK                         _______ _______ _______ _____ _____    ______ ____
ROOT
ATOM      1  C   UNL     1       3.774   0.615  28.154  0.00  0.00    +0.193 C 
ATOM      2  C   UNL     1       2.932   1.890  27.921  0.00  0.00    +0.153 C 
ATOM      3  N   UNL     1       3.894   2.942  27.571  0.00  0.00    -0.285 N 
ATOM      4  C   UNL     1       3.651   4.293  27.751  0.00  0.00    +0.237 C 
ATOM      5  O   UNL     1       4.587   5.071  27.953  0.00  0.00    -0.274 OA
ATOM      6  C   UNL     1       5.252   2.441  27.787  0.00  0.00    +0.166 C 
ATOM      7  C   UNL     1       5.092   0.965  27.460  0.00  0.00    +0.078 C 
ENDROOT
BRANCH   6   8
ATOM      8  C   UNL     1       6.354   3.064  26.925  0.00  0.00    +0.235 C 
ATOM      9  N   UNL     1       6.046   3.263  25.597  0.00  0.00    -0.298 N 
ATOM     10  H   UNL     1       5.073   3.429  25.384  0.00  0.00    +0.150 HD
ATOM     11  O   UNL     1       7.493   3.256  27.352  0.00  0.00    -0.274 OA
BRANCH   9  12
ATOM     12  C   UNL     1       7.030   3.829  24.694  0.00  0.00    +0.138 C 
ATOM     13  C   UNL     1       6.702   5.202  24.101  0.00  0.00    +0.048 C 
ATOM     14  C   UNL     1       7.786   5.077  25.123  0.00  0.00    +0.048 C 
BRANCH  12  15
ATOM     15  C   UNL     1       7.807   2.817  23.871  0.00  0.00    +0.329 C 
ATOM     16  O   UNL     1       9.017   2.871  23.734  0.00  0.00    -0.249 OA
BRANCH  15  17
ATOM     17  O   UNL     1       7.026   1.829  23.363  0.00  0.00    -0.479 OA
ATOM     18  H   UNL     1       6.740   2.039  22.442  0.00  0.00    +0.295 HD
ENDBRANCH  15  17
ENDBRANCH  12  15
BRANCH  13  19
ATOM     19  C   UNL     1       7.006   5.474  22.693  0.00  0.00    -0.028 C 
ATOM     20  C   UNL     1       6.575   6.549  22.019  0.00  0.00    +0.004 C 
ENDBRANCH  13  19
ENDBRANCH   9  12
ENDBRANCH   6   8
BRANCH   1  21
ATOM     21  O   UNL     1       3.143  -0.521  27.565  0.00  0.00    -0.486 OA
BRANCH  21  24
ATOM     22  C   UNL     1       5.593  -3.245  27.275  0.00  0.00    +0.094 A 
ATOM     23  C   UNL     1       5.039  -1.985  27.127  0.00  0.00    +0.076 A 
ATOM     24  C   UNL     1       3.793  -1.733  27.682  0.00  0.00    +0.132 A 
ATOM     25  C   UNL     1       3.136  -2.745  28.407  0.00  0.00    +0.043 A 
ATOM     26  C   UNL     1       1.859  -2.537  28.967  0.00  0.00    +0.017 A 
ATOM     27  C   UNL     1       1.191  -3.547  29.651  0.00  0.00    +0.047 A 
ATOM     28  C   UNL     1       1.797  -4.787  29.818  0.00  0.00    +0.136 A 
ATOM     29  C   UNL     1       3.085  -4.992  29.274  0.00  0.00    +0.085 A 
ATOM     30 BR   UNL     1       3.938  -6.692  29.532  0.00  0.00    -0.044 Br
ATOM     31  C   UNL     1       3.771  -3.999  28.544  0.00  0.00    +0.093 A 
ATOM     32  N   UNL     1       4.985  -4.230  27.977  0.00  0.00    -0.244 NA
BRANCH  22  39
ATOM     33  C   UNL     1       9.045  -1.408  23.671  0.00  0.00    +0.221 C 
ATOM     34  N   UNL     1       9.434  -2.517  24.397  0.00  0.00    -0.264 N 
ATOM     35  H   UNL     1      10.319  -2.971  24.232  0.00  0.00    +0.157 HD
ATOM     36  C   UNL     1       8.579  -3.105  25.293  0.00  0.00    +0.165 A 
ATOM     37  S   UNL     1       9.081  -4.605  25.925  0.00  0.00    -0.060 S 
ATOM     38  C   UNL     1       7.620  -4.689  26.839  0.00  0.00    +0.078 A 
ATOM     39  C   UNL     1       6.876  -3.541  26.634  0.00  0.00    +0.098 A 
ATOM     40  N   UNL     1       7.439  -2.647  25.735  0.00  0.00    -0.223 NA
ATOM     41  O   UNL     1       7.914  -0.927  23.656  0.00  0.00    -0.275 OA
BRANCH  33  43
ATOM     42  C   UNL     1       9.585  -0.036  21.637  0.00  0.00    +0.017 C 
ATOM     43  C   UNL     1      10.170  -0.807  22.822  0.00  0.00    +0.069 C 
ATOM     44  C   UNL     1      11.042   0.120  23.665  0.00  0.00    +0.017 C 
ENDBRANCH  33  43
ENDBRANCH  22  39
BRANCH  28  45
ATOM     45  O   UNL     1       1.214  -5.834  30.484  0.00  0.00    -0.494 OA
ATOM     46  C   UNL     1       0.444  -6.761  29.724  0.00  0.00    +0.277 C 
ENDBRANCH  28  45
ENDBRANCH  21  24
ENDBRANCH   1  21
BRANCH   4  47
ATOM     47  C   UNL     1       2.211   4.824  27.543  0.00  0.00    +0.168 C 
BRANCH  47  48
ATOM     48  N   UNL     1       1.607   3.939  26.544  0.00  0.00    -0.269 N 
ATOM     49  H   UNL     1       2.025   3.026  26.406  0.00  0.00    +0.153 HD
ATOM     50  C   UNL     1       1.067   4.453  25.400  0.00  0.00    +0.401 C 
ATOM     51  O   UNL     1       0.821   5.637  25.221  0.00  0.00    -0.226 OA
BRANCH  50  52
ATOM     52  O   UNL     1       0.885   3.463  24.493  0.00  0.00    -0.447 OA
BRANCH  52  53
ATOM     53  C   UNL     1       1.193   3.798  23.134  0.00  0.00    +0.178 C 
ATOM     54  C   UNL     1       0.550   2.781  22.183  0.00  0.00    +0.045 C 
ATOM     55  C   UNL     1       1.555   2.545  21.053  0.00  0.00    +0.004 C 
ATOM     56  C   UNL     1       2.723   3.482  21.327  0.00  0.00    +0.004 C 
ATOM     57  C   UNL     1       2.685   3.689  22.831  0.00  0.00    +0.045 C 
ENDBRANCH  52  53
ENDBRANCH  50  52
ENDBRANCH  47  48
BRANCH  47  58
ATOM     58  C   UNL     1       1.391   4.879  28.879  0.00  0.00    -0.011 C 
ATOM     59  C   UNL     1       0.443   3.663  28.941  0.00  0.00    +0.013 C 
ATOM     60  C   UNL     1       0.502   6.138  28.946  0.00  0.00    +0.013 C 
ATOM     61  C   UNL     1       2.288   4.860  30.134  0.00  0.00    +0.013 C 
ENDBRANCH  47  58
ENDBRANCH   4  47
TORSDOF 15
ENDMDL
MODEL 8
REMARK VINA RESULT:      -3.9      2.953      8.861
REMARK  Name = 
REMARK  21 active torsions:
REMARK  status: ('A' for Active; 'I' for Inactive)
REMARK    1  A    between atoms: C_1  and  C_2
REMARK    2  A    between atoms: C_2  and  C_3
REMARK    3  A    between atoms: C_2  and  C_4
REMARK    4  A    between atoms: C_9  and  C_12
REMARK    5  A    between atoms: C_18  and  O_21
REMARK    6  A    between atoms: O_21  and  C_22
REMARK    7  A    between atoms: C_23  and  O_25
REMARK    8  A    between atoms: O_25  and  C_26
REMARK    9  A    between atoms: C_29  and  C_50
REMARK   10  A    between atoms: C_33  and  C_35
REMARK   11  A    between atoms: C_35  and  C_37
REMARK   12  A    between atoms: C_35  and  N_41
REMARK   13  A    between atoms: C_37  and  C_38
REMARK   14  A    between atoms: C_37  and  C_39
REMARK   15  A    between atoms: C_37  and  C_40
REMARK   16  A    between atoms: C_42  and  O_44
REMARK   17  A    between atoms: O_44  and  C_45
REMARK   18  A    between atoms: N_52  and  C_53
REMARK   19  A    between atoms: C_53  and  C_59
REMARK   20  A    between atoms: C_55  and  C_57
REMARK   21  A    between atoms: C_59  and  O_61
REMARK                            x       y       z     vdW  Elec       q    Type
REMARK                         _______ _______ _______ _____ _____    ______ ____
ROOT
ATOM      1  C   UNL     1       8.229  -0.443  24.960  0.00  0.00    +0.193 C 
ATOM      2  C   UNL     1       7.537  -1.804  24.716  0.00  0.00    +0.153 C 
ATOM      3  N   UNL     1       6.550  -1.944  25.793  0.00  0.00    -0.285 N 
ATOM      4  C   UNL     1       6.067  -3.164  26.236  0.00  0.00    +0.237 C 
ATOM      5  O   UNL     1       5.691  -3.296  27.404  0.00  0.00    -0.274 OA
ATOM      6  C   UNL     1       6.752  -0.874  26.771  0.00  0.00    +0.166 C 
ATOM      7  C   UNL     1       7.241   0.263  25.890  0.00  0.00    +0.078 C 
ENDROOT
BRANCH   6   8
ATOM      8  C   UNL     1       5.521  -0.440  27.572  0.00  0.00    +0.235 C 
ATOM      9  N   UNL     1       4.361  -0.260  26.851  0.00  0.00    -0.298 N 
ATOM     10  H   UNL     1       4.259  -0.824  26.020  0.00  0.00    +0.150 HD
ATOM     11  O   UNL     1       5.585  -0.140  28.765  0.00  0.00    -0.274 OA
BRANCH   9  12
ATOM     12  C   UNL     1       3.145   0.170  27.516  0.00  0.00    +0.138 C 
ATOM     13  C   UNL     1       3.187   1.544  28.190  0.00  0.00    +0.048 C 
ATOM     14  C   UNL     1       2.379   1.355  26.947  0.00  0.00    +0.048 C 
BRANCH  12  15
ATOM     15  C   UNL     1       2.314  -0.944  28.125  0.00  0.00    +0.329 C 
ATOM     16  O   UNL     1       1.107  -1.022  27.973  0.00  0.00    -0.249 OA
BRANCH  15  17
ATOM     17  O   UNL     1       3.058  -1.861  28.795  0.00  0.00    -0.479 OA
ATOM     18  H   UNL     1       3.011  -1.714  29.769  0.00  0.00    +0.295 HD
ENDBRANCH  15  17
ENDBRANCH  12  15
BRANCH  13  19
ATOM     19  C   UNL     1       2.549   1.730  29.496  0.00  0.00    -0.028 C 
ATOM     20  C   UNL     1       2.311   2.922  30.062  0.00  0.00    +0.004 C 
ENDBRANCH  13  19
ENDBRANCH   9  12
ENDBRANCH   6   8
BRANCH   1  21
ATOM     21  O   UNL     1       8.405   0.261  23.730  0.00  0.00    -0.486 OA
BRANCH  21  24
ATOM     22  C   UNL     1       6.081   3.095  23.472  0.00  0.00    +0.094 A 
ATOM     23  C   UNL     1       6.511   1.784  23.581  0.00  0.00    +0.076 A 
ATOM     24  C   UNL     1       7.874   1.531  23.651  0.00  0.00    +0.132 A 
ATOM     25  C   UNL     1       8.783   2.607  23.646  0.00  0.00    +0.043 A 
ATOM     26  C   UNL     1      10.175   2.393  23.694  0.00  0.00    +0.017 A 
ATOM     27  C   UNL     1      11.076   3.451  23.650  0.00  0.00    +0.047 A 
ATOM     28  C   UNL     1      10.605   4.757  23.586  0.00  0.00    +0.136 A 
ATOM     29  C   UNL     1       9.210   4.976  23.557  0.00  0.00    +0.085 A 
ATOM     30 BR   UNL     1       8.557   6.780  23.503  0.00  0.00    -0.044 Br
ATOM     31  C   UNL     1       8.273   3.922  23.563  0.00  0.00    +0.093 A 
ATOM     32  N   UNL     1       6.935   4.146  23.476  0.00  0.00    -0.244 NA
BRANCH  22  39
ATOM     33  C   UNL     1       1.828   4.891  26.111  0.00  0.00    +0.221 C 
ATOM     34  N   UNL     1       1.664   4.641  24.763  0.00  0.00    -0.264 N 
ATOM     35  H   UNL     1       0.772   4.768  24.308  0.00  0.00    +0.157 HD
ATOM     36  C   UNL     1       2.683   4.104  24.019  0.00  0.00    +0.165 A 
ATOM     37  S   UNL     1       2.270   3.605  22.443  0.00  0.00    -0.060 S 
ATOM     38  C   UNL     1       3.896   3.078  22.204  0.00  0.00    +0.078 A 
ATOM     39  C   UNL     1       4.649   3.367  23.327  0.00  0.00    +0.098 A 
ATOM     40  N   UNL     1       3.932   3.948  24.363  0.00  0.00    -0.223 NA
ATOM     41  O   UNL     1       2.805   4.567  26.783  0.00  0.00    -0.275 OA
BRANCH  33  43
ATOM     42  C   UNL     1       0.637   5.400  28.264  0.00  0.00    +0.017 C 
ATOM     43  C   UNL     1       0.636   5.613  26.748  0.00  0.00    +0.069 C 
ATOM     44  C   UNL     1       0.682   7.107  26.435  0.00  0.00    +0.017 C 
ENDBRANCH  33  43
ENDBRANCH  22  39
BRANCH  28  45
ATOM     45  O   UNL     1      11.423   5.858  23.547  0.00  0.00    -0.494 OA
ATOM     46  C   UNL     1      12.807   5.650  23.281  0.00  0.00    +0.277 C 
ENDBRANCH  28  45
ENDBRANCH  21  24
ENDBRANCH   1  21
BRANCH   4  47
ATOM     47  C   UNL     1       5.871  -4.304  25.207  0.00  0.00    +0.168 C 
BRANCH  47  48
ATOM     48  N   UNL     1       5.538  -5.492  25.998  0.00  0.00    -0.269 N 
ATOM     49  H   UNL     1       4.567  -5.636  26.252  0.00  0.00    +0.153 HD
ATOM     50  C   UNL     1       6.408  -5.962  26.939  0.00  0.00    +0.401 C 
ATOM     51  O   UNL     1       7.577  -5.618  27.037  0.00  0.00    -0.226 OA
BRANCH  50  52
ATOM     52  O   UNL     1       5.768  -6.830  27.762  0.00  0.00    -0.447 OA
BRANCH  52  53
ATOM     53  C   UNL     1       4.828  -6.247  28.673  0.00  0.00    +0.178 C 
ATOM     54  C   UNL     1       4.843  -7.010  30.003  0.00  0.00    +0.045 C 
ATOM     55  C   UNL     1       3.392  -7.076  30.485  0.00  0.00    +0.004 C 
ATOM     56  C   UNL     1       2.577  -6.287  29.470  0.00  0.00    +0.004 C 
ATOM     57  C   UNL     1       3.387  -6.384  28.190  0.00  0.00    +0.045 C 
ENDBRANCH  52  53
ENDBRANCH  50  52
ENDBRANCH  47  48
BRANCH  47  58
ATOM     58  C   UNL     1       4.780  -3.964  24.133  0.00  0.00    -0.011 C 
ATOM     59  C   UNL     1       5.449  -3.245  22.943  0.00  0.00    +0.013 C 
ATOM     60  C   UNL     1       3.716  -2.998  24.693  0.00  0.00    +0.013 C 
ATOM     61  C   UNL     1       4.056  -5.216  23.598  0.00  0.00    +0.013 C 
ENDBRANCH  47  58
ENDBRANCH   4  47
TORSDOF 15
ENDMDL
MODEL 9
REMARK VINA RESULT:      -3.7      3.243      9.358
REMARK  Name = 
REMARK  21 active torsions:
REMARK  status: ('A' for Active; 'I' for Inactive)
REMARK    1  A    between atoms: C_1  and  C_2
REMARK    2  A    between atoms: C_2  and  C_3
REMARK    3  A    between atoms: C_2  and  C_4
REMARK    4  A    between atoms: C_9  and  C_12
REMARK    5  A    between atoms: C_18  and  O_21
REMARK    6  A    between atoms: O_21  and  C_22
REMARK    7  A    between atoms: C_23  and  O_25
REMARK    8  A    between atoms: O_25  and  C_26
REMARK    9  A    between atoms: C_29  and  C_50
REMARK   10  A    between atoms: C_33  and  C_35
REMARK   11  A    between atoms: C_35  and  C_37
REMARK   12  A    between atoms: C_35  and  N_41
REMARK   13  A    between atoms: C_37  and  C_38
REMARK   14  A    between atoms: C_37  and  C_39
REMARK   15  A    between atoms: C_37  and  C_40
REMARK   16  A    between atoms: C_42  and  O_44
REMARK   17  A    between atoms: O_44  and  C_45
REMARK   18  A    between atoms: N_52  and  C_53
REMARK   19  A    between atoms: C_53  and  C_59
REMARK   20  A    between atoms: C_55  and  C_57
REMARK   21  A    between atoms: C_59  and  O_61
REMARK                            x       y       z     vdW  Elec       q    Type
REMARK                         _______ _______ _______ _____ _____    ______ ____
ROOT
ATOM      1  C   UNL     1       6.594   0.834  28.766  0.00  0.00    +0.193 C 
ATOM      2  C   UNL     1       5.389  -0.063  28.401  0.00  0.00    +0.153 C 
ATOM      3  N   UNL     1       4.265   0.854  28.179  0.00  0.00    -0.285 N 
ATOM      4  C   UNL     1       2.937   0.483  28.307  0.00  0.00    +0.237 C 
ATOM      5  O   UNL     1       2.088   1.318  28.631  0.00  0.00    -0.274 OA
ATOM      6  C   UNL     1       4.658   2.202  28.592  0.00  0.00    +0.166 C 
ATOM      7  C   UNL     1       6.141   2.206  28.263  0.00  0.00    +0.078 C 
ENDROOT
BRANCH   6   8
ATOM      8  C   UNL     1       3.950   3.364  27.888  0.00  0.00    +0.235 C 
ATOM      9  N   UNL     1       2.957   3.993  28.605  0.00  0.00    -0.298 N 
ATOM     10  H   UNL     1       3.059   3.988  29.609  0.00  0.00    +0.150 HD
ATOM     11  O   UNL     1       4.158   3.641  26.705  0.00  0.00    -0.274 OA
BRANCH   9  12
ATOM     12  C   UNL     1       2.214   5.092  28.017  0.00  0.00    +0.138 C 
ATOM     13  C   UNL     1       1.973   5.022  26.507  0.00  0.00    +0.048 C 
ATOM     14  C   UNL     1       0.830   4.820  27.448  0.00  0.00    +0.048 C 
BRANCH  12  15
ATOM     15  C   UNL     1       2.416   6.439  28.687  0.00  0.00    +0.329 C 
ATOM     16  O   UNL     1       1.490   7.108  29.112  0.00  0.00    -0.249 OA
BRANCH  15  17
ATOM     17  O   UNL     1       3.724   6.782  28.814  0.00  0.00    -0.479 OA
ATOM     18  H   UNL     1       4.256   6.031  29.168  0.00  0.00    +0.295 HD
ENDBRANCH  15  17
ENDBRANCH  12  15
BRANCH  13  19
ATOM     19  C   UNL     1       2.091   6.238  25.698  0.00  0.00    -0.028 C 
ATOM     20  C   UNL     1       3.204   6.613  25.051  0.00  0.00    +0.004 C 
ENDBRANCH  13  19
ENDBRANCH   9  12
ENDBRANCH   6   8
BRANCH   1  21
ATOM     21  O   UNL     1       7.777   0.384  28.107  0.00  0.00    -0.486 OA
BRANCH  21  24
ATOM     22  C   UNL     1       7.521   1.566  24.637  0.00  0.00    +0.094 A 
ATOM     23  C   UNL     1       7.508   1.610  26.021  0.00  0.00    +0.076 A 
ATOM     24  C   UNL     1       7.794   0.452  26.729  0.00  0.00    +0.132 A 
ATOM     25  C   UNL     1       8.123  -0.727  26.033  0.00  0.00    +0.043 A 
ATOM     26  C   UNL     1       8.398  -1.930  26.714  0.00  0.00    +0.017 A 
ATOM     27  C   UNL     1       8.685  -3.105  26.029  0.00  0.00    +0.047 A 
ATOM     28  C   UNL     1       8.734  -3.100  24.639  0.00  0.00    +0.136 A 
ATOM     29  C   UNL     1       8.477  -1.892  23.955  0.00  0.00    +0.085 A 
ATOM     30 BR   UNL     1       8.577  -1.875  22.038  0.00  0.00    -0.044 Br
ATOM     31  C   UNL     1       8.146  -0.694  24.621  0.00  0.00    +0.093 A 
ATOM     32  N   UNL     1       7.846   0.448  23.946  0.00  0.00    -0.244 NA
BRANCH  22  39
ATOM     33  C   UNL     1       3.436   3.942  22.199  0.00  0.00    +0.221 C 
ATOM     34  N   UNL     1       4.609   4.665  22.295  0.00  0.00    -0.264 N 
ATOM     35  H   UNL     1       4.693   5.588  21.898  0.00  0.00    +0.157 HD
ATOM     36  C   UNL     1       5.736   4.105  22.839  0.00  0.00    +0.165 A 
ATOM     37  S   UNL     1       7.172   5.003  22.662  0.00  0.00    -0.060 S 
ATOM     38  C   UNL     1       8.033   3.755  23.485  0.00  0.00    +0.078 A 
ATOM     39  C   UNL     1       7.153   2.765  23.881  0.00  0.00    +0.098 A 
ATOM     40  N   UNL     1       5.839   2.979  23.492  0.00  0.00    -0.223 NA
ATOM     41  O   UNL     1       3.310   2.748  22.461  0.00  0.00    -0.275 OA
BRANCH  33  43
ATOM     42  C   UNL     1       1.053   4.609  22.633  0.00  0.00    +0.017 C 
ATOM     43  C   UNL     1       2.249   4.768  21.692  0.00  0.00    +0.069 C 
ATOM     44  C   UNL     1       2.629   6.243  21.580  0.00  0.00    +0.017 C 
ENDBRANCH  33  43
ENDBRANCH  22  39
BRANCH  28  45
ATOM     45  O   UNL     1       9.017  -4.211  23.885  0.00  0.00    -0.494 OA
ATOM     46  C   UNL     1       8.004  -5.204  23.756  0.00  0.00    +0.277 C 
ENDBRANCH  28  45
ENDBRANCH  21  24
ENDBRANCH   1  21
BRANCH   4  47
ATOM     47  C   UNL     1       2.521  -0.949  27.890  0.00  0.00    +0.168 C 
BRANCH  47  48
ATOM     48  N   UNL     1       3.641  -1.468  27.101  0.00  0.00    -0.269 N 
ATOM     49  H   UNL     1       4.491  -0.918  27.065  0.00  0.00    +0.153 HD
ATOM     50  C   UNL     1       3.412  -2.165  25.950  0.00  0.00    +0.401 C 
ATOM     51  O   UNL     1       2.325  -2.615  25.616  0.00  0.00    -0.226 OA
BRANCH  50  52
ATOM     52  O   UNL     1       4.556  -2.246  25.227  0.00  0.00    -0.447 OA
BRANCH  52  53
ATOM     53  C   UNL     1       5.143  -3.550  25.132  0.00  0.00    +0.178 C 
ATOM     54  C   UNL     1       4.350  -4.412  24.142  0.00  0.00    +0.045 C 
ATOM     55  C   UNL     1       4.313  -5.825  24.729  0.00  0.00    +0.004 C 
ATOM     56  C   UNL     1       5.146  -5.774  26.001  0.00  0.00    +0.004 C 
ATOM     57  C   UNL     1       5.055  -4.325  26.444  0.00  0.00    +0.045 C 
ENDBRANCH  52  53
ENDBRANCH  50  52
ENDBRANCH  47  48
BRANCH  47  58
ATOM     58  C   UNL     1       2.174  -1.857  29.121  0.00  0.00    -0.011 C 
ATOM     59  C   UNL     1       0.640  -1.959  29.257  0.00  0.00    +0.013 C 
ATOM     60  C   UNL     1       2.695  -1.247  30.439  0.00  0.00    +0.013 C 
ATOM     61  C   UNL     1       2.746  -3.284  28.995  0.00  0.00    +0.013 C 
ENDBRANCH  47  58
ENDBRANCH   4  47
TORSDOF 15
ENDMDL
