MODEL 1
REMARK VINA RESULT:      -7.2      0.000      0.000
REMARK  Name = 
REMARK  12 active torsions:
REMARK  status: ('A' for Active; 'I' for Inactive)
REMARK    1  A    between atoms: C_1  and  C_2
REMARK    2  A    between atoms: C_2  and  C_3
REMARK    3  A    between atoms: C_2  and  C_4
REMARK    4  A    between atoms: C_4  and  C_6
REMARK    5  A    between atoms: C_4  and  N_8
REMARK    6  A    between atoms: C_6  and  O_7
REMARK    7  A    between atoms: C_10  and  C_30
REMARK    8  A    between atoms: C_16  and  O_28
REMARK    9  A    between atoms: C_17  and  C_19
REMARK   10  A    between atoms: C_19  and  C_20
REMARK   11  A    between atoms: O_28  and  C_29
REMARK   12  A    between atoms: C_30  and  O_32
REMARK                            x       y       z     vdW  Elec       q    Type
REMARK                         _______ _______ _______ _____ _____    ______ ____
ROOT
ATOM      1  N   UNL     1       5.394  -4.388  26.435  0.00  0.00    -0.340 N 
ATOM      2  C   UNL     1       6.634  -3.906  25.929  0.00  0.00    +0.057 A 
ATOM      3  C   UNL     1       7.431  -2.912  26.518  0.00  0.00    +0.072 A 
ATOM      4  C   UNL     1       8.575  -2.334  25.882  0.00  0.00    +0.126 A 
ATOM      5  C   UNL     1       8.994  -2.803  24.628  0.00  0.00    -0.001 A 
ATOM      6  C   UNL     1       8.273  -3.881  24.085  0.00  0.00    +0.021 A 
ATOM      7  C   UNL     1       7.114  -4.386  24.698  0.00  0.00    +0.046 A 
ATOM      8  C   UNL     1       6.336  -5.385  23.941  0.00  0.00    +0.203 A 
ATOM      9  O   UNL     1       6.780  -5.934  22.935  0.00  0.00    -0.286 OA
ATOM     10  C   UNL     1       4.960  -5.646  24.379  0.00  0.00    +0.122 A 
ATOM     11  C   UNL     1       4.601  -5.150  25.572  0.00  0.00    +0.105 A 
ENDROOT
BRANCH   4  12
ATOM     12  O   UNL     1       9.087  -1.331  26.658  0.00  0.00    -0.495 OA
ATOM     13  C   UNL     1       8.282  -0.272  27.139  0.00  0.00    +0.277 C 
ENDBRANCH   4  12
BRANCH  10  14
ATOM     14  C   UNL     1       3.987  -6.400  23.565  0.00  0.00    +0.342 C 
ATOM     15  O   UNL     1       3.403  -5.917  22.610  0.00  0.00    -0.245 OA
BRANCH  14  16
ATOM     16  O   UNL     1       3.812  -7.686  23.949  0.00  0.00    -0.477 OA
ATOM     17  H   UNL     1       3.837  -7.826  24.928  0.00  0.00    +0.295 HD
ENDBRANCH  14  16
ENDBRANCH  10  14
BRANCH   1  18
ATOM     18  C   UNL     1       4.905  -4.021  27.816  0.00  0.00    +0.115 C 
BRANCH  18  20
ATOM     19  C   UNL     1       2.766  -3.640  29.201  0.00  0.00    +0.009 C 
ATOM     20  C   UNL     1       3.410  -3.553  27.806  0.00  0.00    +0.008 C 
ATOM     21  C   UNL     1       3.237  -2.129  27.271  0.00  0.00    +0.009 C 
ENDBRANCH  18  20
BRANCH  18  22
ATOM     22  C   UNL     1       5.076  -5.228  28.790  0.00  0.00    +0.181 C 
BRANCH  22  23
ATOM     23  O   UNL     1       6.442  -5.584  28.985  0.00  0.00    -0.393 OA
ATOM     24  H   UNL     1       6.455  -6.279  29.667  0.00  0.00    +0.209 HD
ENDBRANCH  22  23
ENDBRANCH  18  22
ENDBRANCH   1  18
BRANCH   5  25
ATOM     25  C   UNL     1      10.099  -2.266  23.735  0.00  0.00    +0.077 C 
BRANCH  25  26
ATOM     26  C   UNL     1       9.854  -0.956  23.001  0.00  0.00    -0.006 A 
ATOM     27  C   UNL     1       9.215  -0.843  21.757  0.00  0.00    +0.007 A 
ATOM     28  C   UNL     1       9.068   0.410  21.136  0.00  0.00    +0.002 A 
ATOM     29  C   UNL     1       9.557   1.565  21.747  0.00  0.00    +0.023 A 
ATOM     30  C   UNL     1      10.193   1.468  22.982  0.00  0.00    +0.076 A 
ATOM     31 CL   UNL     1      10.800   2.893  23.735  0.00  0.00    -0.081 Cl
ATOM     32  C   UNL     1      10.336   0.223  23.594  0.00  0.00    +0.145 A 
ATOM     33  F   UNL     1      10.960   0.133  24.787  0.00  0.00    -0.204 F 
ENDBRANCH  25  26
ENDBRANCH   5  25
TORSDOF 9
ENDMDL
MODEL 2
REMARK VINA RESULT:      -7.2      1.608      1.848
REMARK  Name = 
REMARK  12 active torsions:
REMARK  status: ('A' for Active; 'I' for Inactive)
REMARK    1  A    between atoms: C_1  and  C_2
REMARK    2  A    between atoms: C_2  and  C_3
REMARK    3  A    between atoms: C_2  and  C_4
REMARK    4  A    between atoms: C_4  and  C_6
REMARK    5  A    between atoms: C_4  and  N_8
REMARK    6  A    between atoms: C_6  and  O_7
REMARK    7  A    between atoms: C_10  and  C_30
REMARK    8  A    between atoms: C_16  and  O_28
REMARK    9  A    between atoms: C_17  and  C_19
REMARK   10  A    between atoms: C_19  and  C_20
REMARK   11  A    between atoms: O_28  and  C_29
REMARK   12  A    between atoms: C_30  and  O_32
REMARK                            x       y       z     vdW  Elec       q    Type
REMARK                         _______ _______ _______ _____ _____    ______ ____
ROOT
ATOM      1  N   UNL     1       5.975  -4.801  26.302  0.00  0.00    -0.340 N 
ATOM      2  C   UNL     1       6.903  -4.124  25.461  0.00  0.00    +0.057 A 
ATOM      3  C   UNL     1       7.717  -3.045  25.837  0.00  0.00    +0.072 A 
ATOM      4  C   UNL     1       8.499  -2.283  24.912  0.00  0.00    +0.126 A 
ATOM      5  C   UNL     1       8.530  -2.641  23.556  0.00  0.00    -0.001 A 
ATOM      6  C   UNL     1       7.811  -3.793  23.191  0.00  0.00    +0.021 A 
ATOM      7  C   UNL     1       6.999  -4.484  24.106  0.00  0.00    +0.046 A 
ATOM      8  C   UNL     1       6.145  -5.559  23.565  0.00  0.00    +0.203 A 
ATOM      9  O   UNL     1       6.292  -6.001  22.427  0.00  0.00    -0.286 OA
ATOM     10  C   UNL     1       5.041  -6.036  24.406  0.00  0.00    +0.122 A 
ATOM     11  C   UNL     1       5.042  -5.640  25.686  0.00  0.00    +0.105 A 
ENDROOT
BRANCH   4  12
ATOM     12  O   UNL     1       9.110  -1.244  25.558  0.00  0.00    -0.495 OA
ATOM     13  C   UNL     1       8.671  -0.788  26.823  0.00  0.00    +0.277 C 
ENDBRANCH   4  12
BRANCH  10  14
ATOM     14  C   UNL     1       3.955  -6.895  23.895  0.00  0.00    +0.342 C 
ATOM     15  O   UNL     1       3.557  -7.885  24.484  0.00  0.00    -0.245 OA
BRANCH  14  16
ATOM     16  O   UNL     1       3.417  -6.481  22.725  0.00  0.00    -0.477 OA
ATOM     17  H   UNL     1       4.020  -5.924  22.172  0.00  0.00    +0.295 HD
ENDBRANCH  14  16
ENDBRANCH  10  14
BRANCH   1  18
ATOM     18  C   UNL     1       5.935  -4.559  27.793  0.00  0.00    +0.115 C 
BRANCH  18  20
ATOM     19  C   UNL     1       4.292  -4.267  29.756  0.00  0.00    +0.009 C 
ATOM     20  C   UNL     1       4.548  -4.002  28.262  0.00  0.00    +0.008 C 
ATOM     21  C   UNL     1       4.386  -2.504  27.992  0.00  0.00    +0.009 C 
ENDBRANCH  18  20
BRANCH  18  22
ATOM     22  C   UNL     1       6.267  -5.874  28.565  0.00  0.00    +0.181 C 
BRANCH  22  23
ATOM     23  O   UNL     1       7.553  -6.392  28.235  0.00  0.00    -0.393 OA
ATOM     24  H   UNL     1       7.915  -5.819  27.537  0.00  0.00    +0.209 HD
ENDBRANCH  22  23
ENDBRANCH  18  22
ENDBRANCH   1  18
BRANCH   5  25
ATOM     25  C   UNL     1       9.194  -1.916  22.398  0.00  0.00    +0.077 C 
BRANCH  25  26
ATOM     26  C   UNL     1       9.098  -0.398  22.354  0.00  0.00    -0.006 A 
ATOM     27  C   UNL     1      10.193   0.471  22.231  0.00  0.00    +0.007 A 
ATOM     28  C   UNL     1      10.009   1.864  22.238  0.00  0.00    +0.002 A 
ATOM     29  C   UNL     1       8.732   2.409  22.369  0.00  0.00    +0.023 A 
ATOM     30  C   UNL     1       7.635   1.560  22.491  0.00  0.00    +0.076 A 
ATOM     31 CL   UNL     1       6.058   2.232  22.657  0.00  0.00    -0.081 Cl
ATOM     32  C   UNL     1       7.823   0.178  22.483  0.00  0.00    +0.145 A 
ATOM     33  F   UNL     1       6.758  -0.641  22.609  0.00  0.00    -0.204 F 
ENDBRANCH  25  26
ENDBRANCH   5  25
TORSDOF 9
ENDMDL
MODEL 3
REMARK VINA RESULT:      -7.0      1.254      1.471
REMARK  Name = 
REMARK  12 active torsions:
REMARK  status: ('A' for Active; 'I' for Inactive)
REMARK    1  A    between atoms: C_1  and  C_2
REMARK    2  A    between atoms: C_2  and  C_3
REMARK    3  A    between atoms: C_2  and  C_4
REMARK    4  A    between atoms: C_4  and  C_6
REMARK    5  A    between atoms: C_4  and  N_8
REMARK    6  A    between atoms: C_6  and  O_7
REMARK    7  A    between atoms: C_10  and  C_30
REMARK    8  A    between atoms: C_16  and  O_28
REMARK    9  A    between atoms: C_17  and  C_19
REMARK   10  A    between atoms: C_19  and  C_20
REMARK   11  A    between atoms: O_28  and  C_29
REMARK   12  A    between atoms: C_30  and  O_32
REMARK                            x       y       z     vdW  Elec       q    Type
REMARK                         _______ _______ _______ _____ _____    ______ ____
ROOT
ATOM      1  N   UNL     1       6.096  -4.476  25.871  0.00  0.00    -0.340 N 
ATOM      2  C   UNL     1       7.161  -3.612  25.493  0.00  0.00    +0.057 A 
ATOM      3  C   UNL     1       7.750  -2.629  26.303  0.00  0.00    +0.072 A 
ATOM      4  C   UNL     1       8.693  -1.666  25.822  0.00  0.00    +0.126 A 
ATOM      5  C   UNL     1       9.125  -1.711  24.488  0.00  0.00    -0.001 A 
ATOM      6  C   UNL     1       8.632  -2.766  23.701  0.00  0.00    +0.021 A 
ATOM      7  C   UNL     1       7.657  -3.658  24.178  0.00  0.00    +0.046 A 
ATOM      8  C   UNL     1       7.077  -4.602  23.203  0.00  0.00    +0.203 A 
ATOM      9  O   UNL     1       7.568  -4.776  22.090  0.00  0.00    -0.286 OA
ATOM     10  C   UNL     1       5.825  -5.273  23.572  0.00  0.00    +0.122 A 
ATOM     11  C   UNL     1       5.441  -5.173  24.852  0.00  0.00    +0.105 A 
ENDROOT
BRANCH   4  12
ATOM     12  O   UNL     1       9.014  -0.786  26.819  0.00  0.00    -0.495 OA
ATOM     13  C   UNL     1       8.031  -0.017  27.484  0.00  0.00    +0.277 C 
ENDBRANCH   4  12
BRANCH  10  14
ATOM     14  C   UNL     1       4.997  -6.017  22.603  0.00  0.00    +0.342 C 
ATOM     15  O   UNL     1       3.778  -5.988  22.610  0.00  0.00    -0.245 OA
BRANCH  14  16
ATOM     16  O   UNL     1       5.702  -6.717  21.685  0.00  0.00    -0.477 OA
ATOM     17  H   UNL     1       5.268  -6.778  20.798  0.00  0.00    +0.295 HD
ENDBRANCH  14  16
ENDBRANCH  10  14
BRANCH   1  18
ATOM     18  C   UNL     1       5.626  -4.573  27.304  0.00  0.00    +0.115 C 
BRANCH  18  20
ATOM     19  C   UNL     1       3.545  -5.224  28.677  0.00  0.00    +0.009 C 
ATOM     20  C   UNL     1       4.064  -4.511  27.417  0.00  0.00    +0.008 C 
ATOM     21  C   UNL     1       3.524  -3.080  27.401  0.00  0.00    +0.009 C 
ENDBRANCH  18  20
BRANCH  18  22
ATOM     22  C   UNL     1       6.152  -5.887  27.959  0.00  0.00    +0.181 C 
BRANCH  22  23
ATOM     23  O   UNL     1       7.568  -6.019  27.860  0.00  0.00    -0.393 OA
ATOM     24  H   UNL     1       7.895  -6.205  28.758  0.00  0.00    +0.209 HD
ENDBRANCH  22  23
ENDBRANCH  18  22
ENDBRANCH   1  18
BRANCH   5  25
ATOM     25  C   UNL     1      10.023  -0.734  23.748  0.00  0.00    +0.077 C 
BRANCH  25  26
ATOM     26  C   UNL     1       9.392   0.531  23.184  0.00  0.00    -0.006 A 
ATOM     27  C   UNL     1       8.774   0.625  21.928  0.00  0.00    +0.007 A 
ATOM     28  C   UNL     1       8.253   1.850  21.474  0.00  0.00    +0.002 A 
ATOM     29  C   UNL     1       8.343   2.995  22.267  0.00  0.00    +0.023 A 
ATOM     30  C   UNL     1       8.953   2.916  23.515  0.00  0.00    +0.076 A 
ATOM     31 CL   UNL     1       9.068   4.330  24.492  0.00  0.00    -0.081 Cl
ATOM     32  C   UNL     1       9.468   1.698  23.961  0.00  0.00    +0.145 A 
ATOM     33  F   UNL     1      10.066   1.629  25.169  0.00  0.00    -0.204 F 
ENDBRANCH  25  26
ENDBRANCH   5  25
TORSDOF 9
ENDMDL
MODEL 4
REMARK VINA RESULT:      -6.8      2.065      4.365
REMARK  Name = 
REMARK  12 active torsions:
REMARK  status: ('A' for Active; 'I' for Inactive)
REMARK    1  A    between atoms: C_1  and  C_2
REMARK    2  A    between atoms: C_2  and  C_3
REMARK    3  A    between atoms: C_2  and  C_4
REMARK    4  A    between atoms: C_4  and  C_6
REMARK    5  A    between atoms: C_4  and  N_8
REMARK    6  A    between atoms: C_6  and  O_7
REMARK    7  A    between atoms: C_10  and  C_30
REMARK    8  A    between atoms: C_16  and  O_28
REMARK    9  A    between atoms: C_17  and  C_19
REMARK   10  A    between atoms: C_19  and  C_20
REMARK   11  A    between atoms: O_28  and  C_29
REMARK   12  A    between atoms: C_30  and  O_32
REMARK                            x       y       z     vdW  Elec       q    Type
REMARK                         _______ _______ _______ _____ _____    ______ ____
ROOT
ATOM      1  N   UNL     1       4.531  -6.567  25.451  0.00  0.00    -0.340 N 
ATOM      2  C   UNL     1       5.583  -5.719  25.004  0.00  0.00    +0.057 A 
ATOM      3  C   UNL     1       5.925  -5.469  23.666  0.00  0.00    +0.072 A 
ATOM      4  C   UNL     1       7.100  -4.755  23.269  0.00  0.00    +0.126 A 
ATOM      5  C   UNL     1       7.949  -4.205  24.240  0.00  0.00    -0.001 A 
ATOM      6  C   UNL     1       7.551  -4.347  25.581  0.00  0.00    +0.021 A 
ATOM      7  C   UNL     1       6.429  -5.109  25.946  0.00  0.00    +0.046 A 
ATOM      8  C   UNL     1       6.221  -5.346  27.388  0.00  0.00    +0.203 A 
ATOM      9  O   UNL     1       6.843  -4.728  28.249  0.00  0.00    -0.286 OA
ATOM     10  C   UNL     1       5.297  -6.420  27.772  0.00  0.00    +0.122 A 
ATOM     11  C   UNL     1       4.529  -6.933  26.800  0.00  0.00    +0.105 A 
ENDROOT
BRANCH   4  12
ATOM     12  O   UNL     1       7.209  -4.754  21.905  0.00  0.00    -0.495 OA
ATOM     13  C   UNL     1       6.442  -5.621  21.093  0.00  0.00    +0.277 C 
ENDBRANCH   4  12
BRANCH  10  14
ATOM     14  C   UNL     1       5.205  -6.947  29.147  0.00  0.00    +0.342 C 
ATOM     15  O   UNL     1       4.146  -7.226  29.683  0.00  0.00    -0.245 OA
BRANCH  14  16
ATOM     16  O   UNL     1       6.397  -7.119  29.762  0.00  0.00    -0.477 OA
ATOM     17  H   UNL     1       6.352  -7.106  30.751  0.00  0.00    +0.295 HD
ENDBRANCH  14  16
ENDBRANCH  10  14
BRANCH   1  18
ATOM     18  C   UNL     1       3.504  -7.127  24.494  0.00  0.00    +0.115 C 
BRANCH  18  20
ATOM     19  C   UNL     1       1.177  -6.784  25.545  0.00  0.00    +0.009 C 
ATOM     20  C   UNL     1       2.300  -7.791  25.245  0.00  0.00    +0.008 C 
ATOM     21  C   UNL     1       1.708  -8.979  24.484  0.00  0.00    +0.009 C 
ENDBRANCH  18  20
BRANCH  18  22
ATOM     22  C   UNL     1       2.981  -6.006  23.543  0.00  0.00    +0.181 C 
BRANCH  22  23
ATOM     23  O   UNL     1       2.821  -6.458  22.201  0.00  0.00    -0.393 OA
ATOM     24  H   UNL     1       1.992  -6.966  22.174  0.00  0.00    +0.209 HD
ENDBRANCH  22  23
ENDBRANCH  18  22
ENDBRANCH   1  18
BRANCH   5  25
ATOM     25  C   UNL     1       9.289  -3.514  24.047  0.00  0.00    +0.077 C 
BRANCH  25  26
ATOM     26  C   UNL     1       9.297  -2.132  23.409  0.00  0.00    -0.006 A 
ATOM     27  C   UNL     1       9.322  -1.888  22.027  0.00  0.00    +0.007 A 
ATOM     28  C   UNL     1       9.367  -0.574  21.531  0.00  0.00    +0.002 A 
ATOM     29  C   UNL     1       9.389   0.513  22.405  0.00  0.00    +0.023 A 
ATOM     30  C   UNL     1       9.364   0.287  23.778  0.00  0.00    +0.076 A 
ATOM     31 CL   UNL     1       9.396   1.628  24.858  0.00  0.00    -0.081 Cl
ATOM     32  C   UNL     1       9.319  -1.020  24.266  0.00  0.00    +0.145 A 
ATOM     33  F   UNL     1       9.303  -1.234  25.599  0.00  0.00    -0.204 F 
ENDBRANCH  25  26
ENDBRANCH   5  25
TORSDOF 9
ENDMDL
MODEL 5
REMARK VINA RESULT:      -6.5      3.940      8.011
REMARK  Name = 
REMARK  12 active torsions:
REMARK  status: ('A' for Active; 'I' for Inactive)
REMARK    1  A    between atoms: C_1  and  C_2
REMARK    2  A    between atoms: C_2  and  C_3
REMARK    3  A    between atoms: C_2  and  C_4
REMARK    4  A    between atoms: C_4  and  C_6
REMARK    5  A    between atoms: C_4  and  N_8
REMARK    6  A    between atoms: C_6  and  O_7
REMARK    7  A    between atoms: C_10  and  C_30
REMARK    8  A    between atoms: C_16  and  O_28
REMARK    9  A    between atoms: C_17  and  C_19
REMARK   10  A    between atoms: C_19  and  C_20
REMARK   11  A    between atoms: O_28  and  C_29
REMARK   12  A    between atoms: C_30  and  O_32
REMARK                            x       y       z     vdW  Elec       q    Type
REMARK                         _______ _______ _______ _____ _____    ______ ____
ROOT
ATOM      1  N   UNL     1       8.098  -1.216  23.446  0.00  0.00    -0.340 N 
ATOM      2  C   UNL     1       7.516  -2.513  23.374  0.00  0.00    +0.057 A 
ATOM      3  C   UNL     1       7.077  -3.152  22.204  0.00  0.00    +0.072 A 
ATOM      4  C   UNL     1       6.335  -4.376  22.201  0.00  0.00    +0.126 A 
ATOM      5  C   UNL     1       6.064  -5.037  23.408  0.00  0.00    -0.001 A 
ATOM      6  C   UNL     1       6.603  -4.465  24.575  0.00  0.00    +0.021 A 
ATOM      7  C   UNL     1       7.270  -3.229  24.558  0.00  0.00    +0.046 A 
ATOM      8  C   UNL     1       7.621  -2.639  25.864  0.00  0.00    +0.203 A 
ATOM      9  O   UNL     1       7.555  -3.281  26.910  0.00  0.00    -0.286 OA
ATOM     10  C   UNL     1       7.973  -1.215  25.892  0.00  0.00    +0.122 A 
ATOM     11  C   UNL     1       8.192  -0.624  24.709  0.00  0.00    +0.105 A 
ENDROOT
BRANCH   4  12
ATOM     12  O   UNL     1       5.972  -4.700  20.923  0.00  0.00    -0.495 OA
ATOM     13  C   UNL     1       6.087  -6.019  20.424  0.00  0.00    +0.277 C 
ENDBRANCH   4  12
BRANCH  10  14
ATOM     14  C   UNL     1       8.073  -0.437  27.142  0.00  0.00    +0.342 C 
ATOM     15  O   UNL     1       7.117   0.110  27.663  0.00  0.00    -0.245 OA
BRANCH  14  16
ATOM     16  O   UNL     1       9.314  -0.398  27.679  0.00  0.00    -0.477 OA
ATOM     17  H   UNL     1       9.557  -1.202  28.203  0.00  0.00    +0.295 HD
ENDBRANCH  14  16
ENDBRANCH  10  14
BRANCH   1  18
ATOM     18  C   UNL     1       8.519  -0.466  22.204  0.00  0.00    +0.115 C 
BRANCH  18  20
ATOM     19  C   UNL     1      10.013   1.619  21.957  0.00  0.00    +0.009 C 
ATOM     20  C   UNL     1       8.669   1.071  22.467  0.00  0.00    +0.008 C 
ATOM     21  C   UNL     1       7.535   1.892  21.849  0.00  0.00    +0.009 C 
ENDBRANCH  18  20
BRANCH  18  22
ATOM     22  C   UNL     1       9.860  -1.042  21.652  0.00  0.00    +0.181 C 
BRANCH  22  23
ATOM     23  O   UNL     1      10.544  -1.848  22.607  0.00  0.00    -0.393 OA
ATOM     24  H   UNL     1      11.160  -1.261  23.079  0.00  0.00    +0.209 HD
ENDBRANCH  22  23
ENDBRANCH  18  22
ENDBRANCH   1  18
BRANCH   5  25
ATOM     25  C   UNL     1       5.211  -6.271  23.643  0.00  0.00    +0.077 C 
BRANCH  25  26
ATOM     26  C   UNL     1       3.768  -6.071  24.086  0.00  0.00    -0.006 A 
ATOM     27  C   UNL     1       2.775  -5.444  23.317  0.00  0.00    +0.007 A 
ATOM     28  C   UNL     1       1.477  -5.269  23.827  0.00  0.00    +0.002 A 
ATOM     29  C   UNL     1       1.153  -5.717  25.108  0.00  0.00    +0.023 A 
ATOM     30  C   UNL     1       2.127  -6.341  25.881  0.00  0.00    +0.076 A 
ATOM     31 CL   UNL     1       1.729  -6.890  27.465  0.00  0.00    -0.081 Cl
ATOM     32  C   UNL     1       3.415  -6.512  25.371  0.00  0.00    +0.145 A 
ATOM     33  F   UNL     1       4.358  -7.111  26.127  0.00  0.00    -0.204 F 
ENDBRANCH  25  26
ENDBRANCH   5  25
TORSDOF 9
ENDMDL
MODEL 6
REMARK VINA RESULT:      -6.3      2.284      2.874
REMARK  Name = 
REMARK  12 active torsions:
REMARK  status: ('A' for Active; 'I' for Inactive)
REMARK    1  A    between atoms: C_1  and  C_2
REMARK    2  A    between atoms: C_2  and  C_3
REMARK    3  A    between atoms: C_2  and  C_4
REMARK    4  A    between atoms: C_4  and  C_6
REMARK    5  A    between atoms: C_4  and  N_8
REMARK    6  A    between atoms: C_6  and  O_7
REMARK    7  A    between atoms: C_10  and  C_30
REMARK    8  A    between atoms: C_16  and  O_28
REMARK    9  A    between atoms: C_17  and  C_19
REMARK   10  A    between atoms: C_19  and  C_20
REMARK   11  A    between atoms: O_28  and  C_29
REMARK   12  A    between atoms: C_30  and  O_32
REMARK                            x       y       z     vdW  Elec       q    Type
REMARK                         _______ _______ _______ _____ _____    ______ ____
ROOT
ATOM      1  N   UNL     1       6.552  -3.873  25.784  0.00  0.00    -0.340 N 
ATOM      2  C   UNL     1       7.349  -2.700  25.673  0.00  0.00    +0.057 A 
ATOM      3  C   UNL     1       7.546  -1.742  26.680  0.00  0.00    +0.072 A 
ATOM      4  C   UNL     1       8.207  -0.491  26.466  0.00  0.00    +0.126 A 
ATOM      5  C   UNL     1       8.757  -0.193  25.210  0.00  0.00    -0.001 A 
ATOM      6  C   UNL     1       8.669  -1.196  24.229  0.00  0.00    +0.021 A 
ATOM      7  C   UNL     1       7.958  -2.388  24.445  0.00  0.00    +0.046 A 
ATOM      8  C   UNL     1       7.772  -3.278  23.282  0.00  0.00    +0.203 A 
ATOM      9  O   UNL     1       8.395  -3.123  22.234  0.00  0.00    -0.286 OA
ATOM     10  C   UNL     1       6.743  -4.320  23.383  0.00  0.00    +0.122 A 
ATOM     11  C   UNL     1       6.228  -4.544  24.600  0.00  0.00    +0.105 A 
ENDROOT
BRANCH   4  12
ATOM     12  O   UNL     1       8.162   0.264  27.605  0.00  0.00    -0.495 OA
ATOM     13  C   UNL     1       6.962   0.853  28.066  0.00  0.00    +0.277 C 
ENDBRANCH   4  12
BRANCH  10  14
ATOM     14  C   UNL     1       6.263  -5.089  22.220  0.00  0.00    +0.342 C 
ATOM     15  O   UNL     1       6.335  -6.304  22.150  0.00  0.00    -0.245 OA
BRANCH  14  16
ATOM     16  O   UNL     1       5.710  -4.337  21.240  0.00  0.00    -0.477 OA
ATOM     17  H   UNL     1       4.871  -4.706  20.867  0.00  0.00    +0.295 HD
ENDBRANCH  14  16
ENDBRANCH  10  14
BRANCH   1  18
ATOM     18  C   UNL     1       5.999  -4.334  27.112  0.00  0.00    +0.115 C 
BRANCH  18  20
ATOM     19  C   UNL     1       3.865  -4.937  28.424  0.00  0.00    +0.009 C 
ATOM     20  C   UNL     1       4.432  -4.319  27.134  0.00  0.00    +0.008 C 
ATOM     21  C   UNL     1       3.849  -2.915  26.962  0.00  0.00    +0.009 C 
ENDBRANCH  18  20
BRANCH  18  22
ATOM     22  C   UNL     1       6.520  -5.765  27.450  0.00  0.00    +0.181 C 
BRANCH  22  23
ATOM     23  O   UNL     1       7.943  -5.837  27.476  0.00  0.00    -0.393 OA
ATOM     24  H   UNL     1       8.270  -4.919  27.465  0.00  0.00    +0.209 HD
ENDBRANCH  22  23
ENDBRANCH  18  22
ENDBRANCH   1  18
BRANCH   5  25
ATOM     25  C   UNL     1       9.394   1.102  24.737  0.00  0.00    +0.077 C 
BRANCH  25  26
ATOM     26  C   UNL     1       8.541   2.066  23.925  0.00  0.00    -0.006 A 
ATOM     27  C   UNL     1       8.355   1.994  22.535  0.00  0.00    +0.007 A 
ATOM     28  C   UNL     1       7.579   2.954  21.865  0.00  0.00    +0.002 A 
ATOM     29  C   UNL     1       6.979   3.998  22.570  0.00  0.00    +0.023 A 
ATOM     30  C   UNL     1       7.154   4.082  23.948  0.00  0.00    +0.076 A 
ATOM     31 CL   UNL     1       6.417   5.373  24.818  0.00  0.00    -0.081 Cl
ATOM     32  C   UNL     1       7.925   3.126  24.609  0.00  0.00    +0.145 A 
ATOM     33  F   UNL     1       8.099   3.216  25.945  0.00  0.00    -0.204 F 
ENDBRANCH  25  26
ENDBRANCH   5  25
TORSDOF 9
ENDMDL
MODEL 7
REMARK VINA RESULT:      -6.3      3.873      7.409
REMARK  Name = 
REMARK  12 active torsions:
REMARK  status: ('A' for Active; 'I' for Inactive)
REMARK    1  A    between atoms: C_1  and  C_2
REMARK    2  A    between atoms: C_2  and  C_3
REMARK    3  A    between atoms: C_2  and  C_4
REMARK    4  A    between atoms: C_4  and  C_6
REMARK    5  A    between atoms: C_4  and  N_8
REMARK    6  A    between atoms: C_6  and  O_7
REMARK    7  A    between atoms: C_10  and  C_30
REMARK    8  A    between atoms: C_16  and  O_28
REMARK    9  A    between atoms: C_17  and  C_19
REMARK   10  A    between atoms: C_19  and  C_20
REMARK   11  A    between atoms: O_28  and  C_29
REMARK   12  A    between atoms: C_30  and  O_32
REMARK                            x       y       z     vdW  Elec       q    Type
REMARK                         _______ _______ _______ _____ _____    ______ ____
ROOT
ATOM      1  N   UNL     1       7.611   1.428  25.073  0.00  0.00    -0.340 N 
ATOM      2  C   UNL     1       7.919   0.053  25.271  0.00  0.00    +0.057 A 
ATOM      3  C   UNL     1       8.941  -0.662  24.627  0.00  0.00    +0.072 A 
ATOM      4  C   UNL     1       9.098  -2.081  24.723  0.00  0.00    +0.126 A 
ATOM      5  C   UNL     1       8.242  -2.828  25.546  0.00  0.00    -0.001 A 
ATOM      6  C   UNL     1       7.290  -2.106  26.288  0.00  0.00    +0.021 A 
ATOM      7  C   UNL     1       7.115  -0.722  26.125  0.00  0.00    +0.046 A 
ATOM      8  C   UNL     1       5.962  -0.107  26.812  0.00  0.00    +0.203 A 
ATOM      9  O   UNL     1       5.318  -0.705  27.671  0.00  0.00    -0.286 OA
ATOM     10  C   UNL     1       5.545   1.229  26.372  0.00  0.00    +0.122 A 
ATOM     11  C   UNL     1       6.386   1.889  25.562  0.00  0.00    +0.105 A 
ENDROOT
BRANCH   4  12
ATOM     12  O   UNL     1      10.120  -2.496  23.915  0.00  0.00    -0.495 OA
ATOM     13  C   UNL     1      10.542  -1.741  22.795  0.00  0.00    +0.277 C 
ENDBRANCH   4  12
BRANCH  10  14
ATOM     14  C   UNL     1       4.262   1.841  26.769  0.00  0.00    +0.342 C 
ATOM     15  O   UNL     1       4.184   2.929  27.314  0.00  0.00    -0.245 OA
BRANCH  14  16
ATOM     16  O   UNL     1       3.171   1.106  26.455  0.00  0.00    -0.477 OA
ATOM     17  H   UNL     1       2.416   1.632  26.089  0.00  0.00    +0.295 HD
ENDBRANCH  14  16
ENDBRANCH  10  14
BRANCH   1  18
ATOM     18  C   UNL     1       8.525   2.339  24.287  0.00  0.00    +0.115 C 
BRANCH  18  20
ATOM     19  C   UNL     1       7.572   3.164  22.040  0.00  0.00    +0.009 C 
ATOM     20  C   UNL     1       8.419   2.090  22.744  0.00  0.00    +0.008 C 
ATOM     21  C   UNL     1       9.786   2.015  22.060  0.00  0.00    +0.009 C 
ENDBRANCH  18  20
BRANCH  18  22
ATOM     22  C   UNL     1       8.205   3.833  24.606  0.00  0.00    +0.181 C 
BRANCH  22  23
ATOM     23  O   UNL     1       9.374   4.646  24.644  0.00  0.00    -0.393 OA
ATOM     24  H   UNL     1       9.342   5.219  23.858  0.00  0.00    +0.209 HD
ENDBRANCH  22  23
ENDBRANCH  18  22
ENDBRANCH   1  18
BRANCH   5  25
ATOM     25  C   UNL     1       8.159  -4.336  25.708  0.00  0.00    +0.077 C 
BRANCH  25  26
ATOM     26  C   UNL     1       6.977  -5.061  25.079  0.00  0.00    -0.006 A 
ATOM     27  C   UNL     1       5.938  -5.671  25.798  0.00  0.00    +0.007 A 
ATOM     28  C   UNL     1       4.907  -6.353  25.130  0.00  0.00    +0.002 A 
ATOM     29  C   UNL     1       4.898  -6.435  23.737  0.00  0.00    +0.023 A 
ATOM     30  C   UNL     1       5.922  -5.834  23.010  0.00  0.00    +0.076 A 
ATOM     31 CL   UNL     1       5.915  -5.939  21.291  0.00  0.00    -0.081 Cl
ATOM     32  C   UNL     1       6.944  -5.159  23.678  0.00  0.00    +0.145 A 
ATOM     33  F   UNL     1       7.939  -4.584  22.970  0.00  0.00    -0.204 F 
ENDBRANCH  25  26
ENDBRANCH   5  25
TORSDOF 9
ENDMDL
MODEL 8
REMARK VINA RESULT:      -6.2      4.371      7.866
REMARK  Name = 
REMARK  12 active torsions:
REMARK  status: ('A' for Active; 'I' for Inactive)
REMARK    1  A    between atoms: C_1  and  C_2
REMARK    2  A    between atoms: C_2  and  C_3
REMARK    3  A    between atoms: C_2  and  C_4
REMARK    4  A    between atoms: C_4  and  C_6
REMARK    5  A    between atoms: C_4  and  N_8
REMARK    6  A    between atoms: C_6  and  O_7
REMARK    7  A    between atoms: C_10  and  C_30
REMARK    8  A    between atoms: C_16  and  O_28
REMARK    9  A    between atoms: C_17  and  C_19
REMARK   10  A    between atoms: C_19  and  C_20
REMARK   11  A    between atoms: O_28  and  C_29
REMARK   12  A    between atoms: C_30  and  O_32
REMARK                            x       y       z     vdW  Elec       q    Type
REMARK                         _______ _______ _______ _____ _____    ______ ____
ROOT
ATOM      1  N   UNL     1       7.513   2.328  23.380  0.00  0.00    -0.340 N 
ATOM      2  C   UNL     1       7.476   1.075  24.054  0.00  0.00    +0.057 A 
ATOM      3  C   UNL     1       8.506   0.123  24.077  0.00  0.00    +0.072 A 
ATOM      4  C   UNL     1       8.356  -1.195  24.615  0.00  0.00    +0.126 A 
ATOM      5  C   UNL     1       7.148  -1.574  25.217  0.00  0.00    -0.001 A 
ATOM      6  C   UNL     1       6.150  -0.587  25.306  0.00  0.00    +0.021 A 
ATOM      7  C   UNL     1       6.299   0.677  24.711  0.00  0.00    +0.046 A 
ATOM      8  C   UNL     1       5.115   1.558  24.704  0.00  0.00    +0.203 A 
ATOM      9  O   UNL     1       4.117   1.317  25.379  0.00  0.00    -0.286 OA
ATOM     10  C   UNL     1       5.128   2.703  23.786  0.00  0.00    +0.122 A 
ATOM     11  C   UNL     1       6.302   3.004  23.213  0.00  0.00    +0.105 A 
ENDROOT
BRANCH   4  12
ATOM     12  O   UNL     1       9.499  -1.918  24.410  0.00  0.00    -0.495 OA
ATOM     13  C   UNL     1      10.141  -1.963  23.150  0.00  0.00    +0.277 C 
ENDBRANCH   4  12
BRANCH  10  14
ATOM     14  C   UNL     1       3.923   3.495  23.473  0.00  0.00    +0.342 C 
ATOM     15  O   UNL     1       3.876   4.708  23.586  0.00  0.00    -0.245 OA
BRANCH  14  16
ATOM     16  O   UNL     1       2.875   2.767  23.025  0.00  0.00    -0.477 OA
ATOM     17  H   UNL     1       2.316   2.373  23.741  0.00  0.00    +0.295 HD
ENDBRANCH  14  16
ENDBRANCH  10  14
BRANCH   1  18
ATOM     18  C   UNL     1       8.793   2.870  22.786  0.00  0.00    +0.115 C 
BRANCH  18  20
ATOM     19  C   UNL     1      11.223   3.454  23.410  0.00  0.00    +0.009 C 
ATOM     20  C   UNL     1       9.760   3.431  23.884  0.00  0.00    +0.008 C 
ATOM     21  C   UNL     1       9.372   4.834  24.357  0.00  0.00    +0.009 C 
ENDBRANCH  18  20
BRANCH  18  22
ATOM     22  C   UNL     1       9.517   1.765  21.957  0.00  0.00    +0.181 C 
BRANCH  22  23
ATOM     23  O   UNL     1       8.766   1.358  20.816  0.00  0.00    -0.393 OA
ATOM     24  H   UNL     1       8.478   0.443  20.982  0.00  0.00    +0.209 HD
ENDBRANCH  22  23
ENDBRANCH  18  22
ENDBRANCH   1  18
BRANCH   5  25
ATOM     25  C   UNL     1       6.738  -2.938  25.746  0.00  0.00    +0.077 C 
BRANCH  25  26
ATOM     26  C   UNL     1       5.890  -3.828  24.850  0.00  0.00    -0.006 A 
ATOM     27  C   UNL     1       4.493  -3.945  24.929  0.00  0.00    +0.007 A 
ATOM     28  C   UNL     1       3.797  -4.825  24.083  0.00  0.00    +0.002 A 
ATOM     29  C   UNL     1       4.484  -5.600  23.148  0.00  0.00    +0.023 A 
ATOM     30  C   UNL     1       5.869  -5.495  23.057  0.00  0.00    +0.076 A 
ATOM     31 CL   UNL     1       6.718  -6.455  21.906  0.00  0.00    -0.081 Cl
ATOM     32  C   UNL     1       6.555  -4.619  23.899  0.00  0.00    +0.145 A 
ATOM     33  F   UNL     1       7.899  -4.527  23.813  0.00  0.00    -0.204 F 
ENDBRANCH  25  26
ENDBRANCH   5  25
TORSDOF 9
ENDMDL
MODEL 9
REMARK VINA RESULT:      -6.2      3.999      7.839
REMARK  Name = 
REMARK  12 active torsions:
REMARK  status: ('A' for Active; 'I' for Inactive)
REMARK    1  A    between atoms: C_1  and  C_2
REMARK    2  A    between atoms: C_2  and  C_3
REMARK    3  A    between atoms: C_2  and  C_4
REMARK    4  A    between atoms: C_4  and  C_6
REMARK    5  A    between atoms: C_4  and  N_8
REMARK    6  A    between atoms: C_6  and  O_7
REMARK    7  A    between atoms: C_10  and  C_30
REMARK    8  A    between atoms: C_16  and  O_28
REMARK    9  A    between atoms: C_17  and  C_19
REMARK   10  A    between atoms: C_19  and  C_20
REMARK   11  A    between atoms: O_28  and  C_29
REMARK   12  A    between atoms: C_30  and  O_32
REMARK                            x       y       z     vdW  Elec       q    Type
REMARK                         _______ _______ _______ _____ _____    ______ ____
ROOT
ATOM      1  N   UNL     1       8.073   2.165  24.673  0.00  0.00    -0.340 N 
ATOM      2  C   UNL     1       8.495   0.806  24.702  0.00  0.00    +0.057 A 
ATOM      3  C   UNL     1       9.032   0.089  23.622  0.00  0.00    +0.072 A 
ATOM      4  C   UNL     1       9.272  -1.321  23.648  0.00  0.00    +0.126 A 
ATOM      5  C   UNL     1       9.030  -2.054  24.819  0.00  0.00    -0.001 A 
ATOM      6  C   UNL     1       8.605  -1.324  25.944  0.00  0.00    +0.021 A 
ATOM      7  C   UNL     1       8.314   0.049  25.872  0.00  0.00    +0.046 A 
ATOM      8  C   UNL     1       7.695   0.665  27.062  0.00  0.00    +0.203 A 
ATOM      9  O   UNL     1       7.644   0.087  28.146  0.00  0.00    -0.286 OA
ATOM     10  C   UNL     1       7.052   1.973  26.891  0.00  0.00    +0.122 A 
ATOM     11  C   UNL     1       7.292   2.618  25.740  0.00  0.00    +0.105 A 
ENDROOT
BRANCH   4  12
ATOM     12  O   UNL     1       9.709  -1.745  22.423  0.00  0.00    -0.495 OA
ATOM     13  C   UNL     1       9.586  -0.941  21.265  0.00  0.00    +0.277 C 
ENDBRANCH   4  12
BRANCH  10  14
ATOM     14  C   UNL     1       6.166   2.572  27.908  0.00  0.00    +0.342 C 
ATOM     15  O   UNL     1       4.963   2.694  27.753  0.00  0.00    -0.245 OA
BRANCH  14  16
ATOM     16  O   UNL     1       6.794   2.953  29.044  0.00  0.00    -0.477 OA
ATOM     17  H   UNL     1       6.242   3.509  29.648  0.00  0.00    +0.295 HD
ENDBRANCH  14  16
ENDBRANCH  10  14
BRANCH   1  18
ATOM     18  C   UNL     1       8.377   3.064  23.498  0.00  0.00    +0.115 C 
BRANCH  18  20
ATOM     19  C   UNL     1       7.530   5.181  22.299  0.00  0.00    +0.009 C 
ATOM     20  C   UNL     1       7.130   3.909  23.066  0.00  0.00    +0.008 C 
ATOM     21  C   UNL     1       6.138   3.112  22.216  0.00  0.00    +0.009 C 
ENDBRANCH  18  20
BRANCH  18  22
ATOM     22  C   UNL     1       9.569   4.013  23.835  0.00  0.00    +0.181 C 
BRANCH  22  23
ATOM     23  O   UNL     1      10.760   3.665  23.134  0.00  0.00    -0.393 OA
ATOM     24  H   UNL     1      11.505   3.905  23.713  0.00  0.00    +0.209 HD
ENDBRANCH  22  23
ENDBRANCH  18  22
ENDBRANCH   1  18
BRANCH   5  25
ATOM     25  C   UNL     1       9.110  -3.556  25.033  0.00  0.00    +0.077 C 
BRANCH  25  26
ATOM     26  C   UNL     1       7.810  -4.348  25.036  0.00  0.00    -0.006 A 
ATOM     27  C   UNL     1       7.159  -4.813  26.189  0.00  0.00    +0.007 A 
ATOM     28  C   UNL     1       5.981  -5.573  26.091  0.00  0.00    +0.002 A 
ATOM     29  C   UNL     1       5.438  -5.880  24.843  0.00  0.00    +0.023 A 
ATOM     30  C   UNL     1       6.073  -5.426  23.690  0.00  0.00    +0.076 A 
ATOM     31 CL   UNL     1       5.406  -5.809  22.149  0.00  0.00    -0.081 Cl
ATOM     32  C   UNL     1       7.242  -4.672  23.793  0.00  0.00    +0.145 A 
ATOM     33  F   UNL     1       7.859  -4.241  22.672  0.00  0.00    -0.204 F 
ENDBRANCH  25  26
ENDBRANCH   5  25
TORSDOF 9
ENDMDL
