MODEL 1
REMARK VINA RESULT:      -5.3      0.000      0.000
REMARK  Name = 
REMARK  3 active torsions:
REMARK  status: ('A' for Active; 'I' for Inactive)
REMARK    1  A    between atoms: C_1  and  C_2
REMARK    2  A    between atoms: C_2  and  C_3
REMARK    3  A    between atoms: C_2  and  N_13
REMARK                            x       y       z     vdW  Elec       q    Type
REMARK                         _______ _______ _______ _____ _____    ______ ____
ROOT
ATOM      1  C   UNL     1       9.283  -0.514  23.002  0.00  0.00    -0.014 C 
ATOM      2  C   UNL     1       9.802   0.270  21.757  0.00  0.00    +0.012 C 
ATOM      3  C   UNL     1       9.710   1.790  21.974  0.00  0.00    -0.010 C 
ATOM      4  C   UNL     1      10.554   2.177  23.198  0.00  0.00    +0.007 C 
ATOM      5  C   UNL     1      10.030   1.452  24.446  0.00  0.00    -0.010 C 
ATOM      6  C   UNL     1       8.563   1.841  24.683  0.00  0.00    +0.007 C 
ATOM      7  C   UNL     1       7.715   1.455  23.462  0.00  0.00    -0.010 C 
ATOM      8  C   UNL     1       8.247   2.183  22.220  0.00  0.00    +0.007 C 
ATOM      9  C   UNL     1       7.811  -0.065  23.245  0.00  0.00    +0.012 C 
ATOM     10  C   UNL     1      10.125  -0.069  24.230  0.00  0.00    +0.012 C 
ENDROOT
BRANCH   1  12
ATOM     11  C   UNL     1       7.981  -2.733  22.561  0.00  0.00    +0.024 C 
ATOM     12  C   UNL     1       9.346  -2.061  22.746  0.00  0.00    +0.054 C 
BRANCH  12  13
ATOM     13  N   UNL     1      10.041  -2.805  23.802  0.00  0.00    -0.327 NA
ATOM     14  H   UNL     1      10.901  -3.214  23.446  0.00  0.00    +0.118 HD
ATOM     15  H   UNL     1      10.307  -2.178  24.559  0.00  0.00    +0.118 HD
ENDBRANCH  12  13
ENDBRANCH   1  12
TORSDOF 2
ENDMDL
MODEL 2
REMARK VINA RESULT:      -5.3      0.071      2.116
REMARK  Name = 
REMARK  3 active torsions:
REMARK  status: ('A' for Active; 'I' for Inactive)
REMARK    1  A    between atoms: C_1  and  C_2
REMARK    2  A    between atoms: C_2  and  C_3
REMARK    3  A    between atoms: C_2  and  N_13
REMARK                            x       y       z     vdW  Elec       q    Type
REMARK                         _______ _______ _______ _____ _____    ______ ____
ROOT
ATOM      1  C   UNL     1       9.211  -0.502  22.973  0.00  0.00    -0.014 C 
ATOM      2  C   UNL     1      10.027  -0.098  24.240  0.00  0.00    +0.012 C 
ATOM      3  C   UNL     1       9.976   1.420  24.479  0.00  0.00    -0.010 C 
ATOM      4  C   UNL     1       8.514   1.853  24.665  0.00  0.00    +0.007 C 
ATOM      5  C   UNL     1       7.701   1.507  23.409  0.00  0.00    -0.010 C 
ATOM      6  C   UNL     1       8.306   2.230  22.197  0.00  0.00    +0.007 C 
ATOM      7  C   UNL     1       9.768   1.800  22.005  0.00  0.00    -0.010 C 
ATOM      8  C   UNL     1      10.571   2.148  23.265  0.00  0.00    +0.007 C 
ATOM      9  C   UNL     1       9.817   0.280  21.770  0.00  0.00    +0.012 C 
ATOM     10  C   UNL     1       7.750  -0.013  23.172  0.00  0.00    +0.012 C 
ENDROOT
BRANCH   1  12
ATOM     11  C   UNL     1       7.958  -2.757  22.575  0.00  0.00    +0.024 C 
ATOM     12  C   UNL     1       9.310  -2.049  22.723  0.00  0.00    +0.054 C 
BRANCH  12  13
ATOM     13  N   UNL     1      10.049  -2.769  23.766  0.00  0.00    -0.327 NA
ATOM     14  H   UNL     1      11.045  -2.581  23.692  0.00  0.00    +0.118 HD
ATOM     15  H   UNL     1       9.758  -2.450  24.689  0.00  0.00    +0.118 HD
ENDBRANCH  12  13
ENDBRANCH   1  12
TORSDOF 2
ENDMDL
MODEL 3
REMARK VINA RESULT:      -5.3      0.094      2.062
REMARK  Name = 
REMARK  3 active torsions:
REMARK  status: ('A' for Active; 'I' for Inactive)
REMARK    1  A    between atoms: C_1  and  C_2
REMARK    2  A    between atoms: C_2  and  C_3
REMARK    3  A    between atoms: C_2  and  N_13
REMARK                            x       y       z     vdW  Elec       q    Type
REMARK                         _______ _______ _______ _____ _____    ______ ____
ROOT
ATOM      1  C   UNL     1       9.227  -0.495  22.956  0.00  0.00    -0.014 C 
ATOM      2  C   UNL     1       7.761  -0.006  23.167  0.00  0.00    +0.012 C 
ATOM      3  C   UNL     1       7.707   1.510  23.422  0.00  0.00    -0.010 C 
ATOM      4  C   UNL     1       8.312   2.246  22.216  0.00  0.00    +0.007 C 
ATOM      5  C   UNL     1       9.773   1.814  22.019  0.00  0.00    -0.010 C 
ATOM      6  C   UNL     1      10.576   2.144  23.285  0.00  0.00    +0.007 C 
ATOM      7  C   UNL     1       9.976   1.409  24.493  0.00  0.00    -0.010 C 
ATOM      8  C   UNL     1       8.517   1.845  24.682  0.00  0.00    +0.007 C 
ATOM      9  C   UNL     1      10.028  -0.107  24.235  0.00  0.00    +0.012 C 
ATOM     10  C   UNL     1       9.826   0.297  21.761  0.00  0.00    +0.012 C 
ENDROOT
BRANCH   1  12
ATOM     11  C   UNL     1       7.889  -2.723  22.718  0.00  0.00    +0.024 C 
ATOM     12  C   UNL     1       9.265  -2.049  22.739  0.00  0.00    +0.054 C 
BRANCH  12  13
ATOM     13  N   UNL     1      10.068  -2.764  23.738  0.00  0.00    -0.327 NA
ATOM     14  H   UNL     1      11.032  -2.852  23.425  0.00  0.00    +0.118 HD
ATOM     15  H   UNL     1      10.090  -2.242  24.612  0.00  0.00    +0.118 HD
ENDBRANCH  12  13
ENDBRANCH   1  12
TORSDOF 2
ENDMDL
MODEL 4
REMARK VINA RESULT:      -5.2      1.965      3.973
REMARK  Name = 
REMARK  3 active torsions:
REMARK  status: ('A' for Active; 'I' for Inactive)
REMARK    1  A    between atoms: C_1  and  C_2
REMARK    2  A    between atoms: C_2  and  C_3
REMARK    3  A    between atoms: C_2  and  N_13
REMARK                            x       y       z     vdW  Elec       q    Type
REMARK                         _______ _______ _______ _____ _____    ______ ____
ROOT
ATOM      1  C   UNL     1       9.379   0.455  22.883  0.00  0.00    -0.014 C 
ATOM      2  C   UNL     1       9.672  -0.676  21.850  0.00  0.00    +0.012 C 
ATOM      3  C   UNL     1       9.151  -2.036  22.345  0.00  0.00    -0.010 C 
ATOM      4  C   UNL     1       7.633  -1.943  22.569  0.00  0.00    +0.007 C 
ATOM      5  C   UNL     1       7.325  -0.866  23.619  0.00  0.00    -0.010 C 
ATOM      6  C   UNL     1       8.024  -1.227  24.939  0.00  0.00    +0.007 C 
ATOM      7  C   UNL     1       9.541  -1.320  24.719  0.00  0.00    -0.010 C 
ATOM      8  C   UNL     1       9.839  -2.397  23.668  0.00  0.00    +0.007 C 
ATOM      9  C   UNL     1      10.061   0.041  24.222  0.00  0.00    +0.012 C 
ATOM     10  C   UNL     1       7.844   0.495  23.123  0.00  0.00    +0.012 C 
ENDROOT
BRANCH   1  12
ATOM     11  C   UNL     1      10.596   2.687  23.474  0.00  0.00    +0.024 C 
ATOM     12  C   UNL     1       9.955   1.825  22.380  0.00  0.00    +0.054 C 
BRANCH  12  13
ATOM     13  N   UNL     1       8.962   2.671  21.707  0.00  0.00    -0.327 NA
ATOM     14  H   UNL     1       8.695   3.450  22.303  0.00  0.00    +0.118 HD
ATOM     15  H   UNL     1       9.357   3.072  20.859  0.00  0.00    +0.118 HD
ENDBRANCH  12  13
ENDBRANCH   1  12
TORSDOF 2
ENDMDL
MODEL 5
REMARK VINA RESULT:      -5.2      1.899      3.936
REMARK  Name = 
REMARK  3 active torsions:
REMARK  status: ('A' for Active; 'I' for Inactive)
REMARK    1  A    between atoms: C_1  and  C_2
REMARK    2  A    between atoms: C_2  and  C_3
REMARK    3  A    between atoms: C_2  and  N_13
REMARK                            x       y       z     vdW  Elec       q    Type
REMARK                         _______ _______ _______ _____ _____    ______ ____
ROOT
ATOM      1  C   UNL     1       9.545   0.438  23.270  0.00  0.00    -0.014 C 
ATOM      2  C   UNL     1      10.039  -0.152  24.626  0.00  0.00    +0.012 C 
ATOM      3  C   UNL     1       9.397  -1.521  24.908  0.00  0.00    -0.010 C 
ATOM      4  C   UNL     1       9.763  -2.493  23.775  0.00  0.00    +0.007 C 
ATOM      5  C   UNL     1       9.243  -1.953  22.435  0.00  0.00    -0.010 C 
ATOM      6  C   UNL     1       7.717  -1.791  22.509  0.00  0.00    +0.007 C 
ATOM      7  C   UNL     1       7.348  -0.819  23.639  0.00  0.00    -0.010 C 
ATOM      8  C   UNL     1       7.872  -1.366  24.973  0.00  0.00    +0.007 C 
ATOM      9  C   UNL     1       7.993   0.548  23.356  0.00  0.00    +0.012 C 
ATOM     10  C   UNL     1       9.888  -0.585  22.151  0.00  0.00    +0.012 C 
ENDROOT
BRANCH   1  12
ATOM     11  C   UNL     1       9.591   2.975  23.882  0.00  0.00    +0.024 C 
ATOM     12  C   UNL     1      10.178   1.852  23.019  0.00  0.00    +0.054 C 
BRANCH  12  13
ATOM     13  N   UNL     1      10.086   2.301  21.625  0.00  0.00    -0.327 NA
ATOM     14  H   UNL     1      10.578   1.659  21.010  0.00  0.00    +0.118 HD
ATOM     15  H   UNL     1       9.114   2.311  21.322  0.00  0.00    +0.118 HD
ENDBRANCH  12  13
ENDBRANCH   1  12
TORSDOF 2
ENDMDL
MODEL 6
REMARK VINA RESULT:      -5.1      1.920      3.887
REMARK  Name = 
REMARK  3 active torsions:
REMARK  status: ('A' for Active; 'I' for Inactive)
REMARK    1  A    between atoms: C_1  and  C_2
REMARK    2  A    between atoms: C_2  and  C_3
REMARK    3  A    between atoms: C_2  and  N_13
REMARK                            x       y       z     vdW  Elec       q    Type
REMARK                         _______ _______ _______ _____ _____    ______ ____
ROOT
ATOM      1  C   UNL     1       9.487   0.252  23.064  0.00  0.00    -0.014 C 
ATOM      2  C   UNL     1       7.934   0.380  22.985  0.00  0.00    +0.012 C 
ATOM      3  C   UNL     1       7.242  -0.918  23.435  0.00  0.00    -0.010 C 
ATOM      4  C   UNL     1       7.646  -1.229  24.884  0.00  0.00    +0.007 C 
ATOM      5  C   UNL     1       9.169  -1.406  24.976  0.00  0.00    -0.010 C 
ATOM      6  C   UNL     1       9.604  -2.557  24.057  0.00  0.00    +0.007 C 
ATOM      7  C   UNL     1       9.203  -2.249  22.607  0.00  0.00    -0.010 C 
ATOM      8  C   UNL     1       7.681  -2.073  22.525  0.00  0.00    +0.007 C 
ATOM      9  C   UNL     1       9.895  -0.949  22.159  0.00  0.00    +0.012 C 
ATOM     10  C   UNL     1       9.862  -0.106  24.529  0.00  0.00    +0.012 C 
ENDROOT
BRANCH   1  12
ATOM     11  C   UNL     1      10.347   2.649  23.638  0.00  0.00    +0.024 C 
ATOM     12  C   UNL     1      10.175   1.570  22.562  0.00  0.00    +0.054 C 
BRANCH  12  13
ATOM     13  N   UNL     1       9.481   2.206  21.437  0.00  0.00    -0.327 NA
ATOM     14  H   UNL     1      10.012   3.002  21.093  0.00  0.00    +0.118 HD
ATOM     15  H   UNL     1       9.396   1.553  20.660  0.00  0.00    +0.118 HD
ENDBRANCH  12  13
ENDBRANCH   1  12
TORSDOF 2
ENDMDL
MODEL 7
REMARK VINA RESULT:      -5.0      2.136      3.405
REMARK  Name = 
REMARK  3 active torsions:
REMARK  status: ('A' for Active; 'I' for Inactive)
REMARK    1  A    between atoms: C_1  and  C_2
REMARK    2  A    between atoms: C_2  and  C_3
REMARK    3  A    between atoms: C_2  and  N_13
REMARK                            x       y       z     vdW  Elec       q    Type
REMARK                         _______ _______ _______ _____ _____    ______ ____
ROOT
ATOM      1  C   UNL     1       7.978   0.915  23.768  0.00  0.00    -0.014 C 
ATOM      2  C   UNL     1       8.855   2.053  24.377  0.00  0.00    +0.012 C 
ATOM      3  C   UNL     1      10.305   1.975  23.871  0.00  0.00    -0.010 C 
ATOM      4  C   UNL     1      10.313   2.102  22.340  0.00  0.00    +0.007 C 
ATOM      5  C   UNL     1       9.494   0.962  21.717  0.00  0.00    -0.010 C 
ATOM      6  C   UNL     1      10.102  -0.387  22.129  0.00  0.00    +0.007 C 
ATOM      7  C   UNL     1      10.095  -0.518  23.660  0.00  0.00    -0.010 C 
ATOM      8  C   UNL     1      10.914   0.625  24.274  0.00  0.00    +0.007 C 
ATOM      9  C   UNL     1       8.643  -0.437  24.164  0.00  0.00    +0.012 C 
ATOM     10  C   UNL     1       8.041   1.042  22.220  0.00  0.00    +0.012 C 
ENDROOT
BRANCH   1  12
ATOM     11  C   UNL     1       5.901  -0.373  24.683  0.00  0.00    +0.024 C 
ATOM     12  C   UNL     1       6.514   0.986  24.328  0.00  0.00    +0.054 C 
BRANCH  12  13
ATOM     13  N   UNL     1       5.568   1.649  23.422  0.00  0.00    -0.327 NA
ATOM     14  H   UNL     1       6.066   2.200  22.727  0.00  0.00    +0.118 HD
ATOM     15  H   UNL     1       5.024   0.956  22.911  0.00  0.00    +0.118 HD
ENDBRANCH  12  13
ENDBRANCH   1  12
TORSDOF 2
ENDMDL
MODEL 8
REMARK VINA RESULT:      -5.0      4.961      6.239
REMARK  Name = 
REMARK  3 active torsions:
REMARK  status: ('A' for Active; 'I' for Inactive)
REMARK    1  A    between atoms: C_1  and  C_2
REMARK    2  A    between atoms: C_2  and  C_3
REMARK    3  A    between atoms: C_2  and  N_13
REMARK                            x       y       z     vdW  Elec       q    Type
REMARK                         _______ _______ _______ _____ _____    ______ ____
ROOT
ATOM      1  C   UNL     1       7.224  -4.655  24.734  0.00  0.00    -0.014 C 
ATOM      2  C   UNL     1       7.855  -5.174  23.405  0.00  0.00    +0.012 C 
ATOM      3  C   UNL     1       6.852  -5.101  22.242  0.00  0.00    -0.010 C 
ATOM      4  C   UNL     1       6.408  -3.643  22.049  0.00  0.00    +0.007 C 
ATOM      5  C   UNL     1       5.740  -3.126  23.332  0.00  0.00    -0.010 C 
ATOM      6  C   UNL     1       4.521  -4.001  23.659  0.00  0.00    +0.007 C 
ATOM      7  C   UNL     1       4.960  -5.460  23.853  0.00  0.00    -0.010 C 
ATOM      8  C   UNL     1       5.628  -5.967  22.568  0.00  0.00    +0.007 C 
ATOM      9  C   UNL     1       5.966  -5.530  25.016  0.00  0.00    +0.012 C 
ATOM     10  C   UNL     1       6.745  -3.196  24.496  0.00  0.00    +0.012 C 
ENDROOT
BRANCH   1  12
ATOM     11  C   UNL     1       9.695  -5.037  25.482  0.00  0.00    +0.024 C 
ATOM     12  C   UNL     1       8.248  -4.776  25.917  0.00  0.00    +0.054 C 
BRANCH  12  13
ATOM     13  N   UNL     1       7.907  -5.822  26.888  0.00  0.00    -0.327 NA
ATOM     14  H   UNL     1       7.520  -5.411  27.734  0.00  0.00    +0.118 HD
ATOM     15  H   UNL     1       7.190  -6.436  26.507  0.00  0.00    +0.118 HD
ENDBRANCH  12  13
ENDBRANCH   1  12
TORSDOF 2
ENDMDL
MODEL 9
REMARK VINA RESULT:      -5.0      4.940      6.393
REMARK  Name = 
REMARK  3 active torsions:
REMARK  status: ('A' for Active; 'I' for Inactive)
REMARK    1  A    between atoms: C_1  and  C_2
REMARK    2  A    between atoms: C_2  and  C_3
REMARK    3  A    between atoms: C_2  and  N_13
REMARK                            x       y       z     vdW  Elec       q    Type
REMARK                         _______ _______ _______ _____ _____    ______ ____
ROOT
ATOM      1  C   UNL     1       7.273  -4.663  24.864  0.00  0.00    -0.014 C 
ATOM      2  C   UNL     1       6.826  -3.196  24.582  0.00  0.00    +0.012 C 
ATOM      3  C   UNL     1       5.840  -3.128  23.403  0.00  0.00    -0.010 C 
ATOM      4  C   UNL     1       4.601  -3.975  23.732  0.00  0.00    +0.007 C 
ATOM      5  C   UNL     1       5.013  -5.435  23.967  0.00  0.00    -0.010 C 
ATOM      6  C   UNL     1       5.696  -5.981  22.704  0.00  0.00    +0.007 C 
ATOM      7  C   UNL     1       6.936  -5.138  22.373  0.00  0.00    -0.010 C 
ATOM      8  C   UNL     1       6.515  -3.681  22.141  0.00  0.00    +0.007 C 
ATOM      9  C   UNL     1       7.920  -5.205  23.554  0.00  0.00    +0.012 C 
ATOM     10  C   UNL     1       5.997  -5.504  25.149  0.00  0.00    +0.012 C 
ENDROOT
BRANCH   1  12
ATOM     11  C   UNL     1       9.743  -5.045  25.617  0.00  0.00    +0.024 C 
ATOM     12  C   UNL     1       8.309  -4.708  26.042  0.00  0.00    +0.054 C 
BRANCH  12  13
ATOM     13  N   UNL     1       7.953  -5.654  27.105  0.00  0.00    -0.327 NA
ATOM     14  H   UNL     1       6.943  -5.729  27.193  0.00  0.00    +0.118 HD
ATOM     15  H   UNL     1       8.297  -6.585  26.879  0.00  0.00    +0.118 HD
ENDBRANCH  12  13
ENDBRANCH   1  12
TORSDOF 2
ENDMDL
