MODEL 1
REMARK VINA RESULT:      -6.1      0.000      0.000
REMARK  Name = 
REMARK  12 active torsions:
REMARK  status: ('A' for Active; 'I' for Inactive)
REMARK    1  A    between atoms: C_1  and  C_2
REMARK    2  A    between atoms: N_4  and  C_5
REMARK    3  A    between atoms: C_6  and  N_21
REMARK    4  A    between atoms: C_8  and  C_18
REMARK    5  A    between atoms: C_10  and  C_11
REMARK    6  A    between atoms: C_11  and  C_12
REMARK    7  A    between atoms: C_11  and  O_16
REMARK    8  A    between atoms: C_12  and  C_13
REMARK    9  A    between atoms: C_12  and  O_15
REMARK   10  A    between atoms: C_13  and  O_14
REMARK   11  A    between atoms: O_16  and  C_17
REMARK   12  A    between atoms: C_18  and  O_20
REMARK                            x       y       z     vdW  Elec       q    Type
REMARK                         _______ _______ _______ _____ _____    ______ ____
ROOT
ATOM      1  C   UNL     1       7.449  -2.404  24.435  0.00  0.00    +0.161 C 
ATOM      2  C   UNL     1       7.051  -1.804  23.056  0.00  0.00    +0.229 C 
ATOM      3  O   UNL     1       6.787  -2.679  21.952  0.00  0.00    -0.477 OA
ATOM      4  C   UNL     1       6.760  -4.022  22.165  0.00  0.00    +0.204 C 
ATOM      5  C   UNL     1       7.216  -4.644  23.253  0.00  0.00    +0.071 C 
ATOM      6  C   UNL     1       7.848  -3.900  24.388  0.00  0.00    +0.238 C 
ENDROOT
BRANCH   6   7
ATOM      7  N   UNL     1       7.474  -4.556  25.653  0.00  0.00    -0.104 NA
ATOM      8  C   UNL     1       8.294  -5.391  26.182  0.00  0.00    +0.377 C 
ATOM      9  N   UNL     1       7.962  -5.980  27.349  0.00  0.00    -0.289 N 
ATOM     10  H   UNL     1       8.727  -6.112  27.997  0.00  0.00    +0.255 HD
ATOM     11  H   UNL     1       7.170  -5.524  27.786  0.00  0.00    +0.255 HD
ATOM     12  N   UNL     1       9.504  -5.807  25.759  0.00  0.00    -0.289 N 
ATOM     13  H   UNL     1       9.934  -6.608  26.200  0.00  0.00    +0.255 HD
ATOM     14  H   UNL     1       9.776  -5.667  24.792  0.00  0.00    +0.255 HD
ENDBRANCH   6   7
BRANCH   1  17
ATOM     15  C   UNL     1       5.345  -1.012  27.297  0.00  0.00    +0.109 C 
ATOM     16  C   UNL     1       6.419  -1.058  26.251  0.00  0.00    +0.210 C 
ATOM     17  N   UNL     1       6.377  -2.153  25.420  0.00  0.00    -0.305 N 
ATOM     18  H   UNL     1       5.839  -2.978  25.677  0.00  0.00    +0.149 HD
ATOM     19  O   UNL     1       7.270  -0.177  26.156  0.00  0.00    -0.276 OA
ENDBRANCH   1  17
BRANCH   4  20
ATOM     20  C   UNL     1       6.244  -4.847  21.031  0.00  0.00    +0.372 C 
ATOM     21  O   UNL     1       6.223  -6.066  20.996  0.00  0.00    -0.242 OA
BRANCH  20  22
ATOM     22  O   UNL     1       5.801  -4.052  20.031  0.00  0.00    -0.475 OA
ATOM     23  H   UNL     1       6.552  -3.575  19.618  0.00  0.00    +0.296 HD
ENDBRANCH  20  22
ENDBRANCH   4  20
BRANCH   2  24
ATOM     24  C   UNL     1       8.026  -0.699  22.556  0.00  0.00    +0.191 C 
BRANCH  24  25
ATOM     25  O   UNL     1       9.314  -0.854  23.192  0.00  0.00    -0.373 OA
ATOM     26  C   UNL     1      10.296  -1.495  22.381  0.00  0.00    +0.194 C 
ENDBRANCH  24  25
BRANCH  24  27
ATOM     27  C   UNL     1       7.497   0.711  22.917  0.00  0.00    +0.172 C 
BRANCH  27  28
ATOM     28  O   UNL     1       6.102   0.693  23.269  0.00  0.00    -0.387 OA
ATOM     29  H   UNL     1       6.038   0.457  24.214  0.00  0.00    +0.210 HD
ENDBRANCH  27  28
BRANCH  27  30
ATOM     30  C   UNL     1       7.660   1.736  21.787  0.00  0.00    +0.189 C 
BRANCH  30  31
ATOM     31  O   UNL     1       8.849   1.436  21.046  0.00  0.00    -0.392 OA
ATOM     32  H   UNL     1       8.642   0.670  20.476  0.00  0.00    +0.210 HD
ENDBRANCH  30  31
ENDBRANCH  27  30
ENDBRANCH  24  27
ENDBRANCH   2  24
TORSDOF 10
ENDMDL
MODEL 2
REMARK VINA RESULT:      -6.0      1.382      1.860
REMARK  Name = 
REMARK  12 active torsions:
REMARK  status: ('A' for Active; 'I' for Inactive)
REMARK    1  A    between atoms: C_1  and  C_2
REMARK    2  A    between atoms: N_4  and  C_5
REMARK    3  A    between atoms: C_6  and  N_21
REMARK    4  A    between atoms: C_8  and  C_18
REMARK    5  A    between atoms: C_10  and  C_11
REMARK    6  A    between atoms: C_11  and  C_12
REMARK    7  A    between atoms: C_11  and  O_16
REMARK    8  A    between atoms: C_12  and  C_13
REMARK    9  A    between atoms: C_12  and  O_15
REMARK   10  A    between atoms: C_13  and  O_14
REMARK   11  A    between atoms: O_16  and  C_17
REMARK   12  A    between atoms: C_18  and  O_20
REMARK                            x       y       z     vdW  Elec       q    Type
REMARK                         _______ _______ _______ _____ _____    ______ ____
ROOT
ATOM      1  C   UNL     1       7.526  -2.241  25.190  0.00  0.00    +0.161 C 
ATOM      2  C   UNL     1       7.670  -1.688  23.744  0.00  0.00    +0.229 C 
ATOM      3  O   UNL     1       7.434  -2.555  22.627  0.00  0.00    -0.477 OA
ATOM      4  C   UNL     1       6.960  -3.811  22.852  0.00  0.00    +0.204 C 
ATOM      5  C   UNL     1       6.935  -4.428  24.034  0.00  0.00    +0.071 C 
ATOM      6  C   UNL     1       7.463  -3.786  25.279  0.00  0.00    +0.238 C 
ENDROOT
BRANCH   6   7
ATOM      7  N   UNL     1       6.617  -4.188  26.416  0.00  0.00    -0.104 NA
ATOM      8  C   UNL     1       7.014  -5.147  27.173  0.00  0.00    +0.377 C 
ATOM      9  N   UNL     1       6.250  -5.505  28.226  0.00  0.00    -0.289 N 
ATOM     10  H   UNL     1       6.760  -5.761  29.060  0.00  0.00    +0.255 HD
ATOM     11  H   UNL     1       5.532  -4.815  28.418  0.00  0.00    +0.255 HD
ATOM     12  N   UNL     1       8.127  -5.904  27.106  0.00  0.00    -0.289 N 
ATOM     13  H   UNL     1       8.192  -6.738  27.672  0.00  0.00    +0.255 HD
ATOM     14  H   UNL     1       8.659  -5.941  26.244  0.00  0.00    +0.255 HD
ENDBRANCH   6   7
BRANCH   1  17
ATOM     15  C   UNL     1       5.284  -0.297  27.589  0.00  0.00    +0.109 C 
ATOM     16  C   UNL     1       6.548  -0.748  26.918  0.00  0.00    +0.210 C 
ATOM     17  N   UNL     1       6.371  -1.607  25.859  0.00  0.00    -0.305 N 
ATOM     18  H   UNL     1       5.488  -2.098  25.732  0.00  0.00    +0.149 HD
ATOM     19  O   UNL     1       7.654  -0.372  27.298  0.00  0.00    -0.276 OA
ENDBRANCH   1  17
BRANCH   4  20
ATOM     20  C   UNL     1       6.514  -4.562  21.640  0.00  0.00    +0.372 C 
ATOM     21  O   UNL     1       5.657  -4.192  20.856  0.00  0.00    -0.242 OA
BRANCH  20  22
ATOM     22  O   UNL     1       7.193  -5.727  21.530  0.00  0.00    -0.475 OA
ATOM     23  H   UNL     1       7.004  -6.304  22.300  0.00  0.00    +0.296 HD
ENDBRANCH  20  22
ENDBRANCH   4  20
BRANCH   2  24
ATOM     24  C   UNL     1       9.018  -0.955  23.491  0.00  0.00    +0.191 C 
BRANCH  24  25
ATOM     25  O   UNL     1       9.016   0.325  24.161  0.00  0.00    -0.373 OA
ATOM     26  C   UNL     1      10.116   0.528  25.045  0.00  0.00    +0.194 C 
ENDBRANCH  24  25
BRANCH  24  27
ATOM     27  C   UNL     1       9.229  -0.686  21.980  0.00  0.00    +0.172 C 
BRANCH  27  28
ATOM     28  O   UNL     1      10.157  -1.613  21.390  0.00  0.00    -0.387 OA
ATOM     29  H   UNL     1       9.840  -2.516  21.587  0.00  0.00    +0.210 HD
ENDBRANCH  27  28
BRANCH  27  30
ATOM     30  C   UNL     1       9.749   0.724  21.674  0.00  0.00    +0.189 C 
BRANCH  30  31
ATOM     31  O   UNL     1       8.678   1.519  21.150  0.00  0.00    -0.392 OA
ATOM     32  H   UNL     1       8.322   2.040  21.896  0.00  0.00    +0.210 HD
ENDBRANCH  30  31
ENDBRANCH  27  30
ENDBRANCH  24  27
ENDBRANCH   2  24
TORSDOF 10
ENDMDL
MODEL 3
REMARK VINA RESULT:      -5.8      2.859      5.198
REMARK  Name = 
REMARK  12 active torsions:
REMARK  status: ('A' for Active; 'I' for Inactive)
REMARK    1  A    between atoms: C_1  and  C_2
REMARK    2  A    between atoms: N_4  and  C_5
REMARK    3  A    between atoms: C_6  and  N_21
REMARK    4  A    between atoms: C_8  and  C_18
REMARK    5  A    between atoms: C_10  and  C_11
REMARK    6  A    between atoms: C_11  and  C_12
REMARK    7  A    between atoms: C_11  and  O_16
REMARK    8  A    between atoms: C_12  and  C_13
REMARK    9  A    between atoms: C_12  and  O_15
REMARK   10  A    between atoms: C_13  and  O_14
REMARK   11  A    between atoms: O_16  and  C_17
REMARK   12  A    between atoms: C_18  and  O_20
REMARK                            x       y       z     vdW  Elec       q    Type
REMARK                         _______ _______ _______ _____ _____    ______ ____
ROOT
ATOM      1  C   UNL     1       7.187  -2.103  23.545  0.00  0.00    +0.161 C 
ATOM      2  C   UNL     1       6.240  -3.257  23.984  0.00  0.00    +0.229 C 
ATOM      3  O   UNL     1       6.776  -4.384  24.689  0.00  0.00    -0.477 OA
ATOM      4  C   UNL     1       8.080  -4.363  25.077  0.00  0.00    +0.204 C 
ATOM      5  C   UNL     1       9.004  -3.506  24.641  0.00  0.00    +0.071 C 
ATOM      6  C   UNL     1       8.694  -2.450  23.625  0.00  0.00    +0.238 C 
ENDROOT
BRANCH   6   7
ATOM      7  N   UNL     1       9.469  -1.239  23.947  0.00  0.00    -0.104 NA
ATOM      8  C   UNL     1       9.961  -0.547  22.984  0.00  0.00    +0.377 C 
ATOM      9  N   UNL     1      10.656   0.573  23.274  0.00  0.00    -0.289 N 
ATOM     10  H   UNL     1      10.515   1.344  22.636  0.00  0.00    +0.255 HD
ATOM     11  H   UNL     1      10.528   0.852  24.240  0.00  0.00    +0.255 HD
ATOM     12  N   UNL     1       9.901  -0.744  21.652  0.00  0.00    -0.289 N 
ATOM     13  H   UNL     1      10.501  -0.204  21.044  0.00  0.00    +0.255 HD
ATOM     14  H   UNL     1       9.651  -1.657  21.289  0.00  0.00    +0.255 HD
ENDBRANCH   6   7
BRANCH   1  17
ATOM     15  C   UNL     1       6.578   1.519  24.576  0.00  0.00    +0.109 C 
ATOM     16  C   UNL     1       6.761   0.341  23.666  0.00  0.00    +0.210 C 
ATOM     17  N   UNL     1       6.867  -0.875  24.301  0.00  0.00    -0.305 N 
ATOM     18  H   UNL     1       7.079  -0.923  25.295  0.00  0.00    +0.149 HD
ATOM     19  O   UNL     1       6.812   0.466  22.445  0.00  0.00    -0.276 OA
ENDBRANCH   1  17
BRANCH   4  20
ATOM     20  C   UNL     1       8.497  -5.454  26.009  0.00  0.00    +0.372 C 
ATOM     21  O   UNL     1       7.818  -5.908  26.914  0.00  0.00    -0.242 OA
BRANCH  20  22
ATOM     22  O   UNL     1       9.748  -5.874  25.714  0.00  0.00    -0.475 OA
ATOM     23  H   UNL     1      10.396  -5.155  25.877  0.00  0.00    +0.296 HD
ENDBRANCH  20  22
ENDBRANCH   4  20
BRANCH   2  24
ATOM     24  C   UNL     1       5.353  -3.804  22.830  0.00  0.00    +0.191 C 
BRANCH  24  25
ATOM     25  O   UNL     1       4.693  -5.019  23.249  0.00  0.00    -0.373 OA
ATOM     26  C   UNL     1       3.328  -4.847  23.624  0.00  0.00    +0.194 C 
ENDBRANCH  24  25
BRANCH  24  27
ATOM     27  C   UNL     1       6.211  -4.149  21.587  0.00  0.00    +0.172 C 
BRANCH  27  28
ATOM     28  O   UNL     1       5.669  -3.584  20.381  0.00  0.00    -0.387 OA
ATOM     29  H   UNL     1       4.773  -3.253  20.585  0.00  0.00    +0.210 HD
ENDBRANCH  27  28
BRANCH  27  30
ATOM     30  C   UNL     1       6.365  -5.656  21.345  0.00  0.00    +0.189 C 
BRANCH  30  31
ATOM     31  O   UNL     1       7.354  -6.179  22.240  0.00  0.00    -0.392 OA
ATOM     32  H   UNL     1       8.157  -5.633  22.125  0.00  0.00    +0.210 HD
ENDBRANCH  30  31
ENDBRANCH  27  30
ENDBRANCH  24  27
ENDBRANCH   2  24
TORSDOF 10
ENDMDL
MODEL 4
REMARK VINA RESULT:      -5.8      2.881      5.272
REMARK  Name = 
REMARK  12 active torsions:
REMARK  status: ('A' for Active; 'I' for Inactive)
REMARK    1  A    between atoms: C_1  and  C_2
REMARK    2  A    between atoms: N_4  and  C_5
REMARK    3  A    between atoms: C_6  and  N_21
REMARK    4  A    between atoms: C_8  and  C_18
REMARK    5  A    between atoms: C_10  and  C_11
REMARK    6  A    between atoms: C_11  and  C_12
REMARK    7  A    between atoms: C_11  and  O_16
REMARK    8  A    between atoms: C_12  and  C_13
REMARK    9  A    between atoms: C_12  and  O_15
REMARK   10  A    between atoms: C_13  and  O_14
REMARK   11  A    between atoms: O_16  and  C_17
REMARK   12  A    between atoms: C_18  and  O_20
REMARK                            x       y       z     vdW  Elec       q    Type
REMARK                         _______ _______ _______ _____ _____    ______ ____
ROOT
ATOM      1  C   UNL     1       7.906  -1.887  24.415  0.00  0.00    +0.161 C 
ATOM      2  C   UNL     1       8.192  -3.397  24.654  0.00  0.00    +0.229 C 
ATOM      3  O   UNL     1       7.623  -4.374  23.772  0.00  0.00    -0.477 OA
ATOM      4  C   UNL     1       6.951  -3.954  22.665  0.00  0.00    +0.204 C 
ATOM      5  C   UNL     1       6.531  -2.709  22.440  0.00  0.00    +0.071 C 
ATOM      6  C   UNL     1       6.746  -1.605  23.428  0.00  0.00    +0.238 C 
ENDROOT
BRANCH   6   7
ATOM      7  N   UNL     1       7.007  -0.354  22.695  0.00  0.00    -0.104 NA
ATOM      8  C   UNL     1       6.490   0.737  23.131  0.00  0.00    +0.377 C 
ATOM      9  N   UNL     1       6.741   1.887  22.471  0.00  0.00    -0.289 N 
ATOM     10  H   UNL     1       6.866   2.701  23.058  0.00  0.00    +0.255 HD
ATOM     11  H   UNL     1       7.500   1.779  21.808  0.00  0.00    +0.255 HD
ATOM     12  N   UNL     1       5.696   0.957  24.198  0.00  0.00    -0.289 N 
ATOM     13  H   UNL     1       5.227   1.848  24.290  0.00  0.00    +0.255 HD
ATOM     14  H   UNL     1       5.209   0.181  24.632  0.00  0.00    +0.255 HD
ENDBRANCH   6   7
BRANCH   1  17
ATOM     15  C   UNL     1      10.957   0.401  24.273  0.00  0.00    +0.109 C 
ATOM     16  C   UNL     1       9.794  -0.337  24.869  0.00  0.00    +0.210 C 
ATOM     17  N   UNL     1       9.149  -1.197  24.011  0.00  0.00    -0.305 N 
ATOM     18  H   UNL     1       9.281  -1.122  23.005  0.00  0.00    +0.149 HD
ATOM     19  O   UNL     1       9.453  -0.174  26.037  0.00  0.00    -0.276 OA
ENDBRANCH   1  17
BRANCH   4  20
ATOM     20  C   UNL     1       6.601  -5.019  21.678  0.00  0.00    +0.372 C 
ATOM     21  O   UNL     1       6.971  -6.179  21.729  0.00  0.00    -0.242 OA
BRANCH  20  22
ATOM     22  O   UNL     1       5.810  -4.517  20.702  0.00  0.00    -0.475 OA
ATOM     23  H   UNL     1       4.959  -4.207  21.079  0.00  0.00    +0.296 HD
ENDBRANCH  20  22
ENDBRANCH   4  20
BRANCH   2  24
ATOM     24  C   UNL     1       7.908  -3.859  26.111  0.00  0.00    +0.191 C 
BRANCH  24  25
ATOM     25  O   UNL     1       9.072  -4.522  26.653  0.00  0.00    -0.373 OA
ATOM     26  C   UNL     1       9.968  -5.034  25.669  0.00  0.00    +0.194 C 
ENDBRANCH  24  25
BRANCH  24  27
ATOM     27  C   UNL     1       6.737  -4.872  26.153  0.00  0.00    +0.172 C 
BRANCH  27  28
ATOM     28  O   UNL     1       5.515  -4.308  25.647  0.00  0.00    -0.387 OA
ATOM     29  H   UNL     1       4.774  -4.724  26.128  0.00  0.00    +0.210 HD
ENDBRANCH  27  28
BRANCH  27  30
ATOM     30  C   UNL     1       6.434  -5.404  27.560  0.00  0.00    +0.189 C 
BRANCH  30  31
ATOM     31  O   UNL     1       7.489  -6.284  27.969  0.00  0.00    -0.392 OA
ATOM     32  H   UNL     1       7.878  -5.902  28.780  0.00  0.00    +0.210 HD
ENDBRANCH  30  31
ENDBRANCH  27  30
ENDBRANCH  24  27
ENDBRANCH   2  24
TORSDOF 10
ENDMDL
MODEL 5
REMARK VINA RESULT:      -5.6      2.114      3.145
REMARK  Name = 
REMARK  12 active torsions:
REMARK  status: ('A' for Active; 'I' for Inactive)
REMARK    1  A    between atoms: C_1  and  C_2
REMARK    2  A    between atoms: N_4  and  C_5
REMARK    3  A    between atoms: C_6  and  N_21
REMARK    4  A    between atoms: C_8  and  C_18
REMARK    5  A    between atoms: C_10  and  C_11
REMARK    6  A    between atoms: C_11  and  C_12
REMARK    7  A    between atoms: C_11  and  O_16
REMARK    8  A    between atoms: C_12  and  C_13
REMARK    9  A    between atoms: C_12  and  O_15
REMARK   10  A    between atoms: C_13  and  O_14
REMARK   11  A    between atoms: O_16  and  C_17
REMARK   12  A    between atoms: C_18  and  O_20
REMARK                            x       y       z     vdW  Elec       q    Type
REMARK                         _______ _______ _______ _____ _____    ______ ____
ROOT
ATOM      1  C   UNL     1       7.065  -1.694  23.814  0.00  0.00    +0.161 C 
ATOM      2  C   UNL     1       7.893  -2.279  22.634  0.00  0.00    +0.229 C 
ATOM      3  O   UNL     1       7.511  -3.534  22.055  0.00  0.00    -0.477 OA
ATOM      4  C   UNL     1       6.356  -4.126  22.461  0.00  0.00    +0.204 C 
ATOM      5  C   UNL     1       5.654  -3.793  23.545  0.00  0.00    +0.071 C 
ATOM      6  C   UNL     1       6.093  -2.703  24.473  0.00  0.00    +0.238 C 
ENDROOT
BRANCH   6   7
ATOM      7  N   UNL     1       4.901  -1.995  24.973  0.00  0.00    -0.104 NA
ATOM      8  C   UNL     1       4.633  -2.046  26.228  0.00  0.00    +0.377 C 
ATOM      9  N   UNL     1       3.552  -1.384  26.691  0.00  0.00    -0.289 N 
ATOM     10  H   UNL     1       3.671  -0.946  27.594  0.00  0.00    +0.255 HD
ATOM     11  H   UNL     1       3.187  -0.738  26.002  0.00  0.00    +0.255 HD
ATOM     12  N   UNL     1       5.279  -2.675  27.230  0.00  0.00    -0.289 N 
ATOM     13  H   UNL     1       4.827  -2.764  28.130  0.00  0.00    +0.255 HD
ATOM     14  H   UNL     1       5.939  -3.415  27.018  0.00  0.00    +0.255 HD
ENDBRANCH   6   7
BRANCH   1  17
ATOM     15  C   UNL     1       5.960   1.926  23.333  0.00  0.00    +0.109 C 
ATOM     16  C   UNL     1       6.848   0.779  23.716  0.00  0.00    +0.210 C 
ATOM     17  N   UNL     1       6.368  -0.465  23.379  0.00  0.00    -0.305 N 
ATOM     18  H   UNL     1       5.386  -0.597  23.149  0.00  0.00    +0.149 HD
ATOM     19  O   UNL     1       7.920   0.952  24.289  0.00  0.00    -0.276 OA
ENDBRANCH   1  17
BRANCH   4  20
ATOM     20  C   UNL     1       5.907  -5.296  21.648  0.00  0.00    +0.372 C 
ATOM     21  O   UNL     1       5.904  -5.350  20.430  0.00  0.00    -0.242 OA
BRANCH  20  22
ATOM     22  O   UNL     1       5.493  -6.300  22.454  0.00  0.00    -0.475 OA
ATOM     23  H   UNL     1       6.264  -6.751  22.860  0.00  0.00    +0.296 HD
ENDBRANCH  20  22
ENDBRANCH   4  20
BRANCH   2  24
ATOM     24  C   UNL     1       9.421  -2.338  22.917  0.00  0.00    +0.191 C 
BRANCH  24  25
ATOM     25  O   UNL     1       9.655  -2.437  24.339  0.00  0.00    -0.373 OA
ATOM     26  C   UNL     1       9.650  -3.772  24.843  0.00  0.00    +0.194 C 
ENDBRANCH  24  25
BRANCH  24  27
ATOM     27  C   UNL     1      10.126  -1.051  22.420  0.00  0.00    +0.172 C 
BRANCH  27  28
ATOM     28  O   UNL     1      10.337  -0.104  23.483  0.00  0.00    -0.387 OA
ATOM     29  H   UNL     1      10.326   0.789  23.089  0.00  0.00    +0.210 HD
ENDBRANCH  27  28
BRANCH  27  30
ATOM     30  C   UNL     1       9.358  -0.318  21.313  0.00  0.00    +0.189 C 
BRANCH  30  31
ATOM     31  O   UNL     1       9.526   1.096  21.479  0.00  0.00    -0.392 OA
ATOM     32  H   UNL     1       9.128   1.522  20.695  0.00  0.00    +0.210 HD
ENDBRANCH  30  31
ENDBRANCH  27  30
ENDBRANCH  24  27
ENDBRANCH   2  24
TORSDOF 10
ENDMDL
MODEL 6
REMARK VINA RESULT:      -5.5      3.404      6.682
REMARK  Name = 
REMARK  12 active torsions:
REMARK  status: ('A' for Active; 'I' for Inactive)
REMARK    1  A    between atoms: C_1  and  C_2
REMARK    2  A    between atoms: N_4  and  C_5
REMARK    3  A    between atoms: C_6  and  N_21
REMARK    4  A    between atoms: C_8  and  C_18
REMARK    5  A    between atoms: C_10  and  C_11
REMARK    6  A    between atoms: C_11  and  C_12
REMARK    7  A    between atoms: C_11  and  O_16
REMARK    8  A    between atoms: C_12  and  C_13
REMARK    9  A    between atoms: C_12  and  O_15
REMARK   10  A    between atoms: C_13  and  O_14
REMARK   11  A    between atoms: O_16  and  C_17
REMARK   12  A    between atoms: C_18  and  O_20
REMARK                            x       y       z     vdW  Elec       q    Type
REMARK                         _______ _______ _______ _____ _____    ______ ____
ROOT
ATOM      1  C   UNL     1       6.848  -4.445  23.910  0.00  0.00    +0.161 C 
ATOM      2  C   UNL     1       5.718  -4.778  24.927  0.00  0.00    +0.229 C 
ATOM      3  O   UNL     1       5.194  -3.741  25.768  0.00  0.00    -0.477 OA
ATOM      4  C   UNL     1       5.601  -2.459  25.569  0.00  0.00    +0.204 C 
ATOM      5  C   UNL     1       6.650  -2.084  24.835  0.00  0.00    +0.071 C 
ATOM      6  C   UNL     1       7.533  -3.076  24.144  0.00  0.00    +0.238 C 
ENDROOT
BRANCH   6   7
ATOM      7  N   UNL     1       7.968  -2.508  22.856  0.00  0.00    -0.104 NA
ATOM      8  C   UNL     1       9.155  -2.028  22.761  0.00  0.00    +0.377 C 
ATOM      9  N   UNL     1       9.562  -1.524  21.578  0.00  0.00    -0.289 N 
ATOM     10  H   UNL     1      10.527  -1.709  21.341  0.00  0.00    +0.255 HD
ATOM     11  H   UNL     1       8.932  -1.779  20.826  0.00  0.00    +0.255 HD
ATOM     12  N   UNL     1      10.132  -1.935  23.686  0.00  0.00    -0.289 N 
ATOM     13  H   UNL     1      10.940  -1.361  23.495  0.00  0.00    +0.255 HD
ATOM     14  H   UNL     1       9.903  -2.022  24.670  0.00  0.00    +0.255 HD
ENDBRANCH   6   7
BRANCH   1  17
ATOM     15  C   UNL     1       6.087  -5.658  20.374  0.00  0.00    +0.109 C 
ATOM     16  C   UNL     1       6.530  -5.725  21.805  0.00  0.00    +0.210 C 
ATOM     17  N   UNL     1       6.336  -4.573  22.530  0.00  0.00    -0.305 N 
ATOM     18  H   UNL     1       6.167  -3.687  22.059  0.00  0.00    +0.149 HD
ATOM     19  O   UNL     1       7.031  -6.740  22.282  0.00  0.00    -0.276 OA
ENDBRANCH   1  17
BRANCH   4  20
ATOM     20  C   UNL     1       4.837  -1.413  26.314  0.00  0.00    +0.372 C 
ATOM     21  O   UNL     1       4.328  -1.559  27.412  0.00  0.00    -0.242 OA
BRANCH  20  22
ATOM     22  O   UNL     1       4.780  -0.268  25.596  0.00  0.00    -0.475 OA
ATOM     23  H   UNL     1       3.993   0.257  25.856  0.00  0.00    +0.296 HD
ENDBRANCH  20  22
ENDBRANCH   4  20
BRANCH   2  24
ATOM     24  C   UNL     1       6.041  -5.999  25.834  0.00  0.00    +0.191 C 
BRANCH  24  25
ATOM     25  O   UNL     1       4.918  -6.909  25.853  0.00  0.00    -0.373 OA
ATOM     26  C   UNL     1       4.190  -6.968  24.628  0.00  0.00    +0.194 C 
ENDBRANCH  24  25
BRANCH  24  27
ATOM     27  C   UNL     1       6.299  -5.552  27.295  0.00  0.00    +0.172 C 
BRANCH  27  28
ATOM     28  O   UNL     1       7.620  -5.902  27.742  0.00  0.00    -0.387 OA
ATOM     29  H   UNL     1       7.530  -6.365  28.597  0.00  0.00    +0.210 HD
ENDBRANCH  27  28
BRANCH  27  30
ATOM     30  C   UNL     1       5.311  -6.152  28.304  0.00  0.00    +0.189 C 
BRANCH  30  31
ATOM     31  O   UNL     1       5.576  -7.553  28.448  0.00  0.00    -0.392 OA
ATOM     32  H   UNL     1       4.876  -8.025  27.956  0.00  0.00    +0.210 HD
ENDBRANCH  30  31
ENDBRANCH  27  30
ENDBRANCH  24  27
ENDBRANCH   2  24
TORSDOF 10
ENDMDL
MODEL 7
REMARK VINA RESULT:      -5.4      4.651      8.131
REMARK  Name = 
REMARK  12 active torsions:
REMARK  status: ('A' for Active; 'I' for Inactive)
REMARK    1  A    between atoms: C_1  and  C_2
REMARK    2  A    between atoms: N_4  and  C_5
REMARK    3  A    between atoms: C_6  and  N_21
REMARK    4  A    between atoms: C_8  and  C_18
REMARK    5  A    between atoms: C_10  and  C_11
REMARK    6  A    between atoms: C_11  and  C_12
REMARK    7  A    between atoms: C_11  and  O_16
REMARK    8  A    between atoms: C_12  and  C_13
REMARK    9  A    between atoms: C_12  and  O_15
REMARK   10  A    between atoms: C_13  and  O_14
REMARK   11  A    between atoms: O_16  and  C_17
REMARK   12  A    between atoms: C_18  and  O_20
REMARK                            x       y       z     vdW  Elec       q    Type
REMARK                         _______ _______ _______ _____ _____    ______ ____
ROOT
ATOM      1  C   UNL     1       8.958   3.038  23.948  0.00  0.00    +0.161 C 
ATOM      2  C   UNL     1      10.362   2.384  23.803  0.00  0.00    +0.229 C 
ATOM      3  O   UNL     1      11.500   3.208  23.516  0.00  0.00    -0.477 OA
ATOM      4  C   UNL     1      11.353   4.560  23.507  0.00  0.00    +0.204 C 
ATOM      5  C   UNL     1      10.190   5.213  23.479  0.00  0.00    +0.071 C 
ATOM      6  C   UNL     1       8.876   4.496  23.433  0.00  0.00    +0.238 C 
ENDROOT
BRANCH   6   7
ATOM      7  N   UNL     1       7.894   5.252  24.228  0.00  0.00    -0.104 NA
ATOM      8  C   UNL     1       6.836   5.691  23.647  0.00  0.00    +0.377 C 
ATOM      9  N   UNL     1       5.925   6.369  24.377  0.00  0.00    -0.289 N 
ATOM     10  H   UNL     1       4.960   6.185  24.139  0.00  0.00    +0.255 HD
ATOM     11  H   UNL     1       6.095   6.270  25.371  0.00  0.00    +0.255 HD
ATOM     12  N   UNL     1       6.441   5.585  22.363  0.00  0.00    -0.289 N 
ATOM     13  H   UNL     1       5.669   6.149  22.034  0.00  0.00    +0.255 HD
ATOM     14  H   UNL     1       7.117   5.344  21.647  0.00  0.00    +0.255 HD
ENDBRANCH   6   7
BRANCH   1  17
ATOM     15  C   UNL     1       6.974   2.217  27.102  0.00  0.00    +0.109 C 
ATOM     16  C   UNL     1       7.425   2.120  25.675  0.00  0.00    +0.210 C 
ATOM     17  N   UNL     1       8.492   2.924  25.346  0.00  0.00    -0.305 N 
ATOM     18  H   UNL     1       8.758   3.703  25.943  0.00  0.00    +0.149 HD
ATOM     19  O   UNL     1       6.873   1.376  24.868  0.00  0.00    -0.276 OA
ENDBRANCH   1  17
BRANCH   4  20
ATOM     20  C   UNL     1      12.619   5.350  23.442  0.00  0.00    +0.372 C 
ATOM     21  O   UNL     1      13.419   5.329  22.522  0.00  0.00    -0.242 OA
BRANCH  20  22
ATOM     22  O   UNL     1      12.767   6.099  24.559  0.00  0.00    -0.475 OA
ATOM     23  H   UNL     1      12.755   7.053  24.332  0.00  0.00    +0.296 HD
ENDBRANCH  20  22
ENDBRANCH   4  20
BRANCH   2  24
ATOM     24  C   UNL     1      10.390   1.186  22.812  0.00  0.00    +0.191 C 
BRANCH  24  25
ATOM     25  O   UNL     1       9.695   1.536  21.595  0.00  0.00    -0.373 OA
ATOM     26  C   UNL     1       8.301   1.237  21.607  0.00  0.00    +0.194 C 
ENDBRANCH  24  25
BRANCH  24  27
ATOM     27  C   UNL     1       9.673  -0.048  23.416  0.00  0.00    +0.172 C 
BRANCH  27  28
ATOM     28  O   UNL     1       9.692  -0.035  24.854  0.00  0.00    -0.387 OA
ATOM     29  H   UNL     1       8.924  -0.552  25.165  0.00  0.00    +0.210 HD
ENDBRANCH  27  28
BRANCH  27  30
ATOM     30  C   UNL     1      10.277  -1.387  22.972  0.00  0.00    +0.189 C 
BRANCH  30  31
ATOM     31  O   UNL     1      10.284  -1.450  21.541  0.00  0.00    -0.392 OA
ATOM     32  H   UNL     1      10.472  -2.379  21.299  0.00  0.00    +0.210 HD
ENDBRANCH  30  31
ENDBRANCH  27  30
ENDBRANCH  24  27
ENDBRANCH   2  24
TORSDOF 10
ENDMDL
MODEL 8
REMARK VINA RESULT:      -5.3      3.250      5.465
REMARK  Name = 
REMARK  12 active torsions:
REMARK  status: ('A' for Active; 'I' for Inactive)
REMARK    1  A    between atoms: C_1  and  C_2
REMARK    2  A    between atoms: N_4  and  C_5
REMARK    3  A    between atoms: C_6  and  N_21
REMARK    4  A    between atoms: C_8  and  C_18
REMARK    5  A    between atoms: C_10  and  C_11
REMARK    6  A    between atoms: C_11  and  C_12
REMARK    7  A    between atoms: C_11  and  O_16
REMARK    8  A    between atoms: C_12  and  C_13
REMARK    9  A    between atoms: C_12  and  O_15
REMARK   10  A    between atoms: C_13  and  O_14
REMARK   11  A    between atoms: O_16  and  C_17
REMARK   12  A    between atoms: C_18  and  O_20
REMARK                            x       y       z     vdW  Elec       q    Type
REMARK                         _______ _______ _______ _____ _____    ______ ____
ROOT
ATOM      1  C   UNL     1       6.839  -1.504  24.428  0.00  0.00    +0.161 C 
ATOM      2  C   UNL     1       6.291  -2.715  25.236  0.00  0.00    +0.229 C 
ATOM      3  O   UNL     1       7.113  -3.876  25.419  0.00  0.00    -0.477 OA
ATOM      4  C   UNL     1       8.406  -3.844  24.995  0.00  0.00    +0.204 C 
ATOM      5  C   UNL     1       8.931  -2.929  24.179  0.00  0.00    +0.071 C 
ATOM      6  C   UNL     1       8.117  -1.811  23.608  0.00  0.00    +0.238 C 
ENDROOT
BRANCH   6   7
ATOM      7  N   UNL     1       8.958  -0.604  23.524  0.00  0.00    -0.104 NA
ATOM      8  C   UNL     1       9.493  -0.301  22.397  0.00  0.00    +0.377 C 
ATOM      9  N   UNL     1      10.250   0.813  22.314  0.00  0.00    -0.289 N 
ATOM     10  H   UNL     1      10.157   1.333  21.452  0.00  0.00    +0.255 HD
ATOM     11  H   UNL     1      10.133   1.406  23.127  0.00  0.00    +0.255 HD
ATOM     12  N   UNL     1       9.428  -0.929  21.207  0.00  0.00    -0.289 N 
ATOM     13  H   UNL     1      10.061  -0.656  20.468  0.00  0.00    +0.255 HD
ATOM     14  H   UNL     1       9.128  -1.897  21.164  0.00  0.00    +0.255 HD
ENDBRANCH   6   7
BRANCH   1  17
ATOM     15  C   UNL     1       6.417   1.780  26.324  0.00  0.00    +0.109 C 
ATOM     16  C   UNL     1       6.031   0.585  25.504  0.00  0.00    +0.210 C 
ATOM     17  N   UNL     1       7.029  -0.346  25.326  0.00  0.00    -0.305 N 
ATOM     18  H   UNL     1       8.001  -0.102  25.500  0.00  0.00    +0.149 HD
ATOM     19  O   UNL     1       4.905   0.459  25.030  0.00  0.00    -0.276 OA
ENDBRANCH   1  17
BRANCH   4  20
ATOM     20  C   UNL     1       9.259  -4.989  25.434  0.00  0.00    +0.372 C 
ATOM     21  O   UNL     1      10.428  -5.156  25.129  0.00  0.00    -0.242 OA
BRANCH  20  22
ATOM     22  O   UNL     1       8.552  -5.831  26.221  0.00  0.00    -0.475 OA
ATOM     23  H   UNL     1       9.159  -6.397  26.744  0.00  0.00    +0.296 HD
ENDBRANCH  20  22
ENDBRANCH   4  20
BRANCH   2  24
ATOM     24  C   UNL     1       4.894  -3.201  24.754  0.00  0.00    +0.191 C 
BRANCH  24  25
ATOM     25  O   UNL     1       4.053  -3.490  25.893  0.00  0.00    -0.373 OA
ATOM     26  C   UNL     1       4.209  -2.584  26.983  0.00  0.00    +0.194 C 
ENDBRANCH  24  25
BRANCH  24  27
ATOM     27  C   UNL     1       5.017  -4.505  23.926  0.00  0.00    +0.172 C 
BRANCH  27  28
ATOM     28  O   UNL     1       4.299  -4.426  22.682  0.00  0.00    -0.387 OA
ATOM     29  H   UNL     1       3.479  -4.947  22.780  0.00  0.00    +0.210 HD
ENDBRANCH  27  28
BRANCH  27  30
ATOM     30  C   UNL     1       4.503  -5.750  24.661  0.00  0.00    +0.189 C 
BRANCH  30  31
ATOM     31  O   UNL     1       5.489  -6.179  25.608  0.00  0.00    -0.392 OA
ATOM     32  H   UNL     1       5.341  -7.134  25.758  0.00  0.00    +0.210 HD
ENDBRANCH  30  31
ENDBRANCH  27  30
ENDBRANCH  24  27
ENDBRANCH   2  24
TORSDOF 10
ENDMDL
MODEL 9
REMARK VINA RESULT:      -5.3      2.508      3.932
REMARK  Name = 
REMARK  12 active torsions:
REMARK  status: ('A' for Active; 'I' for Inactive)
REMARK    1  A    between atoms: C_1  and  C_2
REMARK    2  A    between atoms: N_4  and  C_5
REMARK    3  A    between atoms: C_6  and  N_21
REMARK    4  A    between atoms: C_8  and  C_18
REMARK    5  A    between atoms: C_10  and  C_11
REMARK    6  A    between atoms: C_11  and  C_12
REMARK    7  A    between atoms: C_11  and  O_16
REMARK    8  A    between atoms: C_12  and  C_13
REMARK    9  A    between atoms: C_12  and  O_15
REMARK   10  A    between atoms: C_13  and  O_14
REMARK   11  A    between atoms: O_16  and  C_17
REMARK   12  A    between atoms: C_18  and  O_20
REMARK                            x       y       z     vdW  Elec       q    Type
REMARK                         _______ _______ _______ _____ _____    ______ ____
ROOT
ATOM      1  C   UNL     1       7.610  -2.519  25.118  0.00  0.00    +0.161 C 
ATOM      2  C   UNL     1       7.157  -1.101  24.666  0.00  0.00    +0.229 C 
ATOM      3  O   UNL     1       7.966  -0.359  23.743  0.00  0.00    -0.477 OA
ATOM      4  C   UNL     1       9.047  -0.962  23.178  0.00  0.00    +0.204 C 
ATOM      5  C   UNL     1       9.601  -2.103  23.590  0.00  0.00    +0.071 C 
ATOM      6  C   UNL     1       9.082  -2.857  24.775  0.00  0.00    +0.238 C 
ENDROOT
BRANCH   6   7
ATOM      7  N   UNL     1       9.214  -4.301  24.514  0.00  0.00    -0.104 NA
ATOM      8  C   UNL     1       9.458  -5.087  25.500  0.00  0.00    +0.377 C 
ATOM      9  N   UNL     1       9.562  -6.412  25.268  0.00  0.00    -0.289 N 
ATOM     10  H   UNL     1       9.170  -7.007  25.985  0.00  0.00    +0.255 HD
ATOM     11  H   UNL     1       9.222  -6.657  24.345  0.00  0.00    +0.255 HD
ATOM     12  N   UNL     1       9.633  -4.812  26.808  0.00  0.00    -0.289 N 
ATOM     13  H   UNL     1      10.001  -5.529  27.419  0.00  0.00    +0.255 HD
ATOM     14  H   UNL     1       9.845  -3.865  27.100  0.00  0.00    +0.255 HD
ENDBRANCH   6   7
BRANCH   1  17
ATOM     15  C   UNL     1       5.128  -5.396  24.773  0.00  0.00    +0.109 C 
ATOM     16  C   UNL     1       5.917  -4.308  25.440  0.00  0.00    +0.210 C 
ATOM     17  N   UNL     1       6.676  -3.536  24.592  0.00  0.00    -0.305 N 
ATOM     18  H   UNL     1       6.890  -3.858  23.650  0.00  0.00    +0.149 HD
ATOM     19  O   UNL     1       5.880  -4.131  26.655  0.00  0.00    -0.276 OA
ENDBRANCH   1  17
BRANCH   4  20
ATOM     20  C   UNL     1       9.691  -0.216  22.056  0.00  0.00    +0.372 C 
ATOM     21  O   UNL     1      10.162   0.906  22.132  0.00  0.00    -0.242 OA
BRANCH  20  22
ATOM     22  O   UNL     1       9.679  -0.959  20.926  0.00  0.00    -0.475 OA
ATOM     23  H   UNL     1       8.839  -1.461  20.858  0.00  0.00    +0.296 HD
ENDBRANCH  20  22
ENDBRANCH   4  20
BRANCH   2  24
ATOM     24  C   UNL     1       6.808  -0.154  25.850  0.00  0.00    +0.191 C 
BRANCH  24  25
ATOM     25  O   UNL     1       6.125  -0.893  26.886  0.00  0.00    -0.373 OA
ATOM     26  C   UNL     1       4.707  -0.740  26.880  0.00  0.00    +0.194 C 
ENDBRANCH  24  25
BRANCH  24  27
ATOM     27  C   UNL     1       5.861   0.982  25.390  0.00  0.00    +0.172 C 
BRANCH  27  28
ATOM     28  O   UNL     1       5.424   0.806  24.031  0.00  0.00    -0.387 OA
ATOM     29  H   UNL     1       5.502   1.669  23.581  0.00  0.00    +0.210 HD
ENDBRANCH  27  28
BRANCH  27  30
ATOM     30  C   UNL     1       6.488   2.379  25.481  0.00  0.00    +0.189 C 
BRANCH  30  31
ATOM     31  O   UNL     1       7.495   2.511  24.469  0.00  0.00    -0.392 OA
ATOM     32  H   UNL     1       7.300   1.839  23.787  0.00  0.00    +0.210 HD
ENDBRANCH  30  31
ENDBRANCH  27  30
ENDBRANCH  24  27
ENDBRANCH   2  24
TORSDOF 10
ENDMDL
