MODEL 1
REMARK VINA RESULT:      -6.5      0.000      0.000
REMARK  Name = 
REMARK  3 active torsions:
REMARK  status: ('A' for Active; 'I' for Inactive)
REMARK    1  A    between atoms: C_3  and  N_10
REMARK    2  A    between atoms: C_6  and  C_8
REMARK    3  A    between atoms: C_8  and  O_9
REMARK                            x       y       z     vdW  Elec       q    Type
REMARK                         _______ _______ _______ _____ _____    ______ ____
ROOT
ATOM      1  N   UNL     1       9.071  -2.080  24.865  0.00  0.00    -0.288 N 
ATOM      2  C   UNL     1       8.969  -3.399  25.221  0.00  0.00    +0.169 A 
ATOM      3  N   UNL     1       9.638  -4.445  24.674  0.00  0.00    -0.218 NA
ATOM      4  C   UNL     1       9.338  -5.577  25.239  0.00  0.00    +0.201 A 
ATOM      5  N   UNL     1       8.448  -5.739  26.288  0.00  0.00    -0.312 N 
ATOM      6  H   UNL     1       8.274  -6.651  26.682  0.00  0.00    +0.170 HD
ATOM      7  C   UNL     1       7.751  -4.695  26.874  0.00  0.00    +0.279 A 
ATOM      8  O   UNL     1       6.976  -4.878  27.809  0.00  0.00    -0.265 OA
ATOM      9  C   UNL     1       8.059  -3.420  26.258  0.00  0.00    +0.172 A 
ATOM     10  N   UNL     1       7.598  -2.165  26.548  0.00  0.00    -0.229 NA
ATOM     11  C   UNL     1       8.240  -1.379  25.708  0.00  0.00    +0.203 A 
ENDROOT
BRANCH   1  15
ATOM     12  C   UNL     1       8.693  -0.325  22.269  0.00  0.00    +0.038 C 
ATOM     13  C   UNL     1       9.308   0.642  23.269  0.00  0.00    +0.146 C 
ATOM     14  O   UNL     1      10.186  -0.119  24.130  0.00  0.00    -0.351 OA
ATOM     15  C   UNL     1       9.980  -1.526  23.873  0.00  0.00    +0.222 C 
ATOM     16  C   UNL     1       9.500  -1.591  22.434  0.00  0.00    +0.057 C 
BRANCH  13  17
ATOM     17  C   UNL     1      10.113   1.768  22.621  0.00  0.00    +0.187 C 
BRANCH  17  18
ATOM     18  O   UNL     1       9.603   2.037  21.316  0.00  0.00    -0.392 OA
ATOM     19  H   UNL     1       9.166   2.908  21.372  0.00  0.00    +0.210 HD
ENDBRANCH  17  18
ENDBRANCH  13  17
ENDBRANCH   1  15
TORSDOF 3
ENDMDL
MODEL 2
REMARK VINA RESULT:      -6.2      2.671      3.363
REMARK  Name = 
REMARK  3 active torsions:
REMARK  status: ('A' for Active; 'I' for Inactive)
REMARK    1  A    between atoms: C_3  and  N_10
REMARK    2  A    between atoms: C_6  and  C_8
REMARK    3  A    between atoms: C_8  and  O_9
REMARK                            x       y       z     vdW  Elec       q    Type
REMARK                         _______ _______ _______ _____ _____    ______ ____
ROOT
ATOM      1  N   UNL     1       8.309  -1.971  24.152  0.00  0.00    -0.288 N 
ATOM      2  C   UNL     1       7.419  -2.644  23.356  0.00  0.00    +0.169 A 
ATOM      3  N   UNL     1       6.311  -2.135  22.761  0.00  0.00    -0.218 NA
ATOM      4  C   UNL     1       5.677  -3.021  22.052  0.00  0.00    +0.201 A 
ATOM      5  N   UNL     1       6.058  -4.343  21.892  0.00  0.00    -0.312 N 
ATOM      6  H   UNL     1       5.518  -4.971  21.316  0.00  0.00    +0.170 HD
ATOM      7  C   UNL     1       7.184  -4.897  22.479  0.00  0.00    +0.279 A 
ATOM      8  O   UNL     1       7.494  -6.072  22.306  0.00  0.00    -0.265 OA
ATOM      9  C   UNL     1       7.908  -3.932  23.284  0.00  0.00    +0.172 A 
ATOM     10  N   UNL     1       9.061  -4.075  24.007  0.00  0.00    -0.229 NA
ATOM     11  C   UNL     1       9.287  -2.873  24.500  0.00  0.00    +0.203 A 
ENDROOT
BRANCH   1  15
ATOM     12  C   UNL     1      10.531   0.207  24.680  0.00  0.00    +0.038 C 
ATOM     13  C   UNL     1       9.998   0.565  23.302  0.00  0.00    +0.146 C 
ATOM     14  O   UNL     1       8.596   0.212  23.268  0.00  0.00    -0.351 OA
ATOM     15  C   UNL     1       8.283  -0.549  24.457  0.00  0.00    +0.222 C 
ATOM     16  C   UNL     1       9.291  -0.081  25.492  0.00  0.00    +0.057 C 
BRANCH  13  17
ATOM     17  C   UNL     1      10.138   2.048  22.953  0.00  0.00    +0.187 C 
BRANCH  17  18
ATOM     18  O   UNL     1      10.132   2.213  21.537  0.00  0.00    -0.392 OA
ATOM     19  H   UNL     1       9.952   3.159  21.377  0.00  0.00    +0.210 HD
ENDBRANCH  17  18
ENDBRANCH  13  17
ENDBRANCH   1  15
TORSDOF 3
ENDMDL
MODEL 3
REMARK VINA RESULT:      -6.1      2.313      6.067
REMARK  Name = 
REMARK  3 active torsions:
REMARK  status: ('A' for Active; 'I' for Inactive)
REMARK    1  A    between atoms: C_3  and  N_10
REMARK    2  A    between atoms: C_6  and  C_8
REMARK    3  A    between atoms: C_8  and  O_9
REMARK                            x       y       z     vdW  Elec       q    Type
REMARK                         _______ _______ _______ _____ _____    ______ ____
ROOT
ATOM      1  N   UNL     1       8.907  -0.818  24.346  0.00  0.00    -0.288 N 
ATOM      2  C   UNL     1       9.105   0.054  23.308  0.00  0.00    +0.169 A 
ATOM      3  N   UNL     1       8.576  -0.029  22.061  0.00  0.00    -0.218 NA
ATOM      4  C   UNL     1       8.938   0.960  21.301  0.00  0.00    +0.201 A 
ATOM      5  N   UNL     1       9.764   2.005  21.681  0.00  0.00    -0.312 N 
ATOM      6  H   UNL     1       9.994   2.745  21.036  0.00  0.00    +0.170 HD
ATOM      7  C   UNL     1      10.319   2.126  22.945  0.00  0.00    +0.279 A 
ATOM      8  O   UNL     1      11.041   3.072  23.248  0.00  0.00    -0.265 OA
ATOM      9  C   UNL     1       9.939   1.029  23.814  0.00  0.00    +0.172 A 
ATOM     10  N   UNL     1      10.261   0.788  25.122  0.00  0.00    -0.229 NA
ATOM     11  C   UNL     1       9.608  -0.319  25.419  0.00  0.00    +0.203 A 
ENDROOT
BRANCH   1  15
ATOM     12  C   UNL     1       9.325  -3.914  24.793  0.00  0.00    +0.038 C 
ATOM     13  C   UNL     1       8.612  -3.462  26.058  0.00  0.00    +0.146 C 
ATOM     14  O   UNL     1       7.731  -2.373  25.699  0.00  0.00    -0.351 OA
ATOM     15  C   UNL     1       8.021  -1.972  24.341  0.00  0.00    +0.222 C 
ATOM     16  C   UNL     1       8.576  -3.222  23.679  0.00  0.00    +0.057 C 
BRANCH  13  17
ATOM     17  C   UNL     1       7.784  -4.562  26.724  0.00  0.00    +0.187 C 
BRANCH  17  18
ATOM     18  O   UNL     1       8.397  -5.830  26.500  0.00  0.00    -0.392 OA
ATOM     19  H   UNL     1       9.116  -5.671  25.858  0.00  0.00    +0.210 HD
ENDBRANCH  17  18
ENDBRANCH  13  17
ENDBRANCH   1  15
TORSDOF 3
ENDMDL
MODEL 4
REMARK VINA RESULT:      -6.0      2.029      3.115
REMARK  Name = 
REMARK  3 active torsions:
REMARK  status: ('A' for Active; 'I' for Inactive)
REMARK    1  A    between atoms: C_3  and  N_10
REMARK    2  A    between atoms: C_6  and  C_8
REMARK    3  A    between atoms: C_8  and  O_9
REMARK                            x       y       z     vdW  Elec       q    Type
REMARK                         _______ _______ _______ _____ _____    ______ ____
ROOT
ATOM      1  N   UNL     1       9.792  -0.442  23.564  0.00  0.00    -0.288 N 
ATOM      2  C   UNL     1       9.341  -1.304  24.529  0.00  0.00    +0.169 A 
ATOM      3  N   UNL     1       8.706  -0.976  25.683  0.00  0.00    -0.218 NA
ATOM      4  C   UNL     1       8.385  -2.020  26.388  0.00  0.00    +0.201 A 
ATOM      5  N   UNL     1       8.638  -3.335  26.035  0.00  0.00    -0.312 N 
ATOM      6  H   UNL     1       8.349  -4.095  26.631  0.00  0.00    +0.170 HD
ATOM      7  C   UNL     1       9.279  -3.709  24.865  0.00  0.00    +0.279 A 
ATOM      8  O   UNL     1       9.478  -4.887  24.583  0.00  0.00    -0.265 OA
ATOM      9  C   UNL     1       9.657  -2.563  24.061  0.00  0.00    +0.172 A 
ATOM     10  N   UNL     1      10.287  -2.505  22.848  0.00  0.00    -0.229 NA
ATOM     11  C   UNL     1      10.335  -1.218  22.566  0.00  0.00    +0.203 A 
ENDROOT
BRANCH   1  15
ATOM     12  C   UNL     1       8.878   1.638  21.374  0.00  0.00    +0.038 C 
ATOM     13  C   UNL     1       7.691   1.571  22.322  0.00  0.00    +0.146 C 
ATOM     14  O   UNL     1       8.205   1.319  23.651  0.00  0.00    -0.351 OA
ATOM     15  C   UNL     1       9.611   1.001  23.549  0.00  0.00    +0.222 C 
ATOM     16  C   UNL     1      10.078   1.707  22.288  0.00  0.00    +0.057 C 
BRANCH  13  17
ATOM     17  C   UNL     1       6.856   2.851  22.355  0.00  0.00    +0.187 C 
BRANCH  17  18
ATOM     18  O   UNL     1       7.669   3.967  21.998  0.00  0.00    -0.392 OA
ATOM     19  H   UNL     1       8.239   3.661  21.266  0.00  0.00    +0.210 HD
ENDBRANCH  17  18
ENDBRANCH  13  17
ENDBRANCH   1  15
TORSDOF 3
ENDMDL
MODEL 5
REMARK VINA RESULT:      -6.0      1.737      1.865
REMARK  Name = 
REMARK  3 active torsions:
REMARK  status: ('A' for Active; 'I' for Inactive)
REMARK    1  A    between atoms: C_3  and  N_10
REMARK    2  A    between atoms: C_6  and  C_8
REMARK    3  A    between atoms: C_8  and  O_9
REMARK                            x       y       z     vdW  Elec       q    Type
REMARK                         _______ _______ _______ _____ _____    ______ ____
ROOT
ATOM      1  N   UNL     1       8.663  -2.352  22.952  0.00  0.00    -0.288 N 
ATOM      2  C   UNL     1       8.742  -3.380  23.854  0.00  0.00    +0.169 A 
ATOM      3  N   UNL     1       9.856  -3.828  24.486  0.00  0.00    -0.218 NA
ATOM      4  C   UNL     1       9.606  -4.810  25.299  0.00  0.00    +0.201 A 
ATOM      5  N   UNL     1       8.357  -5.363  25.530  0.00  0.00    -0.312 N 
ATOM      6  H   UNL     1       8.239  -6.120  26.186  0.00  0.00    +0.170 HD
ATOM      7  C   UNL     1       7.197  -4.930  24.908  0.00  0.00    +0.279 A 
ATOM      8  O   UNL     1       6.105  -5.440  25.145  0.00  0.00    -0.265 OA
ATOM      9  C   UNL     1       7.447  -3.839  23.987  0.00  0.00    +0.172 A 
ATOM     10  N   UNL     1       6.580  -3.133  23.199  0.00  0.00    -0.229 NA
ATOM     11  C   UNL     1       7.338  -2.233  22.605  0.00  0.00    +0.203 A 
ENDROOT
BRANCH   1  15
ATOM     12  C   UNL     1       8.842   0.644  21.978  0.00  0.00    +0.038 C 
ATOM     13  C   UNL     1       9.422   0.689  23.382  0.00  0.00    +0.146 C 
ATOM     14  O   UNL     1      10.084  -0.574  23.623  0.00  0.00    -0.351 OA
ATOM     15  C   UNL     1       9.755  -1.480  22.547  0.00  0.00    +0.222 C 
ATOM     16  C   UNL     1       9.469  -0.581  21.357  0.00  0.00    +0.057 C 
BRANCH  13  17
ATOM     17  C   UNL     1      10.431   1.818  23.596  0.00  0.00    +0.187 C 
BRANCH  17  18
ATOM     18  O   UNL     1      10.465   2.659  22.445  0.00  0.00    -0.392 OA
ATOM     19  H   UNL     1       9.540   2.928  22.280  0.00  0.00    +0.210 HD
ENDBRANCH  17  18
ENDBRANCH  13  17
ENDBRANCH   1  15
TORSDOF 3
ENDMDL
MODEL 6
REMARK VINA RESULT:      -5.9      3.157      5.415
REMARK  Name = 
REMARK  3 active torsions:
REMARK  status: ('A' for Active; 'I' for Inactive)
REMARK    1  A    between atoms: C_3  and  N_10
REMARK    2  A    between atoms: C_6  and  C_8
REMARK    3  A    between atoms: C_8  and  O_9
REMARK                            x       y       z     vdW  Elec       q    Type
REMARK                         _______ _______ _______ _____ _____    ______ ____
ROOT
ATOM      1  N   UNL     1       8.288  -2.629  23.574  0.00  0.00    -0.288 N 
ATOM      2  C   UNL     1       8.667  -1.762  24.565  0.00  0.00    +0.169 A 
ATOM      3  N   UNL     1       8.214  -1.737  25.844  0.00  0.00    -0.218 NA
ATOM      4  C   UNL     1       8.778  -0.805  26.553  0.00  0.00    +0.201 A 
ATOM      5  N   UNL     1       9.740   0.080  26.095  0.00  0.00    -0.312 N 
ATOM      6  H   UNL     1      10.139   0.773  26.710  0.00  0.00    +0.170 HD
ATOM      7  C   UNL     1      10.229   0.083  24.799  0.00  0.00    +0.279 A 
ATOM      8  O   UNL     1      11.090   0.878  24.433  0.00  0.00    -0.265 OA
ATOM      9  C   UNL     1       9.612  -0.943  23.981  0.00  0.00    +0.172 A 
ATOM     10  N   UNL     1       9.824  -1.273  22.671  0.00  0.00    -0.229 NA
ATOM     11  C   UNL     1       9.029  -2.304  22.461  0.00  0.00    +0.203 A 
ENDROOT
BRANCH   1  15
ATOM     12  C   UNL     1       5.578  -3.455  22.182  0.00  0.00    +0.038 C 
ATOM     13  C   UNL     1       6.588  -4.440  21.615  0.00  0.00    +0.146 C 
ATOM     14  O   UNL     1       7.578  -4.691  22.639  0.00  0.00    -0.351 OA
ATOM     15  C   UNL     1       7.374  -3.752  23.718  0.00  0.00    +0.222 C 
ATOM     16  C   UNL     1       5.897  -3.407  23.658  0.00  0.00    +0.057 C 
BRANCH  13  17
ATOM     17  C   UNL     1       5.973  -5.775  21.192  0.00  0.00    +0.187 C 
BRANCH  17  18
ATOM     18  O   UNL     1       6.307  -6.783  22.144  0.00  0.00    -0.392 OA
ATOM     19  H   UNL     1       5.538  -6.851  22.744  0.00  0.00    +0.210 HD
ENDBRANCH  17  18
ENDBRANCH  13  17
ENDBRANCH   1  15
TORSDOF 3
ENDMDL
MODEL 7
REMARK VINA RESULT:      -5.8      1.367      2.377
REMARK  Name = 
REMARK  3 active torsions:
REMARK  status: ('A' for Active; 'I' for Inactive)
REMARK    1  A    between atoms: C_3  and  N_10
REMARK    2  A    between atoms: C_6  and  C_8
REMARK    3  A    between atoms: C_8  and  O_9
REMARK                            x       y       z     vdW  Elec       q    Type
REMARK                         _______ _______ _______ _____ _____    ______ ____
ROOT
ATOM      1  N   UNL     1       8.675  -1.656  24.486  0.00  0.00    -0.288 N 
ATOM      2  C   UNL     1       7.993  -2.440  25.378  0.00  0.00    +0.169 A 
ATOM      3  N   UNL     1       6.952  -2.065  26.164  0.00  0.00    -0.218 NA
ATOM      4  C   UNL     1       6.504  -3.041  26.895  0.00  0.00    +0.201 A 
ATOM      5  N   UNL     1       6.998  -4.335  26.897  0.00  0.00    -0.312 N 
ATOM      6  H   UNL     1       6.590  -5.044  27.487  0.00  0.00    +0.170 HD
ATOM      7  C   UNL     1       8.055  -4.757  26.106  0.00  0.00    +0.279 A 
ATOM      8  O   UNL     1       8.460  -5.915  26.130  0.00  0.00    -0.265 OA
ATOM      9  C   UNL     1       8.582  -3.684  25.285  0.00  0.00    +0.172 A 
ATOM     10  N   UNL     1       9.601  -3.692  24.372  0.00  0.00    -0.229 NA
ATOM     11  C   UNL     1       9.619  -2.463  23.894  0.00  0.00    +0.203 A 
ENDROOT
BRANCH   1  15
ATOM     12  C   UNL     1      10.311   1.042  24.552  0.00  0.00    +0.038 C 
ATOM     13  C   UNL     1      10.199   0.727  23.069  0.00  0.00    +0.146 C 
ATOM     14  O   UNL     1       8.938   0.050  22.858  0.00  0.00    -0.351 OA
ATOM     15  C   UNL     1       8.369  -0.275  24.146  0.00  0.00    +0.222 C 
ATOM     16  C   UNL     1       8.927   0.773  25.093  0.00  0.00    +0.057 C 
BRANCH  13  17
ATOM     17  C   UNL     1      10.246   1.964  22.171  0.00  0.00    +0.187 C 
BRANCH  17  18
ATOM     18  O   UNL     1       9.192   1.905  21.213  0.00  0.00    -0.392 OA
ATOM     19  H   UNL     1       8.769   1.032  21.331  0.00  0.00    +0.210 HD
ENDBRANCH  17  18
ENDBRANCH  13  17
ENDBRANCH   1  15
TORSDOF 3
ENDMDL
MODEL 8
REMARK VINA RESULT:      -5.7      2.052      6.371
REMARK  Name = 
REMARK  3 active torsions:
REMARK  status: ('A' for Active; 'I' for Inactive)
REMARK    1  A    between atoms: C_3  and  N_10
REMARK    2  A    between atoms: C_6  and  C_8
REMARK    3  A    between atoms: C_8  and  O_9
REMARK                            x       y       z     vdW  Elec       q    Type
REMARK                         _______ _______ _______ _____ _____    ______ ____
ROOT
ATOM      1  N   UNL     1       7.785  -3.494  25.408  0.00  0.00    -0.288 N 
ATOM      2  C   UNL     1       7.876  -2.542  24.427  0.00  0.00    +0.169 A 
ATOM      3  N   UNL     1       6.936  -1.621  24.096  0.00  0.00    -0.218 NA
ATOM      4  C   UNL     1       7.323  -0.841  23.130  0.00  0.00    +0.201 A 
ATOM      5  N   UNL     1       8.550  -0.905  22.490  0.00  0.00    -0.312 N 
ATOM      6  H   UNL     1       8.783  -0.257  21.753  0.00  0.00    +0.170 HD
ATOM      7  C   UNL     1       9.535  -1.827  22.803  0.00  0.00    +0.279 A 
ATOM      8  O   UNL     1      10.614  -1.847  22.218  0.00  0.00    -0.265 OA
ATOM      9  C   UNL     1       9.127  -2.717  23.873  0.00  0.00    +0.172 A 
ATOM     10  N   UNL     1       9.805  -3.742  24.475  0.00  0.00    -0.229 NA
ATOM     11  C   UNL     1       8.980  -4.175  25.407  0.00  0.00    +0.203 A 
ENDROOT
BRANCH   1  15
ATOM     12  C   UNL     1       5.859  -5.883  26.145  0.00  0.00    +0.038 C 
ATOM     13  C   UNL     1       6.779  -5.779  27.351  0.00  0.00    +0.146 C 
ATOM     14  O   UNL     1       7.139  -4.386  27.509  0.00  0.00    -0.351 OA
ATOM     15  C   UNL     1       6.686  -3.658  26.347  0.00  0.00    +0.222 C 
ATOM     16  C   UNL     1       5.497  -4.450  25.832  0.00  0.00    +0.057 C 
BRANCH  13  17
ATOM     17  C   UNL     1       6.146  -6.271  28.653  0.00  0.00    +0.187 C 
BRANCH  17  18
ATOM     18  O   UNL     1       5.500  -7.522  28.432  0.00  0.00    -0.392 OA
ATOM     19  H   UNL     1       6.171  -8.208  28.616  0.00  0.00    +0.210 HD
ENDBRANCH  17  18
ENDBRANCH  13  17
ENDBRANCH   1  15
TORSDOF 3
ENDMDL
MODEL 9
REMARK VINA RESULT:      -5.7      2.140      6.136
REMARK  Name = 
REMARK  3 active torsions:
REMARK  status: ('A' for Active; 'I' for Inactive)
REMARK    1  A    between atoms: C_3  and  N_10
REMARK    2  A    between atoms: C_6  and  C_8
REMARK    3  A    between atoms: C_8  and  O_9
REMARK                            x       y       z     vdW  Elec       q    Type
REMARK                         _______ _______ _______ _____ _____    ______ ____
ROOT
ATOM      1  N   UNL     1       8.422  -2.088  23.270  0.00  0.00    -0.288 N 
ATOM      2  C   UNL     1       8.116  -0.794  22.941  0.00  0.00    +0.169 A 
ATOM      3  N   UNL     1       6.888  -0.218  22.956  0.00  0.00    -0.218 NA
ATOM      4  C   UNL     1       6.921   1.034  22.607  0.00  0.00    +0.201 A 
ATOM      5  N   UNL     1       8.061   1.739  22.259  0.00  0.00    -0.312 N 
ATOM      6  H   UNL     1       8.010   2.715  22.008  0.00  0.00    +0.170 HD
ATOM      7  C   UNL     1       9.332   1.187  22.236  0.00  0.00    +0.279 A 
ATOM      8  O   UNL     1      10.320   1.848  21.929  0.00  0.00    -0.265 OA
ATOM      9  C   UNL     1       9.324  -0.213  22.613  0.00  0.00    +0.172 A 
ATOM     10  N   UNL     1      10.358  -1.102  22.726  0.00  0.00    -0.229 NA
ATOM     11  C   UNL     1       9.786  -2.215  23.142  0.00  0.00    +0.203 A 
ENDROOT
BRANCH   1  15
ATOM     12  C   UNL     1       8.758  -4.805  24.840  0.00  0.00    +0.038 C 
ATOM     13  C   UNL     1       8.194  -3.854  25.885  0.00  0.00    +0.146 C 
ATOM     14  O   UNL     1       7.326  -2.919  25.203  0.00  0.00    -0.351 OA
ATOM     15  C   UNL     1       7.495  -3.088  23.778  0.00  0.00    +0.222 C 
ATOM     16  C   UNL     1       7.931  -4.533  23.607  0.00  0.00    +0.057 C 
BRANCH  13  17
ATOM     17  C   UNL     1       7.394  -4.553  26.985  0.00  0.00    +0.187 C 
BRANCH  17  18
ATOM     18  O   UNL     1       8.041  -5.768  27.354  0.00  0.00    -0.392 OA
ATOM     19  H   UNL     1       8.291  -6.205  26.517  0.00  0.00    +0.210 HD
ENDBRANCH  17  18
ENDBRANCH  13  17
ENDBRANCH   1  15
TORSDOF 3
ENDMDL
