MODEL 1
REMARK VINA RESULT:      -6.8      0.000      0.000
REMARK  Name = 
REMARK  16 active torsions:
REMARK  status: ('A' for Active; 'I' for Inactive)
REMARK    1  A    between atoms: C_1  and  C_2
REMARK    2  A    between atoms: C_2  and  C_3
REMARK    3  A    between atoms: C_2  and  C_4
REMARK    4  A    between atoms: C_4  and  N_5
REMARK    5  A    between atoms: N_5  and  C_6
REMARK    6  A    between atoms: N_5  and  S_28
REMARK    7  A    between atoms: C_6  and  C_7
REMARK    8  A    between atoms: C_7  and  C_9
REMARK    9  A    between atoms: C_7  and  O_27
REMARK   10  A    between atoms: C_9  and  C_11
REMARK   11  A    between atoms: C_9  and  N_18
REMARK   12  A    between atoms: C_11  and  C_12
REMARK   13  A    between atoms: C_19  and  O_21
REMARK   14  A    between atoms: O_21  and  C_22
REMARK   15  A    between atoms: S_28  and  C_31
REMARK   16  A    between atoms: C_34  and  N_37
REMARK                            x       y       z     vdW  Elec       q    Type
REMARK                         _______ _______ _______ _____ _____    ______ ____
ROOT
ATOM      1  C   UNL     1       7.624  -1.942  25.692  0.00  0.00    +0.151 C 
ENDROOT
BRANCH   1   2
ATOM      2  O   UNL     1       7.248  -1.705  27.057  0.00  0.00    -0.389 OA
ATOM      3  H   UNL     1       6.982  -0.763  27.092  0.00  0.00    +0.210 HD
ENDBRANCH   1   2
BRANCH   1   4
ATOM      4  C   UNL     1       6.574  -1.302  24.797  0.00  0.00    +0.142 C 
BRANCH   4   5
ATOM      5  N   UNL     1       6.946  -0.071  23.998  0.00  0.00    -0.174 NA
BRANCH   5   6
ATOM      6  S   UNL     1       6.324   1.296  24.981  0.00  0.00    +0.061 S 
ATOM      7  O   UNL     1       7.119   1.334  26.199  0.00  0.00    -0.153 OA
ATOM      8  O   UNL     1       4.881   1.216  25.030  0.00  0.00    -0.153 OA
BRANCH   6   9
ATOM      9  C   UNL     1       6.715   2.689  23.988  0.00  0.00    +0.106 A 
ATOM     10  C   UNL     1       7.572   3.681  24.457  0.00  0.00    +0.030 A 
ATOM     11  C   UNL     1       7.864   4.765  23.633  0.00  0.00    +0.024 A 
ATOM     12  C   UNL     1       7.328   4.842  22.340  0.00  0.00    +0.025 A 
ATOM     13  C   UNL     1       6.392   3.888  21.931  0.00  0.00    +0.024 A 
ATOM     14  C   UNL     1       6.092   2.799  22.743  0.00  0.00    +0.030 A 
BRANCH  12  15
ATOM     15  N   UNL     1       7.552   5.981  21.557  0.00  0.00    -0.358 N 
ATOM     16  H   UNL     1       7.482   5.809  20.560  0.00  0.00    +0.142 HD
ATOM     17  H   UNL     1       7.008   6.785  21.849  0.00  0.00    +0.142 HD
ENDBRANCH  12  15
ENDBRANCH   6   9
ENDBRANCH   5   6
BRANCH   5  18
ATOM     18  C   UNL     1       8.426   0.182  23.687  0.00  0.00    +0.112 C 
BRANCH  18  20
ATOM     19  C   UNL     1       9.682   1.514  21.844  0.00  0.00    +0.008 C 
ATOM     20  C   UNL     1       8.860   0.269  22.209  0.00  0.00    -0.001 C 
ATOM     21  C   UNL     1       9.719  -0.948  21.812  0.00  0.00    +0.008 C 
ENDBRANCH  18  20
ENDBRANCH   5  18
ENDBRANCH   4   5
ENDBRANCH   1   4
BRANCH   1  22
ATOM     22  C   UNL     1       7.960  -3.447  25.489  0.00  0.00    +0.110 C 
BRANCH  22  23
ATOM     23  N   UNL     1       6.827  -4.359  25.807  0.00  0.00    -0.275 N 
ATOM     24  H   UNL     1       6.103  -4.425  25.103  0.00  0.00    +0.152 HD
ATOM     25  C   UNL     1       6.882  -5.438  26.645  0.00  0.00    +0.401 C 
ATOM     26  O   UNL     1       7.693  -5.615  27.542  0.00  0.00    -0.226 OA
BRANCH  25  27
ATOM     27  O   UNL     1       5.920  -6.341  26.319  0.00  0.00    -0.445 OA
BRANCH  27  28
ATOM     28  C   UNL     1       4.940  -5.831  25.397  0.00  0.00    +0.206 C 
ATOM     29  C   UNL     1       3.628  -5.511  26.097  0.00  0.00    +0.204 C 
ATOM     30  O   UNL     1       2.567  -5.759  25.160  0.00  0.00    -0.376 OA
ATOM     31  C   UNL     1       3.132  -6.358  23.988  0.00  0.00    +0.163 C 
ATOM     32  C   UNL     1       4.503  -6.856  24.374  0.00  0.00    +0.075 C 
ENDBRANCH  27  28
ENDBRANCH  25  27
ENDBRANCH  22  23
BRANCH  22  33
ATOM     33  C   UNL     1       8.661  -3.824  24.154  0.00  0.00    +0.060 C 
BRANCH  33  34
ATOM     34  C   UNL     1       7.729  -4.393  23.075  0.00  0.00    -0.046 A 
ATOM     35  C   UNL     1       6.860  -3.577  22.336  0.00  0.00    +0.004 A 
ATOM     36  C   UNL     1       6.058  -4.110  21.318  0.00  0.00    +0.000 A 
ATOM     37  C   UNL     1       6.105  -5.478  21.040  0.00  0.00    +0.000 A 
ATOM     38  C   UNL     1       6.913  -6.306  21.803  0.00  0.00    +0.000 A 
ATOM     39  C   UNL     1       7.718  -5.769  22.815  0.00  0.00    +0.004 A 
ENDBRANCH  33  34
ENDBRANCH  22  33
ENDBRANCH   1  22
TORSDOF 14
ENDMDL
MODEL 2
REMARK VINA RESULT:      -6.7      2.076      4.212
REMARK  Name = 
REMARK  16 active torsions:
REMARK  status: ('A' for Active; 'I' for Inactive)
REMARK    1  A    between atoms: C_1  and  C_2
REMARK    2  A    between atoms: C_2  and  C_3
REMARK    3  A    between atoms: C_2  and  C_4
REMARK    4  A    between atoms: C_4  and  N_5
REMARK    5  A    between atoms: N_5  and  C_6
REMARK    6  A    between atoms: N_5  and  S_28
REMARK    7  A    between atoms: C_6  and  C_7
REMARK    8  A    between atoms: C_7  and  C_9
REMARK    9  A    between atoms: C_7  and  O_27
REMARK   10  A    between atoms: C_9  and  C_11
REMARK   11  A    between atoms: C_9  and  N_18
REMARK   12  A    between atoms: C_11  and  C_12
REMARK   13  A    between atoms: C_19  and  O_21
REMARK   14  A    between atoms: O_21  and  C_22
REMARK   15  A    between atoms: S_28  and  C_31
REMARK   16  A    between atoms: C_34  and  N_37
REMARK                            x       y       z     vdW  Elec       q    Type
REMARK                         _______ _______ _______ _____ _____    ______ ____
ROOT
ATOM      1  C   UNL     1       8.401  -0.717  26.000  0.00  0.00    +0.151 C 
ENDROOT
BRANCH   1   2
ATOM      2  O   UNL     1       9.025  -0.496  27.274  0.00  0.00    -0.389 OA
ATOM      3  H   UNL     1       9.411   0.403  27.220  0.00  0.00    +0.210 HD
ENDBRANCH   1   2
BRANCH   1   4
ATOM      4  C   UNL     1       6.911  -0.454  26.155  0.00  0.00    +0.142 C 
BRANCH   4   5
ATOM      5  N   UNL     1       6.425   0.978  26.235  0.00  0.00    -0.174 NA
BRANCH   5   6
ATOM      6  S   UNL     1       5.824   1.331  24.581  0.00  0.00    +0.061 S 
ATOM      7  O   UNL     1       4.441   1.758  24.719  0.00  0.00    -0.153 OA
ATOM      8  O   UNL     1       6.186   0.235  23.710  0.00  0.00    -0.153 OA
BRANCH   6   9
ATOM      9  C   UNL     1       6.811   2.700  24.101  0.00  0.00    +0.106 A 
ATOM     10  C   UNL     1       6.651   3.291  22.850  0.00  0.00    +0.030 A 
ATOM     11  C   UNL     1       7.448   4.382  22.512  0.00  0.00    +0.024 A 
ATOM     12  C   UNL     1       8.377   4.896  23.427  0.00  0.00    +0.025 A 
ATOM     13  C   UNL     1       8.591   4.223  24.633  0.00  0.00    +0.024 A 
ATOM     14  C   UNL     1       7.802   3.134  24.985  0.00  0.00    +0.030 A 
BRANCH  12  15
ATOM     15  N   UNL     1       9.237   5.931  23.042  0.00  0.00    -0.358 N 
ATOM     16  H   UNL     1       9.801   5.711  22.229  0.00  0.00    +0.142 HD
ATOM     17  H   UNL     1       8.775   6.830  22.959  0.00  0.00    +0.142 HD
ENDBRANCH  12  15
ENDBRANCH   6   9
ENDBRANCH   5   6
BRANCH   5  18
ATOM     18  C   UNL     1       5.323   1.323  27.242  0.00  0.00    +0.112 C 
BRANCH  18  20
ATOM     19  C   UNL     1       6.983   2.714  28.677  0.00  0.00    +0.008 C 
ATOM     20  C   UNL     1       5.540   2.525  28.186  0.00  0.00    -0.001 C 
ATOM     21  C   UNL     1       5.139   3.845  27.500  0.00  0.00    +0.008 C 
ENDBRANCH  18  20
ENDBRANCH   5  18
ENDBRANCH   4   5
ENDBRANCH   1   4
BRANCH   1  22
ATOM     22  C   UNL     1       8.861  -2.082  25.415  0.00  0.00    +0.110 C 
BRANCH  22  23
ATOM     23  N   UNL     1       7.748  -3.048  25.208  0.00  0.00    -0.275 N 
ATOM     24  H   UNL     1       7.319  -3.037  24.291  0.00  0.00    +0.152 HD
ATOM     25  C   UNL     1       7.577  -4.225  25.883  0.00  0.00    +0.401 C 
ATOM     26  O   UNL     1       8.035  -4.501  26.981  0.00  0.00    -0.226 OA
BRANCH  25  27
ATOM     27  O   UNL     1       6.846  -5.096  25.138  0.00  0.00    -0.445 OA
BRANCH  27  28
ATOM     28  C   UNL     1       6.664  -4.676  23.773  0.00  0.00    +0.206 C 
ATOM     29  C   UNL     1       5.211  -4.800  23.340  0.00  0.00    +0.204 C 
ATOM     30  O   UNL     1       5.204  -5.121  21.939  0.00  0.00    -0.376 OA
ATOM     31  C   UNL     1       6.556  -5.356  21.525  0.00  0.00    +0.163 C 
ATOM     32  C   UNL     1       7.362  -5.579  22.781  0.00  0.00    +0.075 C 
ENDBRANCH  27  28
ENDBRANCH  25  27
ENDBRANCH  22  23
BRANCH  22  33
ATOM     33  C   UNL     1       9.822  -2.020  24.194  0.00  0.00    +0.060 C 
BRANCH  33  34
ATOM     34  C   UNL     1       9.882  -0.657  23.491  0.00  0.00    -0.046 A 
ATOM     35  C   UNL     1      10.624   0.416  24.007  0.00  0.00    +0.004 A 
ATOM     36  C   UNL     1      10.710   1.634  23.319  0.00  0.00    +0.000 A 
ATOM     37  C   UNL     1      10.032   1.799  22.109  0.00  0.00    +0.000 A 
ATOM     38  C   UNL     1       9.245   0.769  21.618  0.00  0.00    +0.000 A 
ATOM     39  C   UNL     1       9.167  -0.449  22.305  0.00  0.00    +0.004 A 
ENDBRANCH  33  34
ENDBRANCH  22  33
ENDBRANCH   1  22
TORSDOF 14
ENDMDL
MODEL 3
REMARK VINA RESULT:      -6.7      2.731      4.296
REMARK  Name = 
REMARK  16 active torsions:
REMARK  status: ('A' for Active; 'I' for Inactive)
REMARK    1  A    between atoms: C_1  and  C_2
REMARK    2  A    between atoms: C_2  and  C_3
REMARK    3  A    between atoms: C_2  and  C_4
REMARK    4  A    between atoms: C_4  and  N_5
REMARK    5  A    between atoms: N_5  and  C_6
REMARK    6  A    between atoms: N_5  and  S_28
REMARK    7  A    between atoms: C_6  and  C_7
REMARK    8  A    between atoms: C_7  and  C_9
REMARK    9  A    between atoms: C_7  and  O_27
REMARK   10  A    between atoms: C_9  and  C_11
REMARK   11  A    between atoms: C_9  and  N_18
REMARK   12  A    between atoms: C_11  and  C_12
REMARK   13  A    between atoms: C_19  and  O_21
REMARK   14  A    between atoms: O_21  and  C_22
REMARK   15  A    between atoms: S_28  and  C_31
REMARK   16  A    between atoms: C_34  and  N_37
REMARK                            x       y       z     vdW  Elec       q    Type
REMARK                         _______ _______ _______ _____ _____    ______ ____
ROOT
ATOM      1  C   UNL     1       8.110  -4.571  24.362  0.00  0.00    +0.151 C 
ENDROOT
BRANCH   1   2
ATOM      2  O   UNL     1       9.108  -5.600  24.285  0.00  0.00    -0.389 OA
ATOM      3  H   UNL     1       9.753  -5.389  24.992  0.00  0.00    +0.210 HD
ENDBRANCH   1   2
BRANCH   1   4
ATOM      4  C   UNL     1       8.712  -3.387  25.101  0.00  0.00    +0.142 C 
BRANCH   4   5
ATOM      5  N   UNL     1       8.430  -1.988  24.596  0.00  0.00    -0.174 NA
BRANCH   5   6
ATOM      6  S   UNL     1       9.382  -1.868  23.079  0.00  0.00    +0.061 S 
ATOM      7  O   UNL     1       8.466  -2.145  21.985  0.00  0.00    -0.153 OA
ATOM      8  O   UNL     1      10.609  -2.618  23.238  0.00  0.00    -0.153 OA
BRANCH   6   9
ATOM      9  C   UNL     1       9.833  -0.173  23.046  0.00  0.00    +0.106 A 
ATOM     10  C   UNL     1       9.640   0.594  21.899  0.00  0.00    +0.030 A 
ATOM     11  C   UNL     1      10.003   1.939  21.918  0.00  0.00    +0.024 A 
ATOM     12  C   UNL     1      10.526   2.519  23.081  0.00  0.00    +0.025 A 
ATOM     13  C   UNL     1      10.805   1.707  24.184  0.00  0.00    +0.024 A 
ATOM     14  C   UNL     1      10.446   0.364  24.180  0.00  0.00    +0.030 A 
BRANCH  12  15
ATOM     15  N   UNL     1      10.974   3.846  23.060  0.00  0.00    -0.358 N 
ATOM     16  H   UNL     1      10.632   4.378  22.267  0.00  0.00    +0.142 HD
ATOM     17  H   UNL     1      10.837   4.332  23.939  0.00  0.00    +0.142 HD
ENDBRANCH  12  15
ENDBRANCH   6   9
ENDBRANCH   5   6
BRANCH   5  18
ATOM     18  C   UNL     1       6.979  -1.596  24.296  0.00  0.00    +0.112 C 
BRANCH  18  20
ATOM     19  C   UNL     1       7.247   0.301  26.052  0.00  0.00    +0.008 C 
ATOM     20  C   UNL     1       6.443  -0.269  24.874  0.00  0.00    -0.001 C 
ATOM     21  C   UNL     1       6.414   0.832  23.796  0.00  0.00    +0.008 C 
ENDBRANCH  18  20
ENDBRANCH   5  18
ENDBRANCH   4   5
ENDBRANCH   1   4
BRANCH   1  22
ATOM     22  C   UNL     1       6.771  -5.170  24.877  0.00  0.00    +0.110 C 
BRANCH  22  23
ATOM     23  N   UNL     1       6.344  -4.630  26.196  0.00  0.00    -0.275 N 
ATOM     24  H   UNL     1       5.496  -4.077  26.193  0.00  0.00    +0.152 HD
ATOM     25  C   UNL     1       6.645  -5.171  27.416  0.00  0.00    +0.401 C 
ATOM     26  O   UNL     1       7.586  -5.910  27.665  0.00  0.00    -0.226 OA
BRANCH  25  27
ATOM     27  O   UNL     1       5.714  -4.810  28.337  0.00  0.00    -0.445 OA
BRANCH  27  28
ATOM     28  C   UNL     1       4.433  -5.435  28.138  0.00  0.00    +0.206 C 
ATOM     29  C   UNL     1       3.305  -4.594  28.718  0.00  0.00    +0.204 C 
ATOM     30  O   UNL     1       2.287  -5.497  29.179  0.00  0.00    -0.376 OA
ATOM     31  C   UNL     1       2.786  -6.836  29.062  0.00  0.00    +0.163 C 
ATOM     32  C   UNL     1       4.282  -6.728  28.907  0.00  0.00    +0.075 C 
ENDBRANCH  27  28
ENDBRANCH  25  27
ENDBRANCH  22  23
BRANCH  22  33
ATOM     33  C   UNL     1       5.600  -5.221  23.855  0.00  0.00    +0.060 C 
BRANCH  33  34
ATOM     34  C   UNL     1       4.281  -5.772  24.415  0.00  0.00    -0.046 A 
ATOM     35  C   UNL     1       4.132  -7.117  24.785  0.00  0.00    +0.004 A 
ATOM     36  C   UNL     1       2.936  -7.585  25.346  0.00  0.00    +0.000 A 
ATOM     37  C   UNL     1       1.862  -6.710  25.524  0.00  0.00    +0.000 A 
ATOM     38  C   UNL     1       1.973  -5.394  25.105  0.00  0.00    +0.000 A 
ATOM     39  C   UNL     1       3.172  -4.927  24.552  0.00  0.00    +0.004 A 
ENDBRANCH  33  34
ENDBRANCH  22  33
ENDBRANCH   1  22
TORSDOF 14
ENDMDL
MODEL 4
REMARK VINA RESULT:      -6.6      2.376      3.756
REMARK  Name = 
REMARK  16 active torsions:
REMARK  status: ('A' for Active; 'I' for Inactive)
REMARK    1  A    between atoms: C_1  and  C_2
REMARK    2  A    between atoms: C_2  and  C_3
REMARK    3  A    between atoms: C_2  and  C_4
REMARK    4  A    between atoms: C_4  and  N_5
REMARK    5  A    between atoms: N_5  and  C_6
REMARK    6  A    between atoms: N_5  and  S_28
REMARK    7  A    between atoms: C_6  and  C_7
REMARK    8  A    between atoms: C_7  and  C_9
REMARK    9  A    between atoms: C_7  and  O_27
REMARK   10  A    between atoms: C_9  and  C_11
REMARK   11  A    between atoms: C_9  and  N_18
REMARK   12  A    between atoms: C_11  and  C_12
REMARK   13  A    between atoms: C_19  and  O_21
REMARK   14  A    between atoms: O_21  and  C_22
REMARK   15  A    between atoms: S_28  and  C_31
REMARK   16  A    between atoms: C_34  and  N_37
REMARK                            x       y       z     vdW  Elec       q    Type
REMARK                         _______ _______ _______ _____ _____    ______ ____
ROOT
ATOM      1  C   UNL     1       8.611  -1.564  21.881  0.00  0.00    +0.151 C 
ENDROOT
BRANCH   1   2
ATOM      2  O   UNL     1      10.023  -1.806  21.972  0.00  0.00    -0.389 OA
ATOM      3  H   UNL     1      10.155  -2.704  21.604  0.00  0.00    +0.210 HD
ENDBRANCH   1   2
BRANCH   1   4
ATOM      4  C   UNL     1       8.362  -0.103  22.222  0.00  0.00    +0.142 C 
BRANCH   4   5
ATOM      5  N   UNL     1       8.819   0.423  23.566  0.00  0.00    -0.174 NA
BRANCH   5   6
ATOM      6  S   UNL     1       9.881   1.810  23.157  0.00  0.00    +0.061 S 
ATOM      7  O   UNL     1      10.247   1.662  21.758  0.00  0.00    -0.153 OA
ATOM      8  O   UNL     1      10.890   1.944  24.185  0.00  0.00    -0.153 OA
BRANCH   6   9
ATOM      9  C   UNL     1       8.801   3.182  23.334  0.00  0.00    +0.106 A 
ATOM     10  C   UNL     1       7.915   3.528  22.317  0.00  0.00    +0.030 A 
ATOM     11  C   UNL     1       7.068   4.618  22.502  0.00  0.00    +0.024 A 
ATOM     12  C   UNL     1       7.086   5.338  23.703  0.00  0.00    +0.025 A 
ATOM     13  C   UNL     1       8.054   5.037  24.666  0.00  0.00    +0.024 A 
ATOM     14  C   UNL     1       8.904   3.950  24.496  0.00  0.00    +0.030 A 
BRANCH  12  15
ATOM     15  N   UNL     1       6.299   6.488  23.842  0.00  0.00    -0.358 N 
ATOM     16  H   UNL     1       5.722   6.489  24.675  0.00  0.00    +0.142 HD
ATOM     17  H   UNL     1       6.821   7.350  23.733  0.00  0.00    +0.142 HD
ENDBRANCH  12  15
ENDBRANCH   6   9
ENDBRANCH   5   6
BRANCH   5  18
ATOM     18  C   UNL     1       7.759   0.895  24.567  0.00  0.00    +0.112 C 
BRANCH  18  20
ATOM     19  C   UNL     1       5.615  -0.446  25.168  0.00  0.00    +0.008 C 
ATOM     20  C   UNL     1       6.275   0.601  24.259  0.00  0.00    -0.001 C 
ATOM     21  C   UNL     1       5.422   1.879  24.380  0.00  0.00    +0.008 C 
ENDBRANCH  18  20
ENDBRANCH   5  18
ENDBRANCH   4   5
ENDBRANCH   1   4
BRANCH   1  22
ATOM     22  C   UNL     1       7.834  -2.657  22.668  0.00  0.00    +0.110 C 
BRANCH  22  23
ATOM     23  N   UNL     1       8.076  -2.621  24.135  0.00  0.00    -0.275 N 
ATOM     24  H   UNL     1       7.282  -2.357  24.707  0.00  0.00    +0.152 HD
ATOM     25  C   UNL     1       9.023  -3.343  24.807  0.00  0.00    +0.401 C 
ATOM     26  O   UNL     1      10.044  -3.814  24.329  0.00  0.00    -0.226 OA
BRANCH  25  27
ATOM     27  O   UNL     1       8.656  -3.517  26.104  0.00  0.00    -0.445 OA
BRANCH  27  28
ATOM     28  C   UNL     1       7.409  -4.218  26.260  0.00  0.00    +0.206 C 
ATOM     29  C   UNL     1       6.433  -3.435  27.126  0.00  0.00    +0.204 C 
ATOM     30  O   UNL     1       5.634  -4.388  27.847  0.00  0.00    -0.376 OA
ATOM     31  C   UNL     1       6.162  -5.697  27.598  0.00  0.00    +0.163 C 
ATOM     32  C   UNL     1       7.551  -5.506  27.041  0.00  0.00    +0.075 C 
ENDBRANCH  27  28
ENDBRANCH  25  27
ENDBRANCH  22  23
BRANCH  22  33
ATOM     33  C   UNL     1       6.326  -2.814  22.323  0.00  0.00    +0.060 C 
BRANCH  33  34
ATOM     34  C   UNL     1       5.618  -3.970  23.045  0.00  0.00    -0.046 A 
ATOM     35  C   UNL     1       6.000  -5.307  22.865  0.00  0.00    +0.004 A 
ATOM     36  C   UNL     1       5.375  -6.340  23.577  0.00  0.00    +0.000 A 
ATOM     37  C   UNL     1       4.342  -6.045  24.468  0.00  0.00    +0.000 A 
ATOM     38  C   UNL     1       3.912  -4.735  24.611  0.00  0.00    +0.000 A 
ATOM     39  C   UNL     1       4.543  -3.704  23.903  0.00  0.00    +0.004 A 
ENDBRANCH  33  34
ENDBRANCH  22  33
ENDBRANCH   1  22
TORSDOF 14
ENDMDL
MODEL 5
REMARK VINA RESULT:      -6.6      3.192      8.784
REMARK  Name = 
REMARK  16 active torsions:
REMARK  status: ('A' for Active; 'I' for Inactive)
REMARK    1  A    between atoms: C_1  and  C_2
REMARK    2  A    between atoms: C_2  and  C_3
REMARK    3  A    between atoms: C_2  and  C_4
REMARK    4  A    between atoms: C_4  and  N_5
REMARK    5  A    between atoms: N_5  and  C_6
REMARK    6  A    between atoms: N_5  and  S_28
REMARK    7  A    between atoms: C_6  and  C_7
REMARK    8  A    between atoms: C_7  and  C_9
REMARK    9  A    between atoms: C_7  and  O_27
REMARK   10  A    between atoms: C_9  and  C_11
REMARK   11  A    between atoms: C_9  and  N_18
REMARK   12  A    between atoms: C_11  and  C_12
REMARK   13  A    between atoms: C_19  and  O_21
REMARK   14  A    between atoms: O_21  and  C_22
REMARK   15  A    between atoms: S_28  and  C_31
REMARK   16  A    between atoms: C_34  and  N_37
REMARK                            x       y       z     vdW  Elec       q    Type
REMARK                         _______ _______ _______ _____ _____    ______ ____
ROOT
ATOM      1  C   UNL     1       9.230  -1.754  22.624  0.00  0.00    +0.151 C 
ENDROOT
BRANCH   1   2
ATOM      2  O   UNL     1      10.052  -1.560  21.464  0.00  0.00    -0.389 OA
ATOM      3  H   UNL     1       9.863  -0.648  21.162  0.00  0.00    +0.210 HD
ENDBRANCH   1   2
BRANCH   1   4
ATOM      4  C   UNL     1       8.107  -2.709  22.250  0.00  0.00    +0.142 C 
BRANCH   4   5
ATOM      5  N   UNL     1       7.482  -3.563  23.333  0.00  0.00    -0.174 NA
BRANCH   5   6
ATOM      6  S   UNL     1       6.143  -4.418  22.499  0.00  0.00    +0.061 S 
ATOM      7  O   UNL     1       6.740  -5.524  21.768  0.00  0.00    -0.153 OA
ATOM      8  O   UNL     1       5.309  -3.442  21.832  0.00  0.00    -0.153 OA
BRANCH   6   9
ATOM      9  C   UNL     1       5.200  -5.049  23.839  0.00  0.00    +0.106 A 
ATOM     10  C   UNL     1       4.689  -4.196  24.814  0.00  0.00    +0.030 A 
ATOM     11  C   UNL     1       3.938  -4.737  25.855  0.00  0.00    +0.024 A 
ATOM     12  C   UNL     1       3.676  -6.112  25.906  0.00  0.00    +0.025 A 
ATOM     13  C   UNL     1       4.285  -6.958  24.974  0.00  0.00    +0.024 A 
ATOM     14  C   UNL     1       5.035  -6.433  23.928  0.00  0.00    +0.030 A 
BRANCH  12  15
ATOM     15  N   UNL     1       3.001  -6.655  27.006  0.00  0.00    -0.358 N 
ATOM     16  H   UNL     1       3.612  -6.910  27.773  0.00  0.00    +0.142 HD
ATOM     17  H   UNL     1       2.211  -6.097  27.310  0.00  0.00    +0.142 HD
ENDBRANCH  12  15
ENDBRANCH   6   9
ENDBRANCH   5   6
BRANCH   5  18
ATOM     18  C   UNL     1       8.357  -4.600  24.046  0.00  0.00    +0.112 C 
BRANCH  18  20
ATOM     19  C   UNL     1       8.327  -3.005  26.097  0.00  0.00    +0.008 C 
ATOM     20  C   UNL     1       8.654  -4.401  25.548  0.00  0.00    -0.001 C 
ATOM     21  C   UNL     1       7.855  -5.402  26.406  0.00  0.00    +0.008 C 
ENDBRANCH  18  20
ENDBRANCH   5  18
ENDBRANCH   4   5
ENDBRANCH   1   4
BRANCH   1  22
ATOM     22  C   UNL     1       8.862  -0.378  23.249  0.00  0.00    +0.110 C 
BRANCH  22  23
ATOM     23  N   UNL     1       9.639   0.759  22.685  0.00  0.00    -0.275 N 
ATOM     24  H   UNL     1       9.232   1.214  21.877  0.00  0.00    +0.152 HD
ATOM     25  C   UNL     1      10.519   1.546  23.376  0.00  0.00    +0.401 C 
ATOM     26  O   UNL     1      11.102   1.243  24.406  0.00  0.00    -0.226 OA
BRANCH  25  27
ATOM     27  O   UNL     1      10.634   2.763  22.781  0.00  0.00    -0.445 OA
BRANCH  27  28
ATOM     28  C   UNL     1      11.049   3.806  23.681  0.00  0.00    +0.206 C 
ATOM     29  C   UNL     1      10.000   4.903  23.785  0.00  0.00    +0.204 C 
ATOM     30  O   UNL     1      10.692   6.143  24.002  0.00  0.00    -0.376 OA
ATOM     31  C   UNL     1      12.099   5.902  23.879  0.00  0.00    +0.163 C 
ATOM     32  C   UNL     1      12.251   4.575  23.177  0.00  0.00    +0.075 C 
ENDBRANCH  27  28
ENDBRANCH  25  27
ENDBRANCH  22  23
BRANCH  22  33
ATOM     33  C   UNL     1       7.346  -0.056  23.363  0.00  0.00    +0.060 C 
BRANCH  33  34
ATOM     34  C   UNL     1       6.801  -0.024  24.799  0.00  0.00    -0.046 A 
ATOM     35  C   UNL     1       7.475   0.637  25.836  0.00  0.00    +0.004 A 
ATOM     36  C   UNL     1       6.931   0.701  27.127  0.00  0.00    +0.000 A 
ATOM     37  C   UNL     1       5.709   0.082  27.397  0.00  0.00    +0.000 A 
ATOM     38  C   UNL     1       5.062  -0.627  26.397  0.00  0.00    +0.000 A 
ATOM     39  C   UNL     1       5.605  -0.683  25.107  0.00  0.00    +0.004 A 
ENDBRANCH  33  34
ENDBRANCH  22  33
ENDBRANCH   1  22
TORSDOF 14
ENDMDL
MODEL 6
REMARK VINA RESULT:      -6.6      2.864      8.021
REMARK  Name = 
REMARK  16 active torsions:
REMARK  status: ('A' for Active; 'I' for Inactive)
REMARK    1  A    between atoms: C_1  and  C_2
REMARK    2  A    between atoms: C_2  and  C_3
REMARK    3  A    between atoms: C_2  and  C_4
REMARK    4  A    between atoms: C_4  and  N_5
REMARK    5  A    between atoms: N_5  and  C_6
REMARK    6  A    between atoms: N_5  and  S_28
REMARK    7  A    between atoms: C_6  and  C_7
REMARK    8  A    between atoms: C_7  and  C_9
REMARK    9  A    between atoms: C_7  and  O_27
REMARK   10  A    between atoms: C_9  and  C_11
REMARK   11  A    between atoms: C_9  and  N_18
REMARK   12  A    between atoms: C_11  and  C_12
REMARK   13  A    between atoms: C_19  and  O_21
REMARK   14  A    between atoms: O_21  and  C_22
REMARK   15  A    between atoms: S_28  and  C_31
REMARK   16  A    between atoms: C_34  and  N_37
REMARK                            x       y       z     vdW  Elec       q    Type
REMARK                         _______ _______ _______ _____ _____    ______ ____
ROOT
ATOM      1  C   UNL     1       8.491  -4.366  26.705  0.00  0.00    +0.151 C 
ENDROOT
BRANCH   1   2
ATOM      2  O   UNL     1       9.578  -5.228  26.335  0.00  0.00    -0.389 OA
ATOM      3  H   UNL     1       9.167  -6.097  26.149  0.00  0.00    +0.210 HD
ENDBRANCH   1   2
BRANCH   1   4
ATOM      4  C   UNL     1       7.333  -5.240  27.160  0.00  0.00    +0.142 C 
BRANCH   4   5
ATOM      5  N   UNL     1       5.918  -4.797  26.853  0.00  0.00    -0.174 NA
BRANCH   5   6
ATOM      6  S   UNL     1       4.889  -6.063  27.601  0.00  0.00    +0.061 S 
ATOM      7  O   UNL     1       4.012  -5.390  28.545  0.00  0.00    -0.153 OA
ATOM      8  O   UNL     1       5.731  -7.165  28.013  0.00  0.00    -0.153 OA
BRANCH   6   9
ATOM      9  C   UNL     1       3.944  -6.639  26.239  0.00  0.00    +0.106 A 
ATOM     10  C   UNL     1       2.649  -7.117  26.421  0.00  0.00    +0.030 A 
ATOM     11  C   UNL     1       1.929  -7.556  25.312  0.00  0.00    +0.024 A 
ATOM     12  C   UNL     1       2.488  -7.490  24.029  0.00  0.00    +0.025 A 
ATOM     13  C   UNL     1       3.824  -7.103  23.884  0.00  0.00    +0.024 A 
ATOM     14  C   UNL     1       4.554  -6.661  24.982  0.00  0.00    +0.030 A 
BRANCH  12  15
ATOM     15  N   UNL     1       1.793  -8.020  22.935  0.00  0.00    -0.358 N 
ATOM     16  H   UNL     1       1.356  -7.316  22.350  0.00  0.00    +0.142 HD
ATOM     17  H   UNL     1       2.335  -8.686  22.397  0.00  0.00    +0.142 HD
ENDBRANCH  12  15
ENDBRANCH   6   9
ENDBRANCH   5   6
BRANCH   5  18
ATOM     18  C   UNL     1       5.453  -3.426  27.358  0.00  0.00    +0.112 C 
BRANCH  18  20
ATOM     19  C   UNL     1       4.525  -3.041  24.962  0.00  0.00    +0.008 C 
ATOM     20  C   UNL     1       4.617  -2.539  26.410  0.00  0.00    -0.001 C 
ATOM     21  C   UNL     1       3.167  -2.405  26.915  0.00  0.00    +0.008 C 
ENDBRANCH  18  20
ENDBRANCH   5  18
ENDBRANCH   4   5
ENDBRANCH   1   4
BRANCH   1  22
ATOM     22  C   UNL     1       8.240  -3.318  25.583  0.00  0.00    +0.110 C 
BRANCH  22  23
ATOM     23  N   UNL     1       8.499  -1.916  26.008  0.00  0.00    -0.275 N 
ATOM     24  H   UNL     1       9.328  -1.771  26.571  0.00  0.00    +0.152 HD
ATOM     25  C   UNL     1       8.072  -0.792  25.356  0.00  0.00    +0.401 C 
ATOM     26  O   UNL     1       7.127  -0.721  24.585  0.00  0.00    -0.226 OA
BRANCH  25  27
ATOM     27  O   UNL     1       8.882   0.260  25.646  0.00  0.00    -0.445 OA
BRANCH  27  28
ATOM     28  C   UNL     1       9.173   1.093  24.509  0.00  0.00    +0.206 C 
ATOM     29  C   UNL     1      10.670   1.192  24.258  0.00  0.00    +0.204 C 
ATOM     30  O   UNL     1      10.932   2.498  23.719  0.00  0.00    -0.376 OA
ATOM     31  C   UNL     1       9.719   3.259  23.772  0.00  0.00    +0.163 C 
ATOM     32  C   UNL     1       8.800   2.542  24.730  0.00  0.00    +0.075 C 
ENDBRANCH  27  28
ENDBRANCH  25  27
ENDBRANCH  22  23
BRANCH  22  33
ATOM     33  C   UNL     1       8.859  -3.636  24.193  0.00  0.00    +0.060 C 
BRANCH  33  34
ATOM     34  C   UNL     1       7.882  -4.247  23.178  0.00  0.00    -0.046 A 
ATOM     35  C   UNL     1       7.791  -5.631  22.972  0.00  0.00    +0.004 A 
ATOM     36  C   UNL     1       6.853  -6.170  22.081  0.00  0.00    +0.000 A 
ATOM     37  C   UNL     1       6.005  -5.321  21.367  0.00  0.00    +0.000 A 
ATOM     38  C   UNL     1       6.126  -3.948  21.513  0.00  0.00    +0.000 A 
ATOM     39  C   UNL     1       7.060  -3.413  22.410  0.00  0.00    +0.004 A 
ENDBRANCH  33  34
ENDBRANCH  22  33
ENDBRANCH   1  22
TORSDOF 14
ENDMDL
MODEL 7
REMARK VINA RESULT:      -6.6      1.654      2.480
REMARK  Name = 
REMARK  16 active torsions:
REMARK  status: ('A' for Active; 'I' for Inactive)
REMARK    1  A    between atoms: C_1  and  C_2
REMARK    2  A    between atoms: C_2  and  C_3
REMARK    3  A    between atoms: C_2  and  C_4
REMARK    4  A    between atoms: C_4  and  N_5
REMARK    5  A    between atoms: N_5  and  C_6
REMARK    6  A    between atoms: N_5  and  S_28
REMARK    7  A    between atoms: C_6  and  C_7
REMARK    8  A    between atoms: C_7  and  C_9
REMARK    9  A    between atoms: C_7  and  O_27
REMARK   10  A    between atoms: C_9  and  C_11
REMARK   11  A    between atoms: C_9  and  N_18
REMARK   12  A    between atoms: C_11  and  C_12
REMARK   13  A    between atoms: C_19  and  O_21
REMARK   14  A    between atoms: O_21  and  C_22
REMARK   15  A    between atoms: S_28  and  C_31
REMARK   16  A    between atoms: C_34  and  N_37
REMARK                            x       y       z     vdW  Elec       q    Type
REMARK                         _______ _______ _______ _____ _____    ______ ____
ROOT
ATOM      1  C   UNL     1       8.639  -3.186  23.920  0.00  0.00    +0.151 C 
ENDROOT
BRANCH   1   2
ATOM      2  O   UNL     1      10.054  -3.311  24.131  0.00  0.00    -0.389 OA
ATOM      3  H   UNL     1      10.441  -2.479  23.790  0.00  0.00    +0.210 HD
ENDBRANCH   1   2
BRANCH   1   4
ATOM      4  C   UNL     1       8.148  -1.993  24.723  0.00  0.00    +0.142 C 
BRANCH   4   5
ATOM      5  N   UNL     1       8.316  -0.603  24.147  0.00  0.00    -0.174 NA
BRANCH   5   6
ATOM      6  S   UNL     1       6.925   0.318  24.809  0.00  0.00    +0.061 S 
ATOM      7  O   UNL     1       7.202   0.543  26.219  0.00  0.00    -0.153 OA
ATOM      8  O   UNL     1       5.699  -0.314  24.377  0.00  0.00    -0.153 OA
BRANCH   6   9
ATOM      9  C   UNL     1       7.033   1.842  23.946  0.00  0.00    +0.106 A 
ATOM     10  C   UNL     1       7.301   3.029  24.624  0.00  0.00    +0.030 A 
ATOM     11  C   UNL     1       7.388   4.215  23.899  0.00  0.00    +0.024 A 
ATOM     12  C   UNL     1       7.237   4.212  22.506  0.00  0.00    +0.025 A 
ATOM     13  C   UNL     1       6.868   3.028  21.862  0.00  0.00    +0.024 A 
ATOM     14  C   UNL     1       6.780   1.835  22.572  0.00  0.00    +0.030 A 
BRANCH  12  15
ATOM     15  N   UNL     1       7.233   5.421  21.800  0.00  0.00    -0.358 N 
ATOM     16  H   UNL     1       7.390   6.235  22.385  0.00  0.00    +0.142 HD
ATOM     17  H   UNL     1       7.832   5.413  20.982  0.00  0.00    +0.142 HD
ENDBRANCH  12  15
ENDBRANCH   6   9
ENDBRANCH   5   6
BRANCH   5  18
ATOM     18  C   UNL     1       9.605   0.166  24.455  0.00  0.00    +0.112 C 
BRANCH  18  20
ATOM     19  C   UNL     1       9.906   0.333  21.879  0.00  0.00    +0.008 C 
ATOM     20  C   UNL     1      10.459   0.671  23.272  0.00  0.00    -0.001 C 
ATOM     21  C   UNL     1      10.613   2.204  23.316  0.00  0.00    +0.008 C 
ENDBRANCH  18  20
ENDBRANCH   5  18
ENDBRANCH   4   5
ENDBRANCH   1   4
BRANCH   1  22
ATOM     22  C   UNL     1       7.949  -4.564  24.130  0.00  0.00    +0.110 C 
BRANCH  22  23
ATOM     23  N   UNL     1       7.433  -4.768  25.511  0.00  0.00    -0.275 N 
ATOM     24  H   UNL     1       6.476  -5.092  25.581  0.00  0.00    +0.152 HD
ATOM     25  C   UNL     1       8.191  -5.045  26.614  0.00  0.00    +0.401 C 
ATOM     26  O   UNL     1       9.380  -4.799  26.753  0.00  0.00    -0.226 OA
BRANCH  25  27
ATOM     27  O   UNL     1       7.447  -5.691  27.551  0.00  0.00    -0.445 OA
BRANCH  27  28
ATOM     28  C   UNL     1       6.030  -5.499  27.392  0.00  0.00    +0.206 C 
ATOM     29  C   UNL     1       5.451  -4.660  28.522  0.00  0.00    +0.204 C 
ATOM     30  O   UNL     1       4.109  -5.117  28.756  0.00  0.00    -0.376 OA
ATOM     31  C   UNL     1       3.885  -6.283  27.953  0.00  0.00    +0.163 C 
ATOM     32  C   UNL     1       5.242  -6.783  27.527  0.00  0.00    +0.075 C 
ENDBRANCH  27  28
ENDBRANCH  25  27
ENDBRANCH  22  23
BRANCH  22  33
ATOM     33  C   UNL     1       6.919  -4.992  23.047  0.00  0.00    +0.060 C 
BRANCH  33  34
ATOM     34  C   UNL     1       5.486  -5.185  23.563  0.00  0.00    -0.046 A 
ATOM     35  C   UNL     1       4.653  -4.100  23.873  0.00  0.00    +0.004 A 
ATOM     36  C   UNL     1       3.330  -4.299  24.290  0.00  0.00    +0.000 A 
ATOM     37  C   UNL     1       2.829  -5.597  24.418  0.00  0.00    +0.000 A 
ATOM     38  C   UNL     1       3.659  -6.680  24.174  0.00  0.00    +0.000 A 
ATOM     39  C   UNL     1       4.979  -6.477  23.752  0.00  0.00    +0.004 A 
ENDBRANCH  33  34
ENDBRANCH  22  33
ENDBRANCH   1  22
TORSDOF 14
ENDMDL
MODEL 8
REMARK VINA RESULT:      -6.5      2.769      4.000
REMARK  Name = 
REMARK  16 active torsions:
REMARK  status: ('A' for Active; 'I' for Inactive)
REMARK    1  A    between atoms: C_1  and  C_2
REMARK    2  A    between atoms: C_2  and  C_3
REMARK    3  A    between atoms: C_2  and  C_4
REMARK    4  A    between atoms: C_4  and  N_5
REMARK    5  A    between atoms: N_5  and  C_6
REMARK    6  A    between atoms: N_5  and  S_28
REMARK    7  A    between atoms: C_6  and  C_7
REMARK    8  A    between atoms: C_7  and  C_9
REMARK    9  A    between atoms: C_7  and  O_27
REMARK   10  A    between atoms: C_9  and  C_11
REMARK   11  A    between atoms: C_9  and  N_18
REMARK   12  A    between atoms: C_11  and  C_12
REMARK   13  A    between atoms: C_19  and  O_21
REMARK   14  A    between atoms: O_21  and  C_22
REMARK   15  A    between atoms: S_28  and  C_31
REMARK   16  A    between atoms: C_34  and  N_37
REMARK                            x       y       z     vdW  Elec       q    Type
REMARK                         _______ _______ _______ _____ _____    ______ ____
ROOT
ATOM      1  C   UNL     1       8.329  -4.756  25.158  0.00  0.00    +0.151 C 
ENDROOT
BRANCH   1   2
ATOM      2  O   UNL     1       9.449  -5.630  24.950  0.00  0.00    -0.389 OA
ATOM      3  H   UNL     1       9.308  -6.382  25.562  0.00  0.00    +0.210 HD
ENDBRANCH   1   2
BRANCH   1   4
ATOM      4  C   UNL     1       8.845  -3.472  25.786  0.00  0.00    +0.142 C 
BRANCH   4   5
ATOM      5  N   UNL     1       8.480  -2.148  25.149  0.00  0.00    -0.174 NA
BRANCH   5   6
ATOM      6  S   UNL     1       9.315  -2.179  23.561  0.00  0.00    +0.061 S 
ATOM      7  O   UNL     1       8.319  -2.549  22.569  0.00  0.00    -0.153 OA
ATOM      8  O   UNL     1      10.549  -2.921  23.697  0.00  0.00    -0.153 OA
BRANCH   6   9
ATOM      9  C   UNL     1       9.765  -0.498  23.334  0.00  0.00    +0.106 A 
ATOM     10  C   UNL     1       9.570   0.133  22.108  0.00  0.00    +0.030 A 
ATOM     11  C   UNL     1       9.932   1.472  21.973  0.00  0.00    +0.024 A 
ATOM     12  C   UNL     1      10.457   2.181  23.062  0.00  0.00    +0.025 A 
ATOM     13  C   UNL     1      10.738   1.499  24.249  0.00  0.00    +0.024 A 
ATOM     14  C   UNL     1      10.381   0.164  24.399  0.00  0.00    +0.030 A 
BRANCH  12  15
ATOM     15  N   UNL     1      10.904   3.496  22.889  0.00  0.00    -0.358 N 
ATOM     16  H   UNL     1      10.172   4.191  22.988  0.00  0.00    +0.142 HD
ATOM     17  H   UNL     1      11.725   3.719  23.441  0.00  0.00    +0.142 HD
ENDBRANCH  12  15
ENDBRANCH   6   9
ENDBRANCH   5   6
BRANCH   5  18
ATOM     18  C   UNL     1       6.999  -1.829  24.918  0.00  0.00    +0.112 C 
BRANCH  18  20
ATOM     19  C   UNL     1       7.308   0.274  26.413  0.00  0.00    +0.008 C 
ATOM     20  C   UNL     1       6.472  -0.441  25.341  0.00  0.00    -0.001 C 
ATOM     21  C   UNL     1       6.404   0.515  24.135  0.00  0.00    +0.008 C 
ENDBRANCH  18  20
ENDBRANCH   5  18
ENDBRANCH   4   5
ENDBRANCH   1   4
BRANCH   1  22
ATOM     22  C   UNL     1       7.182  -5.528  25.871  0.00  0.00    +0.110 C 
BRANCH  22  23
ATOM     23  N   UNL     1       7.044  -5.192  27.314  0.00  0.00    -0.275 N 
ATOM     24  H   UNL     1       7.166  -4.216  27.553  0.00  0.00    +0.152 HD
ATOM     25  C   UNL     1       6.318  -5.899  28.232  0.00  0.00    +0.401 C 
ATOM     26  O   UNL     1       5.998  -7.075  28.148  0.00  0.00    -0.226 OA
BRANCH  25  27
ATOM     27  O   UNL     1       5.946  -5.095  29.263  0.00  0.00    -0.445 OA
BRANCH  27  28
ATOM     28  C   UNL     1       4.521  -4.992  29.428  0.00  0.00    +0.206 C 
ATOM     29  C   UNL     1       3.855  -4.422  28.184  0.00  0.00    +0.204 C 
ATOM     30  O   UNL     1       2.713  -3.663  28.615  0.00  0.00    -0.376 OA
ATOM     31  C   UNL     1       2.728  -3.600  30.046  0.00  0.00    +0.163 C 
ATOM     32  C   UNL     1       4.121  -3.984  30.482  0.00  0.00    +0.075 C 
ENDBRANCH  27  28
ENDBRANCH  25  27
ENDBRANCH  22  23
BRANCH  22  33
ATOM     33  C   UNL     1       5.811  -5.554  25.139  0.00  0.00    +0.060 C 
BRANCH  33  34
ATOM     34  C   UNL     1       5.877  -5.241  23.637  0.00  0.00    -0.046 A 
ATOM     35  C   UNL     1       5.305  -4.083  23.091  0.00  0.00    +0.004 A 
ATOM     36  C   UNL     1       5.425  -3.790  21.726  0.00  0.00    +0.000 A 
ATOM     37  C   UNL     1       6.108  -4.671  20.884  0.00  0.00    +0.000 A 
ATOM     38  C   UNL     1       6.625  -5.850  21.397  0.00  0.00    +0.000 A 
ATOM     39  C   UNL     1       6.508  -6.136  22.763  0.00  0.00    +0.004 A 
ENDBRANCH  33  34
ENDBRANCH  22  33
ENDBRANCH   1  22
TORSDOF 14
ENDMDL
MODEL 9
REMARK VINA RESULT:      -6.5      2.703      4.917
REMARK  Name = 
REMARK  16 active torsions:
REMARK  status: ('A' for Active; 'I' for Inactive)
REMARK    1  A    between atoms: C_1  and  C_2
REMARK    2  A    between atoms: C_2  and  C_3
REMARK    3  A    between atoms: C_2  and  C_4
REMARK    4  A    between atoms: C_4  and  N_5
REMARK    5  A    between atoms: N_5  and  C_6
REMARK    6  A    between atoms: N_5  and  S_28
REMARK    7  A    between atoms: C_6  and  C_7
REMARK    8  A    between atoms: C_7  and  C_9
REMARK    9  A    between atoms: C_7  and  O_27
REMARK   10  A    between atoms: C_9  and  C_11
REMARK   11  A    between atoms: C_9  and  N_18
REMARK   12  A    between atoms: C_11  and  C_12
REMARK   13  A    between atoms: C_19  and  O_21
REMARK   14  A    between atoms: O_21  and  C_22
REMARK   15  A    between atoms: S_28  and  C_31
REMARK   16  A    between atoms: C_34  and  N_37
REMARK                            x       y       z     vdW  Elec       q    Type
REMARK                         _______ _______ _______ _____ _____    ______ ____
ROOT
ATOM      1  C   UNL     1       6.824  -5.489  26.228  0.00  0.00    +0.151 C 
ENDROOT
BRANCH   1   2
ATOM      2  O   UNL     1       8.149  -5.652  26.757  0.00  0.00    -0.389 OA
ATOM      3  H   UNL     1       8.260  -4.926  27.405  0.00  0.00    +0.210 HD
ENDBRANCH   1   2
BRANCH   1   4
ATOM      4  C   UNL     1       6.680  -4.051  25.757  0.00  0.00    +0.142 C 
BRANCH   4   5
ATOM      5  N   UNL     1       7.279  -3.654  24.425  0.00  0.00    -0.174 NA
BRANCH   5   6
ATOM      6  S   UNL     1       8.889  -2.985  24.849  0.00  0.00    +0.061 S 
ATOM      7  O   UNL     1       9.874  -3.983  24.466  0.00  0.00    -0.153 OA
ATOM      8  O   UNL     1       8.837  -2.462  26.197  0.00  0.00    -0.153 OA
BRANCH   6   9
ATOM      9  C   UNL     1       9.019  -1.599  23.780  0.00  0.00    +0.106 A 
ATOM     10  C   UNL     1       9.652  -1.709  22.544  0.00  0.00    +0.030 A 
ATOM     11  C   UNL     1       9.725  -0.587  21.722  0.00  0.00    +0.024 A 
ATOM     12  C   UNL     1       9.146   0.626  22.118  0.00  0.00    +0.025 A 
ATOM     13  C   UNL     1       8.608   0.738  23.403  0.00  0.00    +0.024 A 
ATOM     14  C   UNL     1       8.526  -0.374  24.234  0.00  0.00    +0.030 A 
BRANCH  12  15
ATOM     15  N   UNL     1       9.307   1.769  21.326  0.00  0.00    -0.358 N 
ATOM     16  H   UNL     1       9.879   2.486  21.758  0.00  0.00    +0.142 HD
ATOM     17  H   UNL     1       9.597   1.565  20.376  0.00  0.00    +0.142 HD
ENDBRANCH  12  15
ENDBRANCH   6   9
ENDBRANCH   5   6
BRANCH   5  18
ATOM     18  C   UNL     1       7.463  -4.734  23.353  0.00  0.00    +0.112 C 
BRANCH  18  20
ATOM     19  C   UNL     1       6.377  -5.662  21.182  0.00  0.00    +0.008 C 
ATOM     20  C   UNL     1       6.950  -4.446  21.926  0.00  0.00    -0.001 C 
ATOM     21  C   UNL     1       5.834  -3.384  21.943  0.00  0.00    +0.008 C 
ENDBRANCH  18  20
ENDBRANCH   5  18
ENDBRANCH   4   5
ENDBRANCH   1   4
BRANCH   1  22
ATOM     22  C   UNL     1       5.780  -6.055  27.233  0.00  0.00    +0.110 C 
BRANCH  22  23
ATOM     23  N   UNL     1       5.223  -5.028  28.155  0.00  0.00    -0.275 N 
ATOM     24  H   UNL     1       4.430  -4.504  27.805  0.00  0.00    +0.152 HD
ATOM     25  C   UNL     1       5.312  -5.047  29.519  0.00  0.00    +0.401 C 
ATOM     26  O   UNL     1       6.148  -5.645  30.180  0.00  0.00    -0.226 OA
BRANCH  25  27
ATOM     27  O   UNL     1       4.296  -4.332  30.071  0.00  0.00    -0.445 OA
BRANCH  27  28
ATOM     28  C   UNL     1       3.641  -3.450  29.140  0.00  0.00    +0.206 C 
ATOM     29  C   UNL     1       3.756  -1.997  29.575  0.00  0.00    +0.204 C 
ATOM     30  O   UNL     1       2.562  -1.322  29.143  0.00  0.00    -0.376 OA
ATOM     31  C   UNL     1       1.658  -2.301  28.614  0.00  0.00    +0.163 C 
ATOM     32  C   UNL     1       2.142  -3.645  29.100  0.00  0.00    +0.075 C 
ENDBRANCH  27  28
ENDBRANCH  25  27
ENDBRANCH  22  23
BRANCH  22  33
ATOM     33  C   UNL     1       4.676  -6.972  26.637  0.00  0.00    +0.060 C 
BRANCH  33  34
ATOM     34  C   UNL     1       3.833  -6.326  25.528  0.00  0.00    -0.046 A 
ATOM     35  C   UNL     1       2.792  -5.430  25.810  0.00  0.00    +0.004 A 
ATOM     36  C   UNL     1       2.072  -4.810  24.780  0.00  0.00    +0.000 A 
ATOM     37  C   UNL     1       2.376  -5.098  23.448  0.00  0.00    +0.000 A 
ATOM     38  C   UNL     1       3.360  -6.029  23.155  0.00  0.00    +0.000 A 
ATOM     39  C   UNL     1       4.082  -6.642  24.186  0.00  0.00    +0.004 A 
ENDBRANCH  33  34
ENDBRANCH  22  33
ENDBRANCH   1  22
TORSDOF 14
ENDMDL
