MODEL 1
REMARK VINA RESULT:      -7.1      0.000      0.000
REMARK  Name = 
REMARK  16 active torsions:
REMARK  status: ('A' for Active; 'I' for Inactive)
REMARK    1  A    between atoms: C_1  and  C_2
REMARK    2  A    between atoms: C_2  and  C_3
REMARK    3  A    between atoms: C_2  and  C_4
REMARK    4  A    between atoms: C_4  and  N_5
REMARK    5  A    between atoms: N_5  and  C_6
REMARK    6  A    between atoms: N_5  and  S_34
REMARK    7  A    between atoms: C_6  and  C_7
REMARK    8  A    between atoms: C_7  and  C_9
REMARK    9  A    between atoms: C_7  and  O_33
REMARK   10  A    between atoms: C_9  and  C_11
REMARK   11  A    between atoms: C_9  and  N_18
REMARK   12  A    between atoms: C_11  and  C_12
REMARK   13  A    between atoms: C_19  and  O_21
REMARK   14  A    between atoms: O_21  and  C_22
REMARK   15  A    between atoms: S_34  and  C_37
REMARK   16  A    between atoms: C_40  and  N_43
REMARK                            x       y       z     vdW  Elec       q    Type
REMARK                         _______ _______ _______ _____ _____    ______ ____
ROOT
ATOM      1  C   UNL     1       7.529  -1.852  26.109  0.00  0.00    +0.151 C 
ENDROOT
BRANCH   1   2
ATOM      2  O   UNL     1       6.079  -1.834  26.204  0.00  0.00    -0.389 OA
ATOM      3  H   UNL     1       5.770  -1.015  25.780  0.00  0.00    +0.210 HD
ENDBRANCH   1   2
BRANCH   1   4
ATOM      4  C   UNL     1       7.926  -0.718  25.131  0.00  0.00    +0.142 C 
BRANCH   4   5
ATOM      5  N   UNL     1       6.969  -0.120  24.100  0.00  0.00    -0.174 NA
BRANCH   5   6
ATOM      6  S   UNL     1       6.290   1.355  24.899  0.00  0.00    +0.061 S 
ATOM      7  O   UNL     1       6.560   1.222  26.315  0.00  0.00    -0.153 OA
ATOM      8  O   UNL     1       4.932   1.529  24.419  0.00  0.00    -0.153 OA
BRANCH   6   9
ATOM      9  C   UNL     1       7.228   2.722  24.273  0.00  0.00    +0.106 A 
ATOM     10  C   UNL     1       8.411   3.121  24.904  0.00  0.00    +0.030 A 
ATOM     11  C   UNL     1       9.081   4.265  24.452  0.00  0.00    +0.024 A 
ATOM     12  C   UNL     1       8.601   4.987  23.356  0.00  0.00    +0.025 A 
ATOM     13  C   UNL     1       7.372   4.622  22.796  0.00  0.00    +0.024 A 
ATOM     14  C   UNL     1       6.691   3.484  23.238  0.00  0.00    +0.030 A 
BRANCH  12  15
ATOM     15  N   UNL     1       9.210   6.190  22.981  0.00  0.00    -0.358 N 
ATOM     16  H   UNL     1       9.512   6.218  22.012  0.00  0.00    +0.142 HD
ATOM     17  H   UNL     1       8.678   7.016  23.238  0.00  0.00    +0.142 HD
ENDBRANCH  12  15
ENDBRANCH   6   9
ENDBRANCH   5   6
BRANCH   5  18
ATOM     18  C   UNL     1       7.547   0.305  22.760  0.00  0.00    +0.112 C 
BRANCH  18  20
ATOM     19  C   UNL     1       9.377  -1.131  21.679  0.00  0.00    +0.008 C 
ATOM     20  C   UNL     1       9.045   0.064  22.567  0.00  0.00    -0.001 C 
ATOM     21  C   UNL     1       9.761   1.302  22.011  0.00  0.00    +0.008 C 
ENDBRANCH  18  20
ENDBRANCH   5  18
ENDBRANCH   4   5
ENDBRANCH   1   4
BRANCH   1  22
ATOM     22  C   UNL     1       7.950  -3.334  25.800  0.00  0.00    +0.110 C 
BRANCH  22  23
ATOM     23  N   UNL     1       6.843  -4.297  26.063  0.00  0.00    -0.275 N 
ATOM     24  H   UNL     1       6.014  -4.246  25.486  0.00  0.00    +0.152 HD
ATOM     25  C   UNL     1       6.965  -5.439  26.798  0.00  0.00    +0.401 C 
ATOM     26  O   UNL     1       7.933  -5.759  27.475  0.00  0.00    -0.226 OA
BRANCH  25  27
ATOM     27  O   UNL     1       5.851  -6.225  26.695  0.00  0.00    -0.444 OA
BRANCH  27  28
ATOM     28  C   UNL     1       4.726  -5.559  26.066  0.00  0.00    +0.212 C 
ATOM     29  C   UNL     1       4.425  -6.224  24.742  0.00  0.00    +0.090 C 
ATOM     30  C   UNL     1       3.577  -5.402  23.788  0.00  0.00    +0.040 C 
ATOM     31  C   UNL     1       2.696  -6.443  23.128  0.00  0.00    +0.163 C 
ATOM     32  O   UNL     1       2.607  -7.558  24.019  0.00  0.00    -0.351 OA
ATOM     33  C   UNL     1       3.475  -7.335  25.127  0.00  0.00    +0.257 C 
ATOM     34  O   UNL     1       2.742  -6.894  26.271  0.00  0.00    -0.347 OA
ATOM     35  C   UNL     1       3.428  -5.771  26.849  0.00  0.00    +0.208 C 
ENDBRANCH  27  28
ENDBRANCH  25  27
ENDBRANCH  22  23
BRANCH  22  36
ATOM     36  C   UNL     1       8.478  -3.481  24.341  0.00  0.00    +0.060 C 
BRANCH  36  37
ATOM     37  C   UNL     1       7.634  -4.194  23.291  0.00  0.00    -0.046 A 
ATOM     38  C   UNL     1       7.769  -5.551  22.969  0.00  0.00    +0.004 A 
ATOM     39  C   UNL     1       7.038  -6.111  21.910  0.00  0.00    +0.000 A 
ATOM     40  C   UNL     1       6.169  -5.329  21.153  0.00  0.00    +0.000 A 
ATOM     41  C   UNL     1       6.029  -3.979  21.450  0.00  0.00    +0.000 A 
ATOM     42  C   UNL     1       6.760  -3.419  22.504  0.00  0.00    +0.004 A 
ENDBRANCH  36  37
ENDBRANCH  22  36
ENDBRANCH   1  22
TORSDOF 14
ENDMDL
MODEL 2
REMARK VINA RESULT:      -7.1      2.543      6.842
REMARK  Name = 
REMARK  16 active torsions:
REMARK  status: ('A' for Active; 'I' for Inactive)
REMARK    1  A    between atoms: C_1  and  C_2
REMARK    2  A    between atoms: C_2  and  C_3
REMARK    3  A    between atoms: C_2  and  C_4
REMARK    4  A    between atoms: C_4  and  N_5
REMARK    5  A    between atoms: N_5  and  C_6
REMARK    6  A    between atoms: N_5  and  S_34
REMARK    7  A    between atoms: C_6  and  C_7
REMARK    8  A    between atoms: C_7  and  C_9
REMARK    9  A    between atoms: C_7  and  O_33
REMARK   10  A    between atoms: C_9  and  C_11
REMARK   11  A    between atoms: C_9  and  N_18
REMARK   12  A    between atoms: C_11  and  C_12
REMARK   13  A    between atoms: C_19  and  O_21
REMARK   14  A    between atoms: O_21  and  C_22
REMARK   15  A    between atoms: S_34  and  C_37
REMARK   16  A    between atoms: C_40  and  N_43
REMARK                            x       y       z     vdW  Elec       q    Type
REMARK                         _______ _______ _______ _____ _____    ______ ____
ROOT
ATOM      1  C   UNL     1       9.676   1.185  25.036  0.00  0.00    +0.151 C 
ENDROOT
BRANCH   1   2
ATOM      2  O   UNL     1      10.286   0.155  25.859  0.00  0.00    -0.389 OA
ATOM      3  H   UNL     1       9.815  -0.677  25.682  0.00  0.00    +0.210 HD
ENDBRANCH   1   2
BRANCH   1   4
ATOM      4  C   UNL     1       8.231   1.378  25.561  0.00  0.00    +0.142 C 
BRANCH   4   5
ATOM      5  N   UNL     1       7.072   0.449  25.200  0.00  0.00    -0.174 NA
BRANCH   5   6
ATOM      6  S   UNL     1       6.500  -0.216  26.784  0.00  0.00    +0.061 S 
ATOM      7  O   UNL     1       5.061  -0.068  26.801  0.00  0.00    -0.153 OA
ATOM      8  O   UNL     1       7.316   0.374  27.828  0.00  0.00    -0.153 OA
BRANCH   6   9
ATOM      9  C   UNL     1       6.888  -1.945  26.753  0.00  0.00    +0.106 A 
ATOM     10  C   UNL     1       5.933  -2.894  27.129  0.00  0.00    +0.030 A 
ATOM     11  C   UNL     1       6.293  -4.246  27.193  0.00  0.00    +0.024 A 
ATOM     12  C   UNL     1       7.583  -4.658  26.849  0.00  0.00    +0.025 A 
ATOM     13  C   UNL     1       8.546  -3.684  26.561  0.00  0.00    +0.024 A 
ATOM     14  C   UNL     1       8.201  -2.332  26.495  0.00  0.00    +0.030 A 
BRANCH  12  15
ATOM     15  N   UNL     1       7.969  -5.993  27.024  0.00  0.00    -0.358 N 
ATOM     16  H   UNL     1       7.193  -6.635  27.148  0.00  0.00    +0.142 HD
ATOM     17  H   UNL     1       8.630  -6.323  26.327  0.00  0.00    +0.142 HD
ENDBRANCH  12  15
ENDBRANCH   6   9
ENDBRANCH   5   6
BRANCH   5  18
ATOM     18  C   UNL     1       5.871   1.057  24.494  0.00  0.00    +0.112 C 
BRANCH  18  20
ATOM     19  C   UNL     1       6.349   2.192  22.243  0.00  0.00    +0.008 C 
ATOM     20  C   UNL     1       6.123   2.365  23.742  0.00  0.00    -0.001 C 
ATOM     21  C   UNL     1       4.991   3.379  23.954  0.00  0.00    +0.008 C 
ENDBRANCH  18  20
ENDBRANCH   5  18
ENDBRANCH   4   5
ENDBRANCH   1   4
BRANCH   1  22
ATOM     22  C   UNL     1       9.914   0.775  23.537  0.00  0.00    +0.110 C 
BRANCH  22  23
ATOM     23  N   UNL     1       8.967  -0.286  23.089  0.00  0.00    -0.275 N 
ATOM     24  H   UNL     1       7.980  -0.071  23.068  0.00  0.00    +0.152 HD
ATOM     25  C   UNL     1       9.328  -1.413  22.411  0.00  0.00    +0.401 C 
ATOM     26  O   UNL     1      10.473  -1.798  22.214  0.00  0.00    -0.226 OA
BRANCH  25  27
ATOM     27  O   UNL     1       8.235  -2.094  21.951  0.00  0.00    -0.444 OA
BRANCH  27  28
ATOM     28  C   UNL     1       7.513  -2.803  22.990  0.00  0.00    +0.212 C 
ATOM     29  C   UNL     1       6.092  -3.049  22.535  0.00  0.00    +0.090 C 
ATOM     30  C   UNL     1       5.112  -3.389  23.643  0.00  0.00    +0.040 C 
ATOM     31  C   UNL     1       4.209  -4.421  22.998  0.00  0.00    +0.163 C 
ATOM     32  O   UNL     1       4.945  -5.032  21.935  0.00  0.00    -0.351 OA
ATOM     33  C   UNL     1       6.195  -4.363  21.794  0.00  0.00    +0.257 C 
ATOM     34  O   UNL     1       7.249  -5.114  22.399  0.00  0.00    -0.347 OA
ATOM     35  C   UNL     1       8.050  -4.222  23.192  0.00  0.00    +0.208 C 
ENDBRANCH  27  28
ENDBRANCH  25  27
ENDBRANCH  22  23
BRANCH  22  36
ATOM     36  C   UNL     1       9.847   2.013  22.593  0.00  0.00    +0.060 C 
BRANCH  36  37
ATOM     37  C   UNL     1      10.123   3.409  23.142  0.00  0.00    -0.046 A 
ATOM     38  C   UNL     1       9.120   4.330  23.473  0.00  0.00    +0.004 A 
ATOM     39  C   UNL     1       9.451   5.637  23.861  0.00  0.00    +0.000 A 
ATOM     40  C   UNL     1      10.781   6.048  23.920  0.00  0.00    +0.000 A 
ATOM     41  C   UNL     1      11.788   5.151  23.586  0.00  0.00    +0.000 A 
ATOM     42  C   UNL     1      11.460   3.849  23.196  0.00  0.00    +0.004 A 
ENDBRANCH  36  37
ENDBRANCH  22  36
ENDBRANCH   1  22
TORSDOF 14
ENDMDL
MODEL 3
REMARK VINA RESULT:      -7.0      2.788      8.242
REMARK  Name = 
REMARK  16 active torsions:
REMARK  status: ('A' for Active; 'I' for Inactive)
REMARK    1  A    between atoms: C_1  and  C_2
REMARK    2  A    between atoms: C_2  and  C_3
REMARK    3  A    between atoms: C_2  and  C_4
REMARK    4  A    between atoms: C_4  and  N_5
REMARK    5  A    between atoms: N_5  and  C_6
REMARK    6  A    between atoms: N_5  and  S_34
REMARK    7  A    between atoms: C_6  and  C_7
REMARK    8  A    between atoms: C_7  and  C_9
REMARK    9  A    between atoms: C_7  and  O_33
REMARK   10  A    between atoms: C_9  and  C_11
REMARK   11  A    between atoms: C_9  and  N_18
REMARK   12  A    between atoms: C_11  and  C_12
REMARK   13  A    between atoms: C_19  and  O_21
REMARK   14  A    between atoms: O_21  and  C_22
REMARK   15  A    between atoms: S_34  and  C_37
REMARK   16  A    between atoms: C_40  and  N_43
REMARK                            x       y       z     vdW  Elec       q    Type
REMARK                         _______ _______ _______ _____ _____    ______ ____
ROOT
ATOM      1  C   UNL     1       7.775  -4.590  27.057  0.00  0.00    +0.151 C 
ENDROOT
BRANCH   1   2
ATOM      2  O   UNL     1       8.231  -5.936  26.753  0.00  0.00    -0.389 OA
ATOM      3  H   UNL     1       8.914  -5.862  26.063  0.00  0.00    +0.210 HD
ENDBRANCH   1   2
BRANCH   1   4
ATOM      4  C   UNL     1       6.434  -4.736  27.819  0.00  0.00    +0.142 C 
BRANCH   4   5
ATOM      5  N   UNL     1       5.066  -4.669  27.140  0.00  0.00    -0.174 NA
BRANCH   5   6
ATOM      6  S   UNL     1       4.358  -6.320  27.361  0.00  0.00    +0.061 S 
ATOM      7  O   UNL     1       3.298  -6.189  28.337  0.00  0.00    -0.153 OA
ATOM      8  O   UNL     1       5.455  -7.243  27.581  0.00  0.00    -0.153 OA
BRANCH   6   9
ATOM      9  C   UNL     1       3.636  -6.752  25.801  0.00  0.00    +0.106 A 
ATOM     10  C   UNL     1       4.116  -6.189  24.615  0.00  0.00    +0.030 A 
ATOM     11  C   UNL     1       3.465  -6.467  23.407  0.00  0.00    +0.024 A 
ATOM     12  C   UNL     1       2.367  -7.331  23.370  0.00  0.00    +0.025 A 
ATOM     13  C   UNL     1       1.850  -7.812  24.578  0.00  0.00    +0.024 A 
ATOM     14  C   UNL     1       2.488  -7.541  25.791  0.00  0.00    +0.030 A 
BRANCH  12  15
ATOM     15  N   UNL     1       1.653  -7.515  22.180  0.00  0.00    -0.358 N 
ATOM     16  H   UNL     1       1.466  -8.487  21.955  0.00  0.00    +0.142 HD
ATOM     17  H   UNL     1       0.818  -6.940  22.111  0.00  0.00    +0.142 HD
ENDBRANCH  12  15
ENDBRANCH   6   9
ENDBRANCH   5   6
BRANCH   5  18
ATOM     18  C   UNL     1       4.060  -3.660  27.670  0.00  0.00    +0.112 C 
BRANCH  18  20
ATOM     19  C   UNL     1       4.186  -2.573  25.350  0.00  0.00    +0.008 C 
ATOM     20  C   UNL     1       3.372  -2.782  26.623  0.00  0.00    -0.001 C 
ATOM     21  C   UNL     1       1.989  -3.321  26.239  0.00  0.00    +0.008 C 
ENDBRANCH  18  20
ENDBRANCH   5  18
ENDBRANCH   4   5
ENDBRANCH   1   4
BRANCH   1  22
ATOM     22  C   UNL     1       7.826  -3.773  25.716  0.00  0.00    +0.110 C 
BRANCH  22  23
ATOM     23  N   UNL     1       8.667  -2.548  25.839  0.00  0.00    -0.275 N 
ATOM     24  H   UNL     1       9.562  -2.530  25.367  0.00  0.00    +0.152 HD
ATOM     25  C   UNL     1       8.215  -1.334  26.265  0.00  0.00    +0.401 C 
ATOM     26  O   UNL     1       7.116  -1.109  26.756  0.00  0.00    -0.226 OA
BRANCH  25  27
ATOM     27  O   UNL     1       9.149  -0.354  26.077  0.00  0.00    -0.444 OA
BRANCH  27  28
ATOM     28  C   UNL     1       9.802  -0.414  24.783  0.00  0.00    +0.212 C 
ATOM     29  C   UNL     1       8.879   0.154  23.729  0.00  0.00    +0.090 C 
ATOM     30  C   UNL     1       9.230  -0.219  22.299  0.00  0.00    +0.040 C 
ATOM     31  C   UNL     1       8.907   1.044  21.527  0.00  0.00    +0.163 C 
ATOM     32  O   UNL     1       8.981   2.140  22.442  0.00  0.00    -0.351 OA
ATOM     33  C   UNL     1       9.201   1.631  23.755  0.00  0.00    +0.257 C 
ATOM     34  O   UNL     1      10.573   1.763  24.132  0.00  0.00    -0.347 OA
ATOM     35  C   UNL     1      11.010   0.522  24.710  0.00  0.00    +0.208 C 
ENDBRANCH  27  28
ENDBRANCH  25  27
ENDBRANCH  22  23
BRANCH  22  36
ATOM     36  C   UNL     1       8.309  -4.660  24.529  0.00  0.00    +0.060 C 
BRANCH  36  37
ATOM     37  C   UNL     1       7.539  -4.662  23.214  0.00  0.00    -0.046 A 
ATOM     38  C   UNL     1       6.801  -3.569  22.739  0.00  0.00    +0.004 A 
ATOM     39  C   UNL     1       6.022  -3.683  21.577  0.00  0.00    +0.000 A 
ATOM     40  C   UNL     1       5.961  -4.885  20.875  0.00  0.00    +0.000 A 
ATOM     41  C   UNL     1       6.678  -5.982  21.336  0.00  0.00    +0.000 A 
ATOM     42  C   UNL     1       7.452  -5.871  22.496  0.00  0.00    +0.004 A 
ENDBRANCH  36  37
ENDBRANCH  22  36
ENDBRANCH   1  22
TORSDOF 14
ENDMDL
MODEL 4
REMARK VINA RESULT:      -6.7      2.171      4.262
REMARK  Name = 
REMARK  16 active torsions:
REMARK  status: ('A' for Active; 'I' for Inactive)
REMARK    1  A    between atoms: C_1  and  C_2
REMARK    2  A    between atoms: C_2  and  C_3
REMARK    3  A    between atoms: C_2  and  C_4
REMARK    4  A    between atoms: C_4  and  N_5
REMARK    5  A    between atoms: N_5  and  C_6
REMARK    6  A    between atoms: N_5  and  S_34
REMARK    7  A    between atoms: C_6  and  C_7
REMARK    8  A    between atoms: C_7  and  C_9
REMARK    9  A    between atoms: C_7  and  O_33
REMARK   10  A    between atoms: C_9  and  C_11
REMARK   11  A    between atoms: C_9  and  N_18
REMARK   12  A    between atoms: C_11  and  C_12
REMARK   13  A    between atoms: C_19  and  O_21
REMARK   14  A    between atoms: O_21  and  C_22
REMARK   15  A    between atoms: S_34  and  C_37
REMARK   16  A    between atoms: C_40  and  N_43
REMARK                            x       y       z     vdW  Elec       q    Type
REMARK                         _______ _______ _______ _____ _____    ______ ____
ROOT
ATOM      1  C   UNL     1       8.559  -0.599  26.172  0.00  0.00    +0.151 C 
ENDROOT
BRANCH   1   2
ATOM      2  O   UNL     1       9.169  -0.762  27.481  0.00  0.00    -0.389 OA
ATOM      3  H   UNL     1       8.453  -0.745  28.139  0.00  0.00    +0.210 HD
ENDBRANCH   1   2
BRANCH   1   4
ATOM      4  C   UNL     1       7.055  -0.319  26.411  0.00  0.00    +0.142 C 
BRANCH   4   5
ATOM      5  N   UNL     1       6.442   1.081  26.378  0.00  0.00    -0.174 NA
BRANCH   5   6
ATOM      6  S   UNL     1       5.874   1.298  24.674  0.00  0.00    +0.061 S 
ATOM      7  O   UNL     1       4.465   1.623  24.744  0.00  0.00    -0.153 OA
ATOM      8  O   UNL     1       6.331   0.154  23.909  0.00  0.00    -0.153 OA
BRANCH   6   9
ATOM      9  C   UNL     1       6.746   2.708  24.047  0.00  0.00    +0.106 A 
ATOM     10  C   UNL     1       7.538   3.489  24.895  0.00  0.00    +0.030 A 
ATOM     11  C   UNL     1       8.136   4.655  24.401  0.00  0.00    +0.024 A 
ATOM     12  C   UNL     1       7.980   5.024  23.061  0.00  0.00    +0.025 A 
ATOM     13  C   UNL     1       7.114   4.277  22.255  0.00  0.00    +0.024 A 
ATOM     14  C   UNL     1       6.509   3.113  22.735  0.00  0.00    +0.030 A 
BRANCH  12  15
ATOM     15  N   UNL     1       8.484   6.246  22.602  0.00  0.00    -0.358 N 
ATOM     16  H   UNL     1       7.870   7.037  22.770  0.00  0.00    +0.142 HD
ATOM     17  H   UNL     1       9.437   6.434  22.900  0.00  0.00    +0.142 HD
ENDBRANCH  12  15
ENDBRANCH   6   9
ENDBRANCH   5   6
BRANCH   5  18
ATOM     18  C   UNL     1       5.263   1.359  27.297  0.00  0.00    +0.112 C 
BRANCH  18  20
ATOM     19  C   UNL     1       6.784   2.930  28.639  0.00  0.00    +0.008 C 
ATOM     20  C   UNL     1       5.368   2.613  28.166  0.00  0.00    -0.001 C 
ATOM     21  C   UNL     1       4.798   3.851  27.462  0.00  0.00    +0.008 C 
ENDBRANCH  18  20
ENDBRANCH   5  18
ENDBRANCH   4   5
ENDBRANCH   1   4
BRANCH   1  22
ATOM     22  C   UNL     1       8.996  -1.836  25.305  0.00  0.00    +0.110 C 
BRANCH  22  23
ATOM     23  N   UNL     1       7.838  -2.469  24.611  0.00  0.00    -0.275 N 
ATOM     24  H   UNL     1       7.058  -1.883  24.346  0.00  0.00    +0.152 HD
ATOM     25  C   UNL     1       7.863  -3.700  24.024  0.00  0.00    +0.401 C 
ATOM     26  O   UNL     1       8.765  -4.522  24.115  0.00  0.00    -0.226 OA
BRANCH  25  27
ATOM     27  O   UNL     1       6.732  -3.929  23.290  0.00  0.00    -0.444 OA
BRANCH  27  28
ATOM     28  C   UNL     1       6.141  -5.233  23.525  0.00  0.00    +0.212 C 
ATOM     29  C   UNL     1       5.208  -5.154  24.712  0.00  0.00    +0.090 C 
ATOM     30  C   UNL     1       4.850  -6.491  25.337  0.00  0.00    +0.040 C 
ATOM     31  C   UNL     1       3.396  -6.309  25.724  0.00  0.00    +0.163 C 
ATOM     32  O   UNL     1       2.850  -5.291  24.881  0.00  0.00    -0.351 OA
ATOM     33  C   UNL     1       3.896  -4.739  24.086  0.00  0.00    +0.257 C 
ATOM     34  O   UNL     1       3.867  -5.271  22.761  0.00  0.00    -0.347 OA
ATOM     35  C   UNL     1       5.203  -5.647  22.388  0.00  0.00    +0.208 C 
ENDBRANCH  27  28
ENDBRANCH  25  27
ENDBRANCH  22  23
BRANCH  22  36
ATOM     36  C   UNL     1      10.110  -1.450  24.286  0.00  0.00    +0.060 C 
BRANCH  36  37
ATOM     37  C   UNL     1      10.072  -0.095  23.589  0.00  0.00    -0.046 A 
ATOM     38  C   UNL     1       9.520   0.114  22.318  0.00  0.00    +0.004 A 
ATOM     39  C   UNL     1       9.625   1.364  21.690  0.00  0.00    +0.000 A 
ATOM     40  C   UNL     1      10.285   2.422  22.313  0.00  0.00    +0.000 A 
ATOM     41  C   UNL     1      10.847   2.230  23.569  0.00  0.00    +0.000 A 
ATOM     42  C   UNL     1      10.746   0.983  24.195  0.00  0.00    +0.004 A 
ENDBRANCH  36  37
ENDBRANCH  22  36
ENDBRANCH   1  22
TORSDOF 14
ENDMDL
MODEL 5
REMARK VINA RESULT:      -6.6      1.464      1.930
REMARK  Name = 
REMARK  16 active torsions:
REMARK  status: ('A' for Active; 'I' for Inactive)
REMARK    1  A    between atoms: C_1  and  C_2
REMARK    2  A    between atoms: C_2  and  C_3
REMARK    3  A    between atoms: C_2  and  C_4
REMARK    4  A    between atoms: C_4  and  N_5
REMARK    5  A    between atoms: N_5  and  C_6
REMARK    6  A    between atoms: N_5  and  S_34
REMARK    7  A    between atoms: C_6  and  C_7
REMARK    8  A    between atoms: C_7  and  C_9
REMARK    9  A    between atoms: C_7  and  O_33
REMARK   10  A    between atoms: C_9  and  C_11
REMARK   11  A    between atoms: C_9  and  N_18
REMARK   12  A    between atoms: C_11  and  C_12
REMARK   13  A    between atoms: C_19  and  O_21
REMARK   14  A    between atoms: O_21  and  C_22
REMARK   15  A    between atoms: S_34  and  C_37
REMARK   16  A    between atoms: C_40  and  N_43
REMARK                            x       y       z     vdW  Elec       q    Type
REMARK                         _______ _______ _______ _____ _____    ______ ____
ROOT
ATOM      1  C   UNL     1       7.136  -1.845  26.445  0.00  0.00    +0.151 C 
ENDROOT
BRANCH   1   2
ATOM      2  O   UNL     1       5.929  -1.659  25.659  0.00  0.00    -0.389 OA
ATOM      3  H   UNL     1       6.126  -1.947  24.751  0.00  0.00    +0.210 HD
ENDBRANCH   1   2
BRANCH   1   4
ATOM      4  C   UNL     1       8.051  -0.630  26.152  0.00  0.00    +0.142 C 
BRANCH   4   5
ATOM      5  N   UNL     1       8.065   0.113  24.816  0.00  0.00    -0.174 NA
BRANCH   5   6
ATOM      6  S   UNL     1       7.829   1.853  25.251  0.00  0.00    +0.061 S 
ATOM      7  O   UNL     1       9.071   2.530  24.946  0.00  0.00    -0.153 OA
ATOM      8  O   UNL     1       7.271   1.900  26.589  0.00  0.00    -0.153 OA
BRANCH   6   9
ATOM      9  C   UNL     1       6.574   2.461  24.157  0.00  0.00    +0.106 A 
ATOM     10  C   UNL     1       6.918   3.208  23.025  0.00  0.00    +0.030 A 
ATOM     11  C   UNL     1       5.906   3.762  22.232  0.00  0.00    +0.024 A 
ATOM     12  C   UNL     1       4.560   3.545  22.537  0.00  0.00    +0.025 A 
ATOM     13  C   UNL     1       4.239   2.871  23.720  0.00  0.00    +0.024 A 
ATOM     14  C   UNL     1       5.238   2.314  24.523  0.00  0.00    +0.030 A 
BRANCH  12  15
ATOM     15  N   UNL     1       3.557   4.195  21.808  0.00  0.00    -0.358 N 
ATOM     16  H   UNL     1       2.685   4.310  22.315  0.00  0.00    +0.142 HD
ATOM     17  H   UNL     1       3.862   5.060  21.372  0.00  0.00    +0.142 HD
ENDBRANCH  12  15
ENDBRANCH   6   9
ENDBRANCH   5   6
BRANCH   5  18
ATOM     18  C   UNL     1       9.321   0.015  23.965  0.00  0.00    +0.112 C 
BRANCH  18  20
ATOM     19  C   UNL     1       9.409   0.986  21.592  0.00  0.00    +0.008 C 
ATOM     20  C   UNL     1       9.104  -0.224  22.470  0.00  0.00    -0.001 C 
ATOM     21  C   UNL     1       9.913  -1.421  21.954  0.00  0.00    +0.008 C 
ENDBRANCH  18  20
ENDBRANCH   5  18
ENDBRANCH   4   5
ENDBRANCH   1   4
BRANCH   1  22
ATOM     22  C   UNL     1       7.653  -3.301  26.156  0.00  0.00    +0.110 C 
BRANCH  22  23
ATOM     23  N   UNL     1       6.576  -4.319  26.316  0.00  0.00    -0.275 N 
ATOM     24  H   UNL     1       5.750  -4.240  25.737  0.00  0.00    +0.152 HD
ATOM     25  C   UNL     1       6.729  -5.521  26.941  0.00  0.00    +0.401 C 
ATOM     26  O   UNL     1       7.703  -5.872  27.595  0.00  0.00    -0.226 OA
BRANCH  25  27
ATOM     27  O   UNL     1       5.643  -6.329  26.753  0.00  0.00    -0.444 OA
BRANCH  27  28
ATOM     28  C   UNL     1       4.530  -5.664  26.101  0.00  0.00    +0.212 C 
ATOM     29  C   UNL     1       4.307  -6.281  24.738  0.00  0.00    +0.090 C 
ATOM     30  C   UNL     1       3.482  -5.440  23.780  0.00  0.00    +0.040 C 
ATOM     31  C   UNL     1       2.659  -6.474  23.039  0.00  0.00    +0.163 C 
ATOM     32  O   UNL     1       2.558  -7.626  23.879  0.00  0.00    -0.351 OA
ATOM     33  C   UNL     1       3.369  -7.429  25.034  0.00  0.00    +0.257 C 
ATOM     34  O   UNL     1       2.574  -7.053  26.160  0.00  0.00    -0.347 OA
ATOM     35  C   UNL     1       3.204  -5.939  26.814  0.00  0.00    +0.208 C 
ENDBRANCH  27  28
ENDBRANCH  25  27
ENDBRANCH  22  23
BRANCH  22  36
ATOM     36  C   UNL     1       8.306  -3.401  24.744  0.00  0.00    +0.060 C 
BRANCH  36  37
ATOM     37  C   UNL     1       7.561  -4.085  23.604  0.00  0.00    -0.046 A 
ATOM     38  C   UNL     1       7.741  -5.428  23.247  0.00  0.00    +0.004 A 
ATOM     39  C   UNL     1       7.107  -5.957  22.112  0.00  0.00    +0.000 A 
ATOM     40  C   UNL     1       6.290  -5.158  21.315  0.00  0.00    +0.000 A 
ATOM     41  C   UNL     1       6.106  -3.821  21.648  0.00  0.00    +0.000 A 
ATOM     42  C   UNL     1       6.741  -3.292  22.777  0.00  0.00    +0.004 A 
ENDBRANCH  36  37
ENDBRANCH  22  36
ENDBRANCH   1  22
TORSDOF 14
ENDMDL
MODEL 6
REMARK VINA RESULT:      -6.6      2.702      4.091
REMARK  Name = 
REMARK  16 active torsions:
REMARK  status: ('A' for Active; 'I' for Inactive)
REMARK    1  A    between atoms: C_1  and  C_2
REMARK    2  A    between atoms: C_2  and  C_3
REMARK    3  A    between atoms: C_2  and  C_4
REMARK    4  A    between atoms: C_4  and  N_5
REMARK    5  A    between atoms: N_5  and  C_6
REMARK    6  A    between atoms: N_5  and  S_34
REMARK    7  A    between atoms: C_6  and  C_7
REMARK    8  A    between atoms: C_7  and  C_9
REMARK    9  A    between atoms: C_7  and  O_33
REMARK   10  A    between atoms: C_9  and  C_11
REMARK   11  A    between atoms: C_9  and  N_18
REMARK   12  A    between atoms: C_11  and  C_12
REMARK   13  A    between atoms: C_19  and  O_21
REMARK   14  A    between atoms: O_21  and  C_22
REMARK   15  A    between atoms: S_34  and  C_37
REMARK   16  A    between atoms: C_40  and  N_43
REMARK                            x       y       z     vdW  Elec       q    Type
REMARK                         _______ _______ _______ _____ _____    ______ ____
ROOT
ATOM      1  C   UNL     1       8.508  -4.890  25.086  0.00  0.00    +0.151 C 
ENDROOT
BRANCH   1   2
ATOM      2  O   UNL     1       9.441  -5.853  25.645  0.00  0.00    -0.389 OA
ATOM      3  H   UNL     1      10.274  -5.383  25.821  0.00  0.00    +0.210 HD
ENDBRANCH   1   2
BRANCH   1   4
ATOM      4  C   UNL     1       8.816  -3.529  25.759  0.00  0.00    +0.142 C 
BRANCH   4   5
ATOM      5  N   UNL     1       8.373  -2.184  25.183  0.00  0.00    -0.174 NA
BRANCH   5   6
ATOM      6  S   UNL     1       9.190  -2.078  23.572  0.00  0.00    +0.061 S 
ATOM      7  O   UNL     1       8.205  -2.454  22.581  0.00  0.00    -0.153 OA
ATOM      8  O   UNL     1      10.450  -2.791  23.671  0.00  0.00    -0.153 OA
BRANCH   6   9
ATOM      9  C   UNL     1       9.592  -0.367  23.344  0.00  0.00    +0.106 A 
ATOM     10  C   UNL     1       9.508   0.220  22.077  0.00  0.00    +0.030 A 
ATOM     11  C   UNL     1       9.927   1.545  21.903  0.00  0.00    +0.024 A 
ATOM     12  C   UNL     1      10.390   2.296  22.987  0.00  0.00    +0.025 A 
ATOM     13  C   UNL     1      10.549   1.663  24.224  0.00  0.00    +0.024 A 
ATOM     14  C   UNL     1      10.137   0.341  24.413  0.00  0.00    +0.030 A 
BRANCH  12  15
ATOM     15  N   UNL     1      10.913   3.579  22.785  0.00  0.00    -0.358 N 
ATOM     16  H   UNL     1      11.604   3.633  22.043  0.00  0.00    +0.142 HD
ATOM     17  H   UNL     1      10.203   4.302  22.699  0.00  0.00    +0.142 HD
ENDBRANCH  12  15
ENDBRANCH   6   9
ENDBRANCH   5   6
BRANCH   5  18
ATOM     18  C   UNL     1       6.885  -1.964  24.962  0.00  0.00    +0.112 C 
BRANCH  18  20
ATOM     19  C   UNL     1       7.122  -0.066  26.670  0.00  0.00    +0.008 C 
ATOM     20  C   UNL     1       6.303  -0.671  25.535  0.00  0.00    -0.001 C 
ATOM     21  C   UNL     1       6.098   0.397  24.453  0.00  0.00    +0.008 C 
ENDBRANCH  18  20
ENDBRANCH   5  18
ENDBRANCH   4   5
ENDBRANCH   1   4
BRANCH   1  22
ATOM     22  C   UNL     1       7.072  -5.516  25.211  0.00  0.00    +0.110 C 
BRANCH  22  23
ATOM     23  N   UNL     1       6.298  -4.923  26.339  0.00  0.00    -0.275 N 
ATOM     24  H   UNL     1       5.482  -4.367  26.122  0.00  0.00    +0.152 HD
ATOM     25  C   UNL     1       6.402  -5.312  27.642  0.00  0.00    +0.401 C 
ATOM     26  O   UNL     1       7.243  -6.074  28.100  0.00  0.00    -0.226 OA
BRANCH  25  27
ATOM     27  O   UNL     1       5.430  -4.742  28.416  0.00  0.00    -0.444 OA
BRANCH  27  28
ATOM     28  C   UNL     1       4.804  -3.585  27.806  0.00  0.00    +0.212 C 
ATOM     29  C   UNL     1       3.578  -4.024  27.037  0.00  0.00    +0.090 C 
ATOM     30  C   UNL     1       3.067  -3.023  26.016  0.00  0.00    +0.040 C 
ATOM     31  C   UNL     1       1.562  -3.167  26.118  0.00  0.00    +0.163 C 
ATOM     32  O   UNL     1       1.266  -3.678  27.420  0.00  0.00    -0.351 OA
ATOM     33  C   UNL     1       2.488  -3.984  28.085  0.00  0.00    +0.257 C 
ATOM     34  O   UNL     1       2.832  -2.960  29.021  0.00  0.00    -0.347 OA
ATOM     35  C   UNL     1       4.221  -2.633  28.853  0.00  0.00    +0.208 C 
ENDBRANCH  27  28
ENDBRANCH  25  27
ENDBRANCH  22  23
BRANCH  22  36
ATOM     36  C   UNL     1       6.282  -5.396  23.873  0.00  0.00    +0.060 C 
BRANCH  36  37
ATOM     37  C   UNL     1       4.822  -5.829  23.807  0.00  0.00    -0.046 A 
ATOM     38  C   UNL     1       3.812  -5.078  23.190  0.00  0.00    +0.004 A 
ATOM     39  C   UNL     1       2.471  -5.483  23.270  0.00  0.00    +0.000 A 
ATOM     40  C   UNL     1       2.114  -6.635  23.968  0.00  0.00    +0.000 A 
ATOM     41  C   UNL     1       3.101  -7.387  24.594  0.00  0.00    +0.000 A 
ATOM     42  C   UNL     1       4.437  -6.982  24.518  0.00  0.00    +0.004 A 
ENDBRANCH  36  37
ENDBRANCH  22  36
ENDBRANCH   1  22
TORSDOF 14
ENDMDL
MODEL 7
REMARK VINA RESULT:      -6.5      2.949      8.607
REMARK  Name = 
REMARK  16 active torsions:
REMARK  status: ('A' for Active; 'I' for Inactive)
REMARK    1  A    between atoms: C_1  and  C_2
REMARK    2  A    between atoms: C_2  and  C_3
REMARK    3  A    between atoms: C_2  and  C_4
REMARK    4  A    between atoms: C_4  and  N_5
REMARK    5  A    between atoms: N_5  and  C_6
REMARK    6  A    between atoms: N_5  and  S_34
REMARK    7  A    between atoms: C_6  and  C_7
REMARK    8  A    between atoms: C_7  and  C_9
REMARK    9  A    between atoms: C_7  and  O_33
REMARK   10  A    between atoms: C_9  and  C_11
REMARK   11  A    between atoms: C_9  and  N_18
REMARK   12  A    between atoms: C_11  and  C_12
REMARK   13  A    between atoms: C_19  and  O_21
REMARK   14  A    between atoms: O_21  and  C_22
REMARK   15  A    between atoms: S_34  and  C_37
REMARK   16  A    between atoms: C_40  and  N_43
REMARK                            x       y       z     vdW  Elec       q    Type
REMARK                         _______ _______ _______ _____ _____    ______ ____
ROOT
ATOM      1  C   UNL     1      10.353  -0.841  22.903  0.00  0.00    +0.151 C 
ENDROOT
BRANCH   1   2
ATOM      2  O   UNL     1       9.991  -1.467  21.643  0.00  0.00    -0.389 OA
ATOM      3  H   UNL     1       9.158  -1.948  21.786  0.00  0.00    +0.210 HD
ENDBRANCH   1   2
BRANCH   1   4
ATOM      4  C   UNL     1       9.891  -1.801  24.028  0.00  0.00    +0.142 C 
BRANCH   4   5
ATOM      5  N   UNL     1       8.423  -2.058  24.367  0.00  0.00    -0.174 NA
BRANCH   5   6
ATOM      6  S   UNL     1       8.059  -3.679  23.649  0.00  0.00    +0.061 S 
ATOM      7  O   UNL     1       9.061  -4.592  24.156  0.00  0.00    -0.153 OA
ATOM      8  O   UNL     1       7.879  -3.497  22.222  0.00  0.00    -0.153 OA
BRANCH   6   9
ATOM      9  C   UNL     1       6.482  -4.156  24.303  0.00  0.00    +0.106 A 
ATOM     10  C   UNL     1       6.393  -5.103  25.328  0.00  0.00    +0.030 A 
ATOM     11  C   UNL     1       5.134  -5.537  25.758  0.00  0.00    +0.024 A 
ATOM     12  C   UNL     1       3.967  -5.007  25.202  0.00  0.00    +0.025 A 
ATOM     13  C   UNL     1       4.078  -4.127  24.119  0.00  0.00    +0.024 A 
ATOM     14  C   UNL     1       5.328  -3.686  23.678  0.00  0.00    +0.030 A 
BRANCH  12  15
ATOM     15  N   UNL     1       2.716  -5.526  25.555  0.00  0.00    -0.358 N 
ATOM     16  H   UNL     1       2.628  -5.762  26.538  0.00  0.00    +0.142 HD
ATOM     17  H   UNL     1       1.933  -4.969  25.224  0.00  0.00    +0.142 HD
ENDBRANCH  12  15
ENDBRANCH   6   9
ENDBRANCH   5   6
BRANCH   5  18
ATOM     18  C   UNL     1       8.034  -2.105  25.836  0.00  0.00    +0.112 C 
BRANCH  18  20
ATOM     19  C   UNL     1       7.883   0.383  26.444  0.00  0.00    +0.008 C 
ATOM     20  C   UNL     1       7.158  -0.956  26.337  0.00  0.00    -0.001 C 
ATOM     21  C   UNL     1       5.905  -0.767  25.472  0.00  0.00    +0.008 C 
ENDBRANCH  18  20
ENDBRANCH   5  18
ENDBRANCH   4   5
ENDBRANCH   1   4
BRANCH   1  22
ATOM     22  C   UNL     1       9.804   0.631  22.858  0.00  0.00    +0.110 C 
BRANCH  22  23
ATOM     23  N   UNL     1       8.319   0.679  22.980  0.00  0.00    -0.275 N 
ATOM     24  H   UNL     1       7.895   0.333  23.830  0.00  0.00    +0.152 HD
ATOM     25  C   UNL     1       7.498   1.425  22.187  0.00  0.00    +0.401 C 
ATOM     26  O   UNL     1       7.830   2.029  21.176  0.00  0.00    -0.226 OA
BRANCH  25  27
ATOM     27  O   UNL     1       6.215   1.435  22.660  0.00  0.00    -0.444 OA
BRANCH  27  28
ATOM     28  C   UNL     1       5.898   2.603  23.459  0.00  0.00    +0.212 C 
ATOM     29  C   UNL     1       5.363   3.695  22.561  0.00  0.00    +0.090 C 
ATOM     30  C   UNL     1       5.388   5.090  23.162  0.00  0.00    +0.040 C 
ATOM     31  C   UNL     1       4.107   5.710  22.640  0.00  0.00    +0.163 C 
ATOM     32  O   UNL     1       3.204   4.643  22.338  0.00  0.00    -0.351 OA
ATOM     33  C   UNL     1       3.881   3.401  22.513  0.00  0.00    +0.257 C 
ATOM     34  O   UNL     1       3.525   2.795  23.757  0.00  0.00    -0.347 OA
ATOM     35  C   UNL     1       4.725   2.344  24.407  0.00  0.00    +0.208 C 
ENDBRANCH  27  28
ENDBRANCH  25  27
ENDBRANCH  22  23
BRANCH  22  36
ATOM     36  C   UNL     1      10.478   1.522  23.945  0.00  0.00    +0.060 C 
BRANCH  36  37
ATOM     37  C   UNL     1      10.485   3.039  23.793  0.00  0.00    -0.046 A 
ATOM     38  C   UNL     1      11.600   3.777  23.375  0.00  0.00    +0.004 A 
ATOM     39  C   UNL     1      11.568   5.180  23.371  0.00  0.00    +0.000 A 
ATOM     40  C   UNL     1      10.430   5.868  23.788  0.00  0.00    +0.000 A 
ATOM     41  C   UNL     1       9.318   5.153  24.216  0.00  0.00    +0.000 A 
ATOM     42  C   UNL     1       9.350   3.754  24.223  0.00  0.00    +0.004 A 
ENDBRANCH  36  37
ENDBRANCH  22  36
ENDBRANCH   1  22
TORSDOF 14
ENDMDL
MODEL 8
REMARK VINA RESULT:      -6.5      2.122      2.974
REMARK  Name = 
REMARK  16 active torsions:
REMARK  status: ('A' for Active; 'I' for Inactive)
REMARK    1  A    between atoms: C_1  and  C_2
REMARK    2  A    between atoms: C_2  and  C_3
REMARK    3  A    between atoms: C_2  and  C_4
REMARK    4  A    between atoms: C_4  and  N_5
REMARK    5  A    between atoms: N_5  and  C_6
REMARK    6  A    between atoms: N_5  and  S_34
REMARK    7  A    between atoms: C_6  and  C_7
REMARK    8  A    between atoms: C_7  and  C_9
REMARK    9  A    between atoms: C_7  and  O_33
REMARK   10  A    between atoms: C_9  and  C_11
REMARK   11  A    between atoms: C_9  and  N_18
REMARK   12  A    between atoms: C_11  and  C_12
REMARK   13  A    between atoms: C_19  and  O_21
REMARK   14  A    between atoms: O_21  and  C_22
REMARK   15  A    between atoms: S_34  and  C_37
REMARK   16  A    between atoms: C_40  and  N_43
REMARK                            x       y       z     vdW  Elec       q    Type
REMARK                         _______ _______ _______ _____ _____    ______ ____
ROOT
ATOM      1  C   UNL     1       9.812  -1.497  24.101  0.00  0.00    +0.151 C 
ENDROOT
BRANCH   1   2
ATOM      2  O   UNL     1       9.384  -1.066  25.420  0.00  0.00    -0.389 OA
ATOM      3  H   UNL     1       8.411  -1.047  25.419  0.00  0.00    +0.210 HD
ENDBRANCH   1   2
BRANCH   1   4
ATOM      4  C   UNL     1       9.466  -0.348  23.122  0.00  0.00    +0.142 C 
BRANCH   4   5
ATOM      5  N   UNL     1       8.446   0.747  23.432  0.00  0.00    -0.174 NA
BRANCH   5   6
ATOM      6  S   UNL     1       8.801   2.064  22.243  0.00  0.00    +0.061 S 
ATOM      7  O   UNL     1       7.842   1.922  21.168  0.00  0.00    -0.153 OA
ATOM      8  O   UNL     1      10.225   2.037  21.971  0.00  0.00    -0.153 OA
BRANCH   6   9
ATOM      9  C   UNL     1       8.473   3.585  23.091  0.00  0.00    +0.106 A 
ATOM     10  C   UNL     1       9.231   3.955  24.206  0.00  0.00    +0.030 A 
ATOM     11  C   UNL     1       8.889   5.110  24.919  0.00  0.00    +0.024 A 
ATOM     12  C   UNL     1       7.824   5.916  24.505  0.00  0.00    +0.025 A 
ATOM     13  C   UNL     1       7.027   5.481  23.441  0.00  0.00    +0.024 A 
ATOM     14  C   UNL     1       7.355   4.330  22.721  0.00  0.00    +0.030 A 
BRANCH  12  15
ATOM     15  N   UNL     1       7.417   7.004  25.286  0.00  0.00    -0.358 N 
ATOM     16  H   UNL     1       6.748   7.616  24.827  0.00  0.00    +0.142 HD
ATOM     17  H   UNL     1       7.119   6.748  26.223  0.00  0.00    +0.142 HD
ENDBRANCH  12  15
ENDBRANCH   6   9
ENDBRANCH   5   6
BRANCH   5  18
ATOM     18  C   UNL     1       6.971   0.395  23.307  0.00  0.00    +0.112 C 
BRANCH  18  20
ATOM     19  C   UNL     1       5.805  -0.790  25.260  0.00  0.00    +0.008 C 
ATOM     20  C   UNL     1       6.135   0.535  24.580  0.00  0.00    -0.001 C 
ATOM     21  C   UNL     1       6.800   1.461  25.607  0.00  0.00    +0.008 C 
ENDBRANCH  18  20
ENDBRANCH   5  18
ENDBRANCH   4   5
ENDBRANCH   1   4
BRANCH   1  22
ATOM     22  C   UNL     1       9.209  -2.930  23.868  0.00  0.00    +0.110 C 
BRANCH  22  23
ATOM     23  N   UNL     1       8.658  -3.516  25.124  0.00  0.00    -0.275 N 
ATOM     24  H   UNL     1       7.886  -3.046  25.575  0.00  0.00    +0.152 HD
ATOM     25  C   UNL     1       8.889  -4.790  25.552  0.00  0.00    +0.401 C 
ATOM     26  O   UNL     1       9.695  -5.576  25.071  0.00  0.00    -0.226 OA
BRANCH  25  27
ATOM     27  O   UNL     1       8.094  -5.114  26.616  0.00  0.00    -0.444 OA
BRANCH  27  28
ATOM     28  C   UNL     1       6.689  -4.827  26.400  0.00  0.00    +0.212 C 
ATOM     29  C   UNL     1       5.878  -6.081  26.643  0.00  0.00    +0.090 C 
ATOM     30  C   UNL     1       4.476  -6.062  26.060  0.00  0.00    +0.040 C 
ATOM     31  C   UNL     1       3.659  -6.791  27.107  0.00  0.00    +0.163 C 
ATOM     32  O   UNL     1       4.348  -6.666  28.354  0.00  0.00    -0.351 OA
ATOM     33  C   UNL     1       5.599  -6.022  28.128  0.00  0.00    +0.257 C 
ATOM     34  O   UNL     1       5.539  -4.644  28.498  0.00  0.00    -0.347 OA
ATOM     35  C   UNL     1       6.136  -3.861  27.450  0.00  0.00    +0.208 C 
ENDBRANCH  27  28
ENDBRANCH  25  27
ENDBRANCH  22  23
BRANCH  22  36
ATOM     36  C   UNL     1       8.130  -2.916  22.743  0.00  0.00    +0.060 C 
BRANCH  36  37
ATOM     37  C   UNL     1       7.044  -3.985  22.713  0.00  0.00    -0.046 A 
ATOM     38  C   UNL     1       7.266  -5.313  22.325  0.00  0.00    +0.004 A 
ATOM     39  C   UNL     1       6.195  -6.212  22.209  0.00  0.00    +0.000 A 
ATOM     40  C   UNL     1       4.889  -5.803  22.471  0.00  0.00    +0.000 A 
ATOM     41  C   UNL     1       4.649  -4.487  22.848  0.00  0.00    +0.000 A 
ATOM     42  C   UNL     1       5.715  -3.589  22.960  0.00  0.00    +0.004 A 
ENDBRANCH  36  37
ENDBRANCH  22  36
ENDBRANCH   1  22
TORSDOF 14
ENDMDL
MODEL 9
REMARK VINA RESULT:      -6.5      2.166      4.177
REMARK  Name = 
REMARK  16 active torsions:
REMARK  status: ('A' for Active; 'I' for Inactive)
REMARK    1  A    between atoms: C_1  and  C_2
REMARK    2  A    between atoms: C_2  and  C_3
REMARK    3  A    between atoms: C_2  and  C_4
REMARK    4  A    between atoms: C_4  and  N_5
REMARK    5  A    between atoms: N_5  and  C_6
REMARK    6  A    between atoms: N_5  and  S_34
REMARK    7  A    between atoms: C_6  and  C_7
REMARK    8  A    between atoms: C_7  and  C_9
REMARK    9  A    between atoms: C_7  and  O_33
REMARK   10  A    between atoms: C_9  and  C_11
REMARK   11  A    between atoms: C_9  and  N_18
REMARK   12  A    between atoms: C_11  and  C_12
REMARK   13  A    between atoms: C_19  and  O_21
REMARK   14  A    between atoms: O_21  and  C_22
REMARK   15  A    between atoms: S_34  and  C_37
REMARK   16  A    between atoms: C_40  and  N_43
REMARK                            x       y       z     vdW  Elec       q    Type
REMARK                         _______ _______ _______ _____ _____    ______ ____
ROOT
ATOM      1  C   UNL     1       8.528  -0.601  26.309  0.00  0.00    +0.151 C 
ENDROOT
BRANCH   1   2
ATOM      2  O   UNL     1       9.092  -0.427  27.637  0.00  0.00    -0.389 OA
ATOM      3  H   UNL     1       9.458  -1.286  27.913  0.00  0.00    +0.210 HD
ENDBRANCH   1   2
BRANCH   1   4
ATOM      4  C   UNL     1       7.002  -0.372  26.439  0.00  0.00    +0.142 C 
BRANCH   4   5
ATOM      5  N   UNL     1       6.355   1.013  26.453  0.00  0.00    -0.174 NA
BRANCH   5   6
ATOM      6  S   UNL     1       5.764   1.266  24.761  0.00  0.00    +0.061 S 
ATOM      7  O   UNL     1       4.386   1.697  24.863  0.00  0.00    -0.153 OA
ATOM      8  O   UNL     1       6.115   0.087  23.993  0.00  0.00    -0.153 OA
BRANCH   6   9
ATOM      9  C   UNL     1       6.725   2.604  24.106  0.00  0.00    +0.106 A 
ATOM     10  C   UNL     1       7.620   3.303  24.922  0.00  0.00    +0.030 A 
ATOM     11  C   UNL     1       8.292   4.419  24.409  0.00  0.00    +0.024 A 
ATOM     12  C   UNL     1       8.107   4.816  23.082  0.00  0.00    +0.025 A 
ATOM     13  C   UNL     1       7.142   4.158  22.311  0.00  0.00    +0.024 A 
ATOM     14  C   UNL     1       6.462   3.044  22.810  0.00  0.00    +0.030 A 
BRANCH  12  15
ATOM     15  N   UNL     1       8.693   5.997  22.610  0.00  0.00    -0.358 N 
ATOM     16  H   UNL     1       9.078   5.922  21.673  0.00  0.00    +0.142 HD
ATOM     17  H   UNL     1       8.103   6.817  22.715  0.00  0.00    +0.142 HD
ENDBRANCH  12  15
ENDBRANCH   6   9
ENDBRANCH   5   6
BRANCH   5  18
ATOM     18  C   UNL     1       5.180   1.236  27.392  0.00  0.00    +0.112 C 
BRANCH  18  20
ATOM     19  C   UNL     1       6.655   2.566  29.015  0.00  0.00    +0.008 C 
ATOM     20  C   UNL     1       5.293   2.430  28.341  0.00  0.00    -0.001 C 
ATOM     21  C   UNL     1       4.957   3.754  27.643  0.00  0.00    +0.008 C 
ENDBRANCH  18  20
ENDBRANCH   5  18
ENDBRANCH   4   5
ENDBRANCH   1   4
BRANCH   1  22
ATOM     22  C   UNL     1       9.068  -1.970  25.757  0.00  0.00    +0.110 C 
BRANCH  22  23
ATOM     23  N   UNL     1       8.055  -3.058  25.871  0.00  0.00    -0.275 N 
ATOM     24  H   UNL     1       7.079  -2.819  25.765  0.00  0.00    +0.152 HD
ATOM     25  C   UNL     1       8.335  -4.391  25.795  0.00  0.00    +0.401 C 
ATOM     26  O   UNL     1       9.452  -4.892  25.785  0.00  0.00    -0.226 OA
BRANCH  25  27
ATOM     27  O   UNL     1       7.194  -5.141  25.723  0.00  0.00    -0.444 OA
BRANCH  27  28
ATOM     28  C   UNL     1       6.194  -4.593  24.826  0.00  0.00    +0.212 C 
ATOM     29  C   UNL     1       6.757  -4.533  23.424  0.00  0.00    +0.090 C 
ATOM     30  C   UNL     1       6.012  -3.613  22.472  0.00  0.00    +0.040 C 
ATOM     31  C   UNL     1       6.068  -4.363  21.157  0.00  0.00    +0.163 C 
ATOM     32  O   UNL     1       6.239  -5.750  21.459  0.00  0.00    -0.351 OA
ATOM     33  C   UNL     1       6.423  -5.897  22.865  0.00  0.00    +0.257 C 
ATOM     34  O   UNL     1       5.219  -6.335  23.495  0.00  0.00    -0.347 OA
ATOM     35  C   UNL     1       4.996  -5.533  24.667  0.00  0.00    +0.208 C 
ENDBRANCH  27  28
ENDBRANCH  25  27
ENDBRANCH  22  23
BRANCH  22  36
ATOM     36  C   UNL     1       9.570  -1.831  24.288  0.00  0.00    +0.060 C 
BRANCH  36  37
ATOM     37  C   UNL     1       9.725  -0.450  23.661  0.00  0.00    -0.046 A 
ATOM     38  C   UNL     1       9.184  -0.091  22.419  0.00  0.00    +0.004 A 
ATOM     39  C   UNL     1       9.466   1.161  21.851  0.00  0.00    +0.000 A 
ATOM     40  C   UNL     1      10.293   2.071  22.507  0.00  0.00    +0.000 A 
ATOM     41  C   UNL     1      10.846   1.728  23.735  0.00  0.00    +0.000 A 
ATOM     42  C   UNL     1      10.569   0.479  24.300  0.00  0.00    +0.004 A 
ENDBRANCH  36  37
ENDBRANCH  22  36
ENDBRANCH   1  22
TORSDOF 14
ENDMDL
