MODEL 1
REMARK VINA RESULT:      -8.0      0.000      0.000
REMARK  Name = 
REMARK  11 active torsions:
REMARK  status: ('A' for Active; 'I' for Inactive)
REMARK    1  A    between atoms: C_1  and  C_2
REMARK    2  A    between atoms: C_5  and  C_38
REMARK    3  A    between atoms: N_6  and  C_7
REMARK    4  A    between atoms: N_16  and  C_17
REMARK    5  A    between atoms: C_17  and  C_18
REMARK    6  A    between atoms: C_18  and  C_19
REMARK    7  A    between atoms: C_19  and  C_21
REMARK    8  A    between atoms: C_19  and  N_27
REMARK    9  A    between atoms: C_28  and  C_30
REMARK   10  A    between atoms: C_38  and  C_39
REMARK   11  A    between atoms: C_38  and  C_40
REMARK                            x       y       z     vdW  Elec       q    Type
REMARK                         _______ _______ _______ _____ _____    ______ ____
ROOT
ATOM      1  C   UNL     1       8.508  -4.391  25.625  0.00  0.00    +0.042 C 
ENDROOT
BRANCH   1   2
ATOM      2  C   UNL     1       7.541  -4.312  26.808  0.00  0.00    +0.087 C 
BRANCH   2   6
ATOM      3  C   UNL     1       4.121  -4.059  27.090  0.00  0.00    +0.093 C 
ATOM      4  C   UNL     1       4.797  -4.539  25.774  0.00  0.00    +0.044 C 
ATOM      5  C   UNL     1       5.728  -5.759  26.007  0.00  0.00    +0.059 C 
ATOM      6  N   UNL     1       6.713  -5.499  27.072  0.00  0.00    -0.296 NA
ATOM      7  C   UNL     1       5.888  -5.491  28.288  0.00  0.00    +0.059 C 
ATOM      8  C   UNL     1       5.058  -6.762  28.116  0.00  0.00    +0.020 C 
ATOM      9  C   UNL     1       4.962  -6.952  26.602  0.00  0.00    +0.020 C 
ATOM     10  C   UNL     1       4.990  -4.254  28.347  0.00  0.00    +0.044 C 
BRANCH   3  13
ATOM     11  C   UNL     1       0.903  -3.437  27.094  0.00  0.00    +0.088 C 
ATOM     12  C   UNL     1       2.049  -2.503  27.008  0.00  0.00    +0.131 A 
ATOM     13  N   UNL     1       3.408  -2.782  27.010  0.00  0.00    -0.312 N 
ATOM     14  C   UNL     1       4.010  -1.569  26.692  0.00  0.00    +0.136 A 
ATOM     15  N   UNL     1       3.087  -0.635  26.625  0.00  0.00    -0.134 NA
ATOM     16  N   UNL     1       1.876  -1.210  26.828  0.00  0.00    -0.135 NA
BRANCH  14  17
ATOM     17  C   UNL     1       5.466  -1.348  26.400  0.00  0.00    +0.051 C 
ATOM     18  C   UNL     1       6.078  -0.338  27.377  0.00  0.00    +0.015 C 
ATOM     19  C   UNL     1       5.666  -0.833  24.971  0.00  0.00    +0.015 C 
ENDBRANCH  14  17
ENDBRANCH   3  13
ENDBRANCH   2   6
ENDBRANCH   1   2
BRANCH   1  20
ATOM     20  C   UNL     1       8.123  -3.519  24.397  0.00  0.00    +0.104 C 
BRANCH  20  21
ATOM     21  C   UNL     1       7.433  -4.157  23.188  0.00  0.00    -0.027 A 
ATOM     22  C   UNL     1       7.619  -5.533  22.952  0.00  0.00    +0.005 A 
ATOM     23  C   UNL     1       6.982  -6.187  21.890  0.00  0.00    +0.000 A 
ATOM     24  C   UNL     1       6.158  -5.478  21.023  0.00  0.00    +0.000 A 
ATOM     25  C   UNL     1       5.937  -4.127  21.250  0.00  0.00    +0.000 A 
ATOM     26  C   UNL     1       6.528  -3.489  22.348  0.00  0.00    +0.005 A 
ENDBRANCH  20  21
BRANCH  20  27
ATOM     27  N   UNL     1       9.240  -2.721  23.926  0.00  0.00    -0.308 N 
ATOM     28  H   UNL     1       9.785  -3.074  23.150  0.00  0.00    +0.149 HD
ATOM     29  C   UNL     1       9.527  -1.486  24.466  0.00  0.00    +0.217 C 
ATOM     30  O   UNL     1       8.919  -1.024  25.421  0.00  0.00    -0.275 OA
BRANCH  29  31
ATOM     31  C   UNL     1      10.651  -0.748  23.744  0.00  0.00    +0.075 C 
ATOM     32  C   UNL     1      10.797   0.701  24.238  0.00  0.00    +0.018 C 
ATOM     33  C   UNL     1       9.661   1.615  23.772  0.00  0.00    +0.076 C 
ATOM     34  C   UNL     1       9.434   1.524  22.274  0.00  0.00    +0.249 C 
ATOM     35  F   UNL     1      10.487   2.095  21.631  0.00  0.00    -0.206 F 
ATOM     36  F   UNL     1       8.338   2.245  21.931  0.00  0.00    -0.206 F 
ATOM     37  C   UNL     1       9.276   0.096  21.779  0.00  0.00    +0.076 C 
ATOM     38  C   UNL     1      10.453  -0.775  22.216  0.00  0.00    +0.018 C 
ENDBRANCH  29  31
ENDBRANCH  20  27
ENDBRANCH   1  20
TORSDOF 8
ENDMDL
MODEL 2
REMARK VINA RESULT:      -7.8      2.052      2.985
REMARK  Name = 
REMARK  11 active torsions:
REMARK  status: ('A' for Active; 'I' for Inactive)
REMARK    1  A    between atoms: C_1  and  C_2
REMARK    2  A    between atoms: C_5  and  C_38
REMARK    3  A    between atoms: N_6  and  C_7
REMARK    4  A    between atoms: N_16  and  C_17
REMARK    5  A    between atoms: C_17  and  C_18
REMARK    6  A    between atoms: C_18  and  C_19
REMARK    7  A    between atoms: C_19  and  C_21
REMARK    8  A    between atoms: C_19  and  N_27
REMARK    9  A    between atoms: C_28  and  C_30
REMARK   10  A    between atoms: C_38  and  C_39
REMARK   11  A    between atoms: C_38  and  C_40
REMARK                            x       y       z     vdW  Elec       q    Type
REMARK                         _______ _______ _______ _____ _____    ______ ____
ROOT
ATOM      1  C   UNL     1       7.491  -3.852  26.238  0.00  0.00    +0.042 C 
ENDROOT
BRANCH   1   2
ATOM      2  C   UNL     1       6.146  -3.987  26.955  0.00  0.00    +0.087 C 
BRANCH   2   6
ATOM      3  C   UNL     1       3.668  -6.238  27.752  0.00  0.00    +0.093 C 
ATOM      4  C   UNL     1       5.058  -6.706  27.234  0.00  0.00    +0.044 C 
ATOM      5  C   UNL     1       6.220  -6.154  28.104  0.00  0.00    +0.059 C 
ATOM      6  N   UNL     1       6.148  -4.689  28.247  0.00  0.00    -0.296 NA
ATOM      7  C   UNL     1       4.980  -4.502  29.120  0.00  0.00    +0.059 C 
ATOM      8  C   UNL     1       5.256  -5.507  30.238  0.00  0.00    +0.020 C 
ATOM      9  C   UNL     1       6.092  -6.598  29.570  0.00  0.00    +0.020 C 
ATOM     10  C   UNL     1       3.677  -4.837  28.392  0.00  0.00    +0.044 C 
BRANCH   3  13
ATOM     11  C   UNL     1       1.009  -8.088  28.257  0.00  0.00    +0.088 C 
ATOM     12  C   UNL     1       1.404  -7.300  27.067  0.00  0.00    +0.131 A 
ATOM     13  N   UNL     1       2.533  -6.519  26.869  0.00  0.00    -0.312 N 
ATOM     14  C   UNL     1       2.496  -6.195  25.516  0.00  0.00    +0.136 A 
ATOM     15  N   UNL     1       1.379  -6.652  24.995  0.00  0.00    -0.134 NA
ATOM     16  N   UNL     1       0.700  -7.328  25.954  0.00  0.00    -0.135 NA
BRANCH  14  17
ATOM     17  C   UNL     1       3.575  -5.498  24.738  0.00  0.00    +0.051 C 
ATOM     18  C   UNL     1       3.346  -3.984  24.711  0.00  0.00    +0.015 C 
ATOM     19  C   UNL     1       3.630  -6.013  23.297  0.00  0.00    +0.015 C 
ENDBRANCH  14  17
ENDBRANCH   3  13
ENDBRANCH   2   6
ENDBRANCH   1   2
BRANCH   1  20
ATOM     20  C   UNL     1       7.435  -3.150  24.852  0.00  0.00    +0.104 C 
BRANCH  20  21
ATOM     21  C   UNL     1       7.093  -3.957  23.596  0.00  0.00    -0.027 A 
ATOM     22  C   UNL     1       6.366  -3.328  22.567  0.00  0.00    +0.005 A 
ATOM     23  C   UNL     1       6.057  -3.994  21.374  0.00  0.00    +0.000 A 
ATOM     24  C   UNL     1       6.451  -5.315  21.189  0.00  0.00    +0.000 A 
ATOM     25  C   UNL     1       7.192  -5.948  22.176  0.00  0.00    +0.000 A 
ATOM     26  C   UNL     1       7.549  -5.259  23.342  0.00  0.00    +0.005 A 
ENDBRANCH  20  21
BRANCH  20  27
ATOM     27  N   UNL     1       8.629  -2.368  24.591  0.00  0.00    -0.308 N 
ATOM     28  H   UNL     1       9.437  -2.843  24.213  0.00  0.00    +0.149 HD
ATOM     29  C   UNL     1       8.658  -1.003  24.787  0.00  0.00    +0.217 C 
ATOM     30  O   UNL     1       7.719  -0.384  25.267  0.00  0.00    -0.275 OA
BRANCH  29  31
ATOM     31  C   UNL     1       9.956  -0.346  24.325  0.00  0.00    +0.075 C 
ATOM     32  C   UNL     1       9.903   1.185  24.456  0.00  0.00    +0.018 C 
ATOM     33  C   UNL     1       8.994   1.848  23.418  0.00  0.00    +0.076 C 
ATOM     34  C   UNL     1       9.309   1.388  22.006  0.00  0.00    +0.249 C 
ATOM     35  F   UNL     1      10.515   1.895  21.635  0.00  0.00    -0.206 F 
ATOM     36  F   UNL     1       8.396   1.897  21.143  0.00  0.00    -0.206 F 
ATOM     37  C   UNL     1       9.352  -0.124  21.866  0.00  0.00    +0.076 C 
ATOM     38  C   UNL     1      10.309  -0.748  22.880  0.00  0.00    +0.018 C 
ENDBRANCH  29  31
ENDBRANCH  20  27
ENDBRANCH   1  20
TORSDOF 8
ENDMDL
MODEL 3
REMARK VINA RESULT:      -7.7      3.624      6.705
REMARK  Name = 
REMARK  11 active torsions:
REMARK  status: ('A' for Active; 'I' for Inactive)
REMARK    1  A    between atoms: C_1  and  C_2
REMARK    2  A    between atoms: C_5  and  C_38
REMARK    3  A    between atoms: N_6  and  C_7
REMARK    4  A    between atoms: N_16  and  C_17
REMARK    5  A    between atoms: C_17  and  C_18
REMARK    6  A    between atoms: C_18  and  C_19
REMARK    7  A    between atoms: C_19  and  C_21
REMARK    8  A    between atoms: C_19  and  N_27
REMARK    9  A    between atoms: C_28  and  C_30
REMARK   10  A    between atoms: C_38  and  C_39
REMARK   11  A    between atoms: C_38  and  C_40
REMARK                            x       y       z     vdW  Elec       q    Type
REMARK                         _______ _______ _______ _____ _____    ______ ____
ROOT
ATOM      1  C   UNL     1       9.037  -4.305  25.456  0.00  0.00    +0.042 C 
ENDROOT
BRANCH   1   2
ATOM      2  C   UNL     1       8.940  -2.786  25.300  0.00  0.00    +0.087 C 
BRANCH   2   6
ATOM      3  C   UNL     1       7.433  -0.011  23.934  0.00  0.00    +0.093 C 
ATOM      4  C   UNL     1       8.758   0.096  24.741  0.00  0.00    +0.044 C 
ATOM      5  C   UNL     1       9.869  -0.821  24.162  0.00  0.00    +0.059 C 
ATOM      6  N   UNL     1       9.413  -2.216  24.030  0.00  0.00    -0.296 NA
ATOM      7  C   UNL     1       8.451  -2.143  22.922  0.00  0.00    +0.059 C 
ATOM      8  C   UNL     1       9.230  -1.343  21.877  0.00  0.00    +0.020 C 
ATOM      9  C   UNL     1      10.183  -0.475  22.698  0.00  0.00    +0.020 C 
ATOM     10  C   UNL     1       7.175  -1.406  23.335  0.00  0.00    +0.044 C 
BRANCH   3  13
ATOM     11  C   UNL     1       5.482  -1.013  26.371  0.00  0.00    +0.088 C 
ATOM     12  C   UNL     1       5.431   0.228  25.565  0.00  0.00    +0.131 A 
ATOM     13  N   UNL     1       6.266   0.640  24.537  0.00  0.00    -0.312 N 
ATOM     14  C   UNL     1       5.634   1.759  24.005  0.00  0.00    +0.136 A 
ATOM     15  N   UNL     1       4.578   2.044  24.736  0.00  0.00    -0.134 NA
ATOM     16  N   UNL     1       4.457   1.103  25.704  0.00  0.00    -0.135 NA
BRANCH  14  17
ATOM     17  C   UNL     1       6.032   2.498  22.760  0.00  0.00    +0.051 C 
ATOM     18  C   UNL     1       7.308   3.315  22.987  0.00  0.00    +0.015 C 
ATOM     19  C   UNL     1       4.916   3.445  22.305  0.00  0.00    +0.015 C 
ENDBRANCH  14  17
ENDBRANCH   3  13
ENDBRANCH   2   6
ENDBRANCH   1   2
BRANCH   1  20
ATOM     20  C   UNL     1       7.680  -5.063  25.408  0.00  0.00    +0.104 C 
BRANCH  20  21
ATOM     21  C   UNL     1       6.963  -5.270  24.072  0.00  0.00    -0.027 A 
ATOM     22  C   UNL     1       7.727  -5.629  22.944  0.00  0.00    +0.005 A 
ATOM     23  C   UNL     1       7.129  -5.875  21.702  0.00  0.00    +0.000 A 
ATOM     24  C   UNL     1       5.752  -5.749  21.550  0.00  0.00    +0.000 A 
ATOM     25  C   UNL     1       4.975  -5.424  22.652  0.00  0.00    +0.000 A 
ATOM     26  C   UNL     1       5.570  -5.236  23.905  0.00  0.00    +0.005 A 
ENDBRANCH  20  21
BRANCH  20  27
ATOM     27  N   UNL     1       6.729  -4.534  26.368  0.00  0.00    -0.308 N 
ATOM     28  H   UNL     1       6.161  -3.745  26.091  0.00  0.00    +0.149 HD
ATOM     29  C   UNL     1       6.547  -5.117  27.604  0.00  0.00    +0.217 C 
ATOM     30  O   UNL     1       7.225  -6.054  28.000  0.00  0.00    -0.275 OA
BRANCH  29  31
ATOM     31  C   UNL     1       5.408  -4.499  28.411  0.00  0.00    +0.075 C 
ATOM     32  C   UNL     1       4.989  -5.392  29.590  0.00  0.00    +0.018 C 
ATOM     33  C   UNL     1       4.233  -6.650  29.157  0.00  0.00    +0.076 C 
ATOM     34  C   UNL     1       3.079  -6.328  28.223  0.00  0.00    +0.249 C 
ATOM     35  F   UNL     1       2.107  -5.688  28.926  0.00  0.00    -0.206 F 
ATOM     36  F   UNL     1       2.527  -7.478  27.764  0.00  0.00    -0.206 F 
ATOM     37  C   UNL     1       3.487  -5.456  27.048  0.00  0.00    +0.076 C 
ATOM     38  C   UNL     1       4.191  -4.185  27.519  0.00  0.00    +0.018 C 
ENDBRANCH  29  31
ENDBRANCH  20  27
ENDBRANCH   1  20
TORSDOF 8
ENDMDL
MODEL 4
REMARK VINA RESULT:      -7.6      2.118      4.362
REMARK  Name = 
REMARK  11 active torsions:
REMARK  status: ('A' for Active; 'I' for Inactive)
REMARK    1  A    between atoms: C_1  and  C_2
REMARK    2  A    between atoms: C_5  and  C_38
REMARK    3  A    between atoms: N_6  and  C_7
REMARK    4  A    between atoms: N_16  and  C_17
REMARK    5  A    between atoms: C_17  and  C_18
REMARK    6  A    between atoms: C_18  and  C_19
REMARK    7  A    between atoms: C_19  and  C_21
REMARK    8  A    between atoms: C_19  and  N_27
REMARK    9  A    between atoms: C_28  and  C_30
REMARK   10  A    between atoms: C_38  and  C_39
REMARK   11  A    between atoms: C_38  and  C_40
REMARK                            x       y       z     vdW  Elec       q    Type
REMARK                         _______ _______ _______ _____ _____    ______ ____
ROOT
ATOM      1  C   UNL     1       5.758  -2.694  22.662  0.00  0.00    +0.042 C 
ENDROOT
BRANCH   1   2
ATOM      2  C   UNL     1       5.532  -4.163  23.028  0.00  0.00    +0.087 C 
BRANCH   2   6
ATOM      3  C   UNL     1       4.357  -5.857  25.782  0.00  0.00    +0.093 C 
ATOM      4  C   UNL     1       4.085  -4.339  25.583  0.00  0.00    +0.044 C 
ATOM      5  C   UNL     1       3.393  -4.044  24.224  0.00  0.00    +0.059 C 
ATOM      6  N   UNL     1       4.138  -4.626  23.093  0.00  0.00    -0.296 NA
ATOM      7  C   UNL     1       3.913  -6.069  23.260  0.00  0.00    +0.059 C 
ATOM      8  C   UNL     1       2.400  -6.130  23.473  0.00  0.00    +0.020 C 
ATOM      9  C   UNL     1       2.050  -4.781  24.100  0.00  0.00    +0.020 C 
ATOM     10  C   UNL     1       4.660  -6.617  24.477  0.00  0.00    +0.044 C 
BRANCH   3  13
ATOM     11  C   UNL     1       3.592  -7.340  28.604  0.00  0.00    +0.088 C 
ATOM     12  C   UNL     1       4.897  -6.830  28.124  0.00  0.00    +0.131 A 
ATOM     13  N   UNL     1       5.206  -6.206  26.925  0.00  0.00    -0.312 N 
ATOM     14  C   UNL     1       6.510  -5.753  27.097  0.00  0.00    +0.136 A 
ATOM     15  N   UNL     1       6.963  -6.178  28.256  0.00  0.00    -0.134 NA
ATOM     16  N   UNL     1       5.970  -6.851  28.888  0.00  0.00    -0.135 NA
BRANCH  14  17
ATOM     17  C   UNL     1       7.274  -4.863  26.159  0.00  0.00    +0.051 C 
ATOM     18  C   UNL     1       8.569  -5.536  25.693  0.00  0.00    +0.015 C 
ATOM     19  C   UNL     1       7.624  -3.532  26.831  0.00  0.00    +0.015 C 
ENDBRANCH  14  17
ENDBRANCH   3  13
ENDBRANCH   2   6
ENDBRANCH   1   2
BRANCH   1  20
ATOM     20  C   UNL     1       6.636  -1.891  23.662  0.00  0.00    +0.104 C 
BRANCH  20  21
ATOM     21  C   UNL     1       6.035  -0.717  24.440  0.00  0.00    -0.027 A 
ATOM     22  C   UNL     1       5.340  -0.984  25.636  0.00  0.00    +0.005 A 
ATOM     23  C   UNL     1       4.803   0.045  26.418  0.00  0.00    +0.000 A 
ATOM     24  C   UNL     1       4.930   1.370  26.014  0.00  0.00    +0.000 A 
ATOM     25  C   UNL     1       5.633   1.662  24.854  0.00  0.00    +0.000 A 
ATOM     26  C   UNL     1       6.219   0.633  24.106  0.00  0.00    +0.005 A 
ENDBRANCH  20  21
BRANCH  20  27
ATOM     27  N   UNL     1       7.885  -1.459  23.062  0.00  0.00    -0.308 N 
ATOM     28  H   UNL     1       7.862  -1.106  22.115  0.00  0.00    +0.149 HD
ATOM     29  C   UNL     1       9.068  -1.463  23.770  0.00  0.00    +0.217 C 
ATOM     30  O   UNL     1       9.157  -1.903  24.907  0.00  0.00    -0.275 OA
BRANCH  29  31
ATOM     31  C   UNL     1      10.238  -0.844  23.009  0.00  0.00    +0.075 C 
ATOM     32  C   UNL     1      10.864   0.331  23.777  0.00  0.00    +0.018 C 
ATOM     33  C   UNL     1       9.983   1.583  23.789  0.00  0.00    +0.076 C 
ATOM     34  C   UNL     1       9.523   1.969  22.395  0.00  0.00    +0.249 C 
ATOM     35  F   UNL     1      10.589   2.427  21.688  0.00  0.00    -0.206 F 
ATOM     36  F   UNL     1       8.642   2.997  22.471  0.00  0.00    -0.206 F 
ATOM     37  C   UNL     1       8.892   0.815  21.634  0.00  0.00    +0.076 C 
ATOM     38  C   UNL     1       9.819  -0.397  21.596  0.00  0.00    +0.018 C 
ENDBRANCH  29  31
ENDBRANCH  20  27
ENDBRANCH   1  20
TORSDOF 8
ENDMDL
MODEL 5
REMARK VINA RESULT:      -7.6      3.652      6.888
REMARK  Name = 
REMARK  11 active torsions:
REMARK  status: ('A' for Active; 'I' for Inactive)
REMARK    1  A    between atoms: C_1  and  C_2
REMARK    2  A    between atoms: C_5  and  C_38
REMARK    3  A    between atoms: N_6  and  C_7
REMARK    4  A    between atoms: N_16  and  C_17
REMARK    5  A    between atoms: C_17  and  C_18
REMARK    6  A    between atoms: C_18  and  C_19
REMARK    7  A    between atoms: C_19  and  C_21
REMARK    8  A    between atoms: C_19  and  N_27
REMARK    9  A    between atoms: C_28  and  C_30
REMARK   10  A    between atoms: C_38  and  C_39
REMARK   11  A    between atoms: C_38  and  C_40
REMARK                            x       y       z     vdW  Elec       q    Type
REMARK                         _______ _______ _______ _____ _____    ______ ____
ROOT
ATOM      1  C   UNL     1       8.911  -3.988  25.765  0.00  0.00    +0.042 C 
ENDROOT
BRANCH   1   2
ATOM      2  C   UNL     1       8.734  -2.529  25.338  0.00  0.00    +0.087 C 
BRANCH   2   6
ATOM      3  C   UNL     1       7.622   0.164  23.508  0.00  0.00    +0.093 C 
ATOM      4  C   UNL     1       8.808   0.291  24.506  0.00  0.00    +0.044 C 
ATOM      5  C   UNL     1       9.942  -0.723  24.197  0.00  0.00    +0.059 C 
ATOM      6  N   UNL     1       9.433  -2.104  24.116  0.00  0.00    -0.296 NA
ATOM      7  C   UNL     1       8.662  -2.096  22.865  0.00  0.00    +0.059 C 
ATOM      8  C   UNL     1       9.641  -1.435  21.894  0.00  0.00    +0.020 C 
ATOM      9  C   UNL     1      10.502  -0.534  22.778  0.00  0.00    +0.020 C 
ATOM     10  C   UNL     1       7.382  -1.270  22.999  0.00  0.00    +0.044 C 
BRANCH   3  13
ATOM     11  C   UNL     1       6.509   3.017  22.338  0.00  0.00    +0.088 C 
ATOM     12  C   UNL     1       5.932   2.126  23.371  0.00  0.00    +0.131 A 
ATOM     13  N   UNL     1       6.415   0.919  23.855  0.00  0.00    -0.312 N 
ATOM     14  C   UNL     1       5.603   0.636  24.948  0.00  0.00    +0.136 A 
ATOM     15  N   UNL     1       4.654   1.543  25.026  0.00  0.00    -0.134 NA
ATOM     16  N   UNL     1       4.852   2.459  24.047  0.00  0.00    -0.135 NA
BRANCH  14  17
ATOM     17  C   UNL     1       5.798  -0.478  25.936  0.00  0.00    +0.051 C 
ATOM     18  C   UNL     1       4.834  -1.637  25.659  0.00  0.00    +0.015 C 
ATOM     19  C   UNL     1       5.574   0.015  27.369  0.00  0.00    +0.015 C 
ENDBRANCH  14  17
ENDBRANCH   3  13
ENDBRANCH   2   6
ENDBRANCH   1   2
BRANCH   1  20
ATOM     20  C   UNL     1       7.627  -4.860  25.687  0.00  0.00    +0.104 C 
BRANCH  20  21
ATOM     21  C   UNL     1       6.925  -5.075  24.344  0.00  0.00    -0.027 A 
ATOM     22  C   UNL     1       7.690  -5.506  23.243  0.00  0.00    +0.005 A 
ATOM     23  C   UNL     1       7.104  -5.763  21.997  0.00  0.00    +0.000 A 
ATOM     24  C   UNL     1       5.738  -5.575  21.815  0.00  0.00    +0.000 A 
ATOM     25  C   UNL     1       4.957  -5.177  22.891  0.00  0.00    +0.000 A 
ATOM     26  C   UNL     1       5.538  -4.979  24.149  0.00  0.00    +0.005 A 
ENDBRANCH  20  21
BRANCH  20  27
ATOM     27  N   UNL     1       6.637  -4.458  26.669  0.00  0.00    -0.308 N 
ATOM     28  H   UNL     1       6.059  -3.655  26.463  0.00  0.00    +0.149 HD
ATOM     29  C   UNL     1       6.433  -5.177  27.829  0.00  0.00    +0.217 C 
ATOM     30  O   UNL     1       7.120  -6.138  28.140  0.00  0.00    -0.275 OA
BRANCH  29  31
ATOM     31  C   UNL     1       5.257  -4.672  28.662  0.00  0.00    +0.075 C 
ATOM     32  C   UNL     1       4.789  -5.720  29.685  0.00  0.00    +0.018 C 
ATOM     33  C   UNL     1       4.055  -6.902  29.047  0.00  0.00    +0.076 C 
ATOM     34  C   UNL     1       2.944  -6.449  28.118  0.00  0.00    +0.249 C 
ATOM     35  F   UNL     1       1.940  -5.909  28.858  0.00  0.00    -0.206 F 
ATOM     36  F   UNL     1       2.415  -7.521  27.478  0.00  0.00    -0.206 F 
ATOM     37  C   UNL     1       3.402  -5.423  27.095  0.00  0.00    +0.076 C 
ATOM     38  C   UNL     1       4.081  -4.233  27.770  0.00  0.00    +0.018 C 
ENDBRANCH  29  31
ENDBRANCH  20  27
ENDBRANCH   1  20
TORSDOF 8
ENDMDL
MODEL 6
REMARK VINA RESULT:      -7.6      2.067      3.764
REMARK  Name = 
REMARK  11 active torsions:
REMARK  status: ('A' for Active; 'I' for Inactive)
REMARK    1  A    between atoms: C_1  and  C_2
REMARK    2  A    between atoms: C_5  and  C_38
REMARK    3  A    between atoms: N_6  and  C_7
REMARK    4  A    between atoms: N_16  and  C_17
REMARK    5  A    between atoms: C_17  and  C_18
REMARK    6  A    between atoms: C_18  and  C_19
REMARK    7  A    between atoms: C_19  and  C_21
REMARK    8  A    between atoms: C_19  and  N_27
REMARK    9  A    between atoms: C_28  and  C_30
REMARK   10  A    between atoms: C_38  and  C_39
REMARK   11  A    between atoms: C_38  and  C_40
REMARK                            x       y       z     vdW  Elec       q    Type
REMARK                         _______ _______ _______ _____ _____    ______ ____
ROOT
ATOM      1  C   UNL     1       8.301  -4.318  26.249  0.00  0.00    +0.042 C 
ENDROOT
BRANCH   1   2
ATOM      2  C   UNL     1       7.156  -5.198  26.755  0.00  0.00    +0.087 C 
BRANCH   2   6
ATOM      3  C   UNL     1       3.870  -6.138  27.155  0.00  0.00    +0.093 C 
ATOM      4  C   UNL     1       5.009  -6.782  27.995  0.00  0.00    +0.044 C 
ATOM      5  C   UNL     1       5.842  -5.718  28.761  0.00  0.00    +0.059 C 
ATOM      6  N   UNL     1       6.345  -4.666  27.861  0.00  0.00    -0.296 NA
ATOM      7  C   UNL     1       5.126  -3.924  27.509  0.00  0.00    +0.059 C 
ATOM      8  C   UNL     1       4.480  -3.710  28.877  0.00  0.00    +0.020 C 
ATOM      9  C   UNL     1       4.965  -4.892  29.716  0.00  0.00    +0.020 C 
ATOM     10  C   UNL     1       4.214  -4.745  26.595  0.00  0.00    +0.044 C 
BRANCH   3  13
ATOM     11  C   UNL     1       4.674  -7.046  24.109  0.00  0.00    +0.088 C 
ATOM     12  C   UNL     1       3.505  -7.428  24.935  0.00  0.00    +0.131 A 
ATOM     13  N   UNL     1       3.180  -7.037  26.225  0.00  0.00    -0.312 N 
ATOM     14  C   UNL     1       1.888  -7.517  26.416  0.00  0.00    +0.136 A 
ATOM     15  N   UNL     1       1.535  -8.229  25.368  0.00  0.00    -0.134 NA
ATOM     16  N   UNL     1       2.537  -8.180  24.456  0.00  0.00    -0.135 NA
BRANCH  14  17
ATOM     17  C   UNL     1       0.996  -7.228  27.588  0.00  0.00    +0.051 C 
ATOM     18  C   UNL     1       0.818  -5.720  27.789  0.00  0.00    +0.015 C 
ATOM     19  C   UNL     1       1.569  -7.831  28.875  0.00  0.00    +0.015 C 
ENDBRANCH  14  17
ENDBRANCH   3  13
ENDBRANCH   2   6
ENDBRANCH   1   2
BRANCH   1  20
ATOM     20  C   UNL     1       7.942  -3.388  25.056  0.00  0.00    +0.104 C 
BRANCH  20  21
ATOM     21  C   UNL     1       7.342  -3.977  23.777  0.00  0.00    -0.027 A 
ATOM     22  C   UNL     1       6.344  -3.248  23.101  0.00  0.00    +0.005 A 
ATOM     23  C   UNL     1       5.784  -3.708  21.903  0.00  0.00    +0.000 A 
ATOM     24  C   UNL     1       6.193  -4.921  21.360  0.00  0.00    +0.000 A 
ATOM     25  C   UNL     1       7.194  -5.645  21.991  0.00  0.00    +0.000 A 
ATOM     26  C   UNL     1       7.793  -5.152  23.157  0.00  0.00    +0.005 A 
ENDBRANCH  20  21
BRANCH  20  27
ATOM     27  N   UNL     1       9.048  -2.520  24.694  0.00  0.00    -0.308 N 
ATOM     28  H   UNL     1       9.853  -2.935  24.245  0.00  0.00    +0.149 HD
ATOM     29  C   UNL     1       8.992  -1.156  24.890  0.00  0.00    +0.217 C 
ATOM     30  O   UNL     1       8.056  -0.606  25.451  0.00  0.00    -0.275 OA
BRANCH  29  31
ATOM     31  C   UNL     1      10.193  -0.406  24.318  0.00  0.00    +0.075 C 
ATOM     32  C   UNL     1       9.997   1.117  24.372  0.00  0.00    +0.018 C 
ATOM     33  C   UNL     1       8.972   1.630  23.357  0.00  0.00    +0.076 C 
ATOM     34  C   UNL     1       9.255   1.122  21.954  0.00  0.00    +0.249 C 
ATOM     35  F   UNL     1      10.383   1.719  21.487  0.00  0.00    -0.206 F 
ATOM     36  F   UNL     1       8.251   1.491  21.122  0.00  0.00    -0.206 F 
ATOM     37  C   UNL     1       9.438  -0.385  21.891  0.00  0.00    +0.076 C 
ATOM     38  C   UNL     1      10.505  -0.856  22.878  0.00  0.00    +0.018 C 
ENDBRANCH  29  31
ENDBRANCH  20  27
ENDBRANCH   1  20
TORSDOF 8
ENDMDL
MODEL 7
REMARK VINA RESULT:      -7.5      2.386      4.914
REMARK  Name = 
REMARK  11 active torsions:
REMARK  status: ('A' for Active; 'I' for Inactive)
REMARK    1  A    between atoms: C_1  and  C_2
REMARK    2  A    between atoms: C_5  and  C_38
REMARK    3  A    between atoms: N_6  and  C_7
REMARK    4  A    between atoms: N_16  and  C_17
REMARK    5  A    between atoms: C_17  and  C_18
REMARK    6  A    between atoms: C_18  and  C_19
REMARK    7  A    between atoms: C_19  and  C_21
REMARK    8  A    between atoms: C_19  and  N_27
REMARK    9  A    between atoms: C_28  and  C_30
REMARK   10  A    between atoms: C_38  and  C_39
REMARK   11  A    between atoms: C_38  and  C_40
REMARK                            x       y       z     vdW  Elec       q    Type
REMARK                         _______ _______ _______ _____ _____    ______ ____
ROOT
ATOM      1  C   UNL     1       9.603  -2.452  23.631  0.00  0.00    +0.042 C 
ENDROOT
BRANCH   1   2
ATOM      2  C   UNL     1       8.558  -3.564  23.735  0.00  0.00    +0.087 C 
BRANCH   2   6
ATOM      3  C   UNL     1       5.593  -5.280  24.063  0.00  0.00    +0.093 C 
ATOM      4  C   UNL     1       5.642  -3.726  24.088  0.00  0.00    +0.044 C 
ATOM      5  C   UNL     1       6.321  -3.143  22.818  0.00  0.00    +0.059 C 
ATOM      6  N   UNL     1       7.651  -3.735  22.590  0.00  0.00    -0.296 NA
ATOM      7  C   UNL     1       7.333  -5.109  22.179  0.00  0.00    +0.059 C 
ATOM      8  C   UNL     1       6.251  -4.882  21.123  0.00  0.00    +0.020 C 
ATOM      9  C   UNL     1       5.587  -3.569  21.536  0.00  0.00    +0.020 C 
ATOM     10  C   UNL     1       6.791  -5.933  23.348  0.00  0.00    +0.044 C 
BRANCH   3  13
ATOM     11  C   UNL     1       7.120  -5.440  26.960  0.00  0.00    +0.088 C 
ATOM     12  C   UNL     1       5.814  -6.002  26.544  0.00  0.00    +0.131 A 
ATOM     13  N   UNL     1       5.179  -5.923  25.313  0.00  0.00    -0.312 N 
ATOM     14  C   UNL     1       4.104  -6.799  25.423  0.00  0.00    +0.136 A 
ATOM     15  N   UNL     1       4.049  -7.261  26.653  0.00  0.00    -0.134 NA
ATOM     16  N   UNL     1       5.101  -6.762  27.348  0.00  0.00    -0.135 NA
BRANCH  14  17
ATOM     17  C   UNL     1       3.182  -7.219  24.315  0.00  0.00    +0.051 C 
ATOM     18  C   UNL     1       2.286  -6.057  23.872  0.00  0.00    +0.015 C 
ATOM     19  C   UNL     1       2.292  -8.386  24.755  0.00  0.00    +0.015 C 
ENDBRANCH  14  17
ENDBRANCH   3  13
ENDBRANCH   2   6
ENDBRANCH   1   2
BRANCH   1  20
ATOM     20  C   UNL     1       9.270  -1.154  24.420  0.00  0.00    +0.104 C 
BRANCH  20  21
ATOM     21  C   UNL     1       7.922  -1.013  25.131  0.00  0.00    -0.027 A 
ATOM     22  C   UNL     1       7.743  -1.651  26.373  0.00  0.00    +0.005 A 
ATOM     23  C   UNL     1       6.551  -1.528  27.097  0.00  0.00    +0.000 A 
ATOM     24  C   UNL     1       5.496  -0.778  26.586  0.00  0.00    +0.000 A 
ATOM     25  C   UNL     1       5.657  -0.117  25.377  0.00  0.00    +0.000 A 
ATOM     26  C   UNL     1       6.872  -0.195  24.685  0.00  0.00    +0.005 A 
ENDBRANCH  20  21
BRANCH  20  27
ATOM     27  N   UNL     1       9.503   0.039  23.626  0.00  0.00    -0.308 N 
ATOM     28  H   UNL     1       8.914   0.198  22.820  0.00  0.00    +0.149 HD
ATOM     29  C   UNL     1      10.455   0.971  23.982  0.00  0.00    +0.217 C 
ATOM     30  O   UNL     1      11.211   0.815  24.930  0.00  0.00    -0.275 OA
BRANCH  29  31
ATOM     31  C   UNL     1      10.451   2.217  23.100  0.00  0.00    +0.075 C 
ATOM     32  C   UNL     1       9.817   3.422  23.812  0.00  0.00    +0.018 C 
ATOM     33  C   UNL     1       8.298   3.307  23.957  0.00  0.00    +0.076 C 
ATOM     34  C   UNL     1       7.622   2.981  22.637  0.00  0.00    +0.249 C 
ATOM     35  F   UNL     1       7.709   4.061  21.817  0.00  0.00    -0.206 F 
ATOM     36  F   UNL     1       6.301   2.759  22.841  0.00  0.00    -0.206 F 
ATOM     37  C   UNL     1       8.235   1.783  21.933  0.00  0.00    +0.076 C 
ATOM     38  C   UNL     1       9.743   1.955  21.757  0.00  0.00    +0.018 C 
ENDBRANCH  29  31
ENDBRANCH  20  27
ENDBRANCH   1  20
TORSDOF 8
ENDMDL
MODEL 8
REMARK VINA RESULT:      -7.3      3.571      7.383
REMARK  Name = 
REMARK  11 active torsions:
REMARK  status: ('A' for Active; 'I' for Inactive)
REMARK    1  A    between atoms: C_1  and  C_2
REMARK    2  A    between atoms: C_5  and  C_38
REMARK    3  A    between atoms: N_6  and  C_7
REMARK    4  A    between atoms: N_16  and  C_17
REMARK    5  A    between atoms: C_17  and  C_18
REMARK    6  A    between atoms: C_18  and  C_19
REMARK    7  A    between atoms: C_19  and  C_21
REMARK    8  A    between atoms: C_19  and  N_27
REMARK    9  A    between atoms: C_28  and  C_30
REMARK   10  A    between atoms: C_38  and  C_39
REMARK   11  A    between atoms: C_38  and  C_40
REMARK                            x       y       z     vdW  Elec       q    Type
REMARK                         _______ _______ _______ _____ _____    ______ ____
ROOT
ATOM      1  C   UNL     1       6.898  -1.050  26.175  0.00  0.00    +0.042 C 
ENDROOT
BRANCH   1   2
ATOM      2  C   UNL     1       7.091  -0.174  24.935  0.00  0.00    +0.087 C 
BRANCH   2   6
ATOM      3  C   UNL     1       9.390   2.000  23.583  0.00  0.00    +0.093 C 
ATOM      4  C   UNL     1       9.766   1.034  24.743  0.00  0.00    +0.044 C 
ATOM      5  C   UNL     1       9.467  -0.448  24.387  0.00  0.00    +0.059 C 
ATOM      6  N   UNL     1       8.075  -0.633  23.942  0.00  0.00    -0.296 NA
ATOM      7  C   UNL     1       8.061   0.019  22.626  0.00  0.00    +0.059 C 
ATOM      8  C   UNL     1       9.307  -0.572  21.966  0.00  0.00    +0.020 C 
ATOM      9  C   UNL     1      10.237  -0.897  23.135  0.00  0.00    +0.020 C 
ATOM     10  C   UNL     1       8.178   1.539  22.752  0.00  0.00    +0.044 C 
BRANCH   3  13
ATOM     11  C   UNL     1      11.804   4.190  23.229  0.00  0.00    +0.088 C 
ATOM     12  C   UNL     1      10.436   4.366  23.768  0.00  0.00    +0.131 A 
ATOM     13  N   UNL     1       9.423   3.428  23.909  0.00  0.00    -0.312 N 
ATOM     14  C   UNL     1       8.450   4.082  24.658  0.00  0.00    +0.136 A 
ATOM     15  N   UNL     1       8.814   5.332  24.839  0.00  0.00    -0.134 NA
ATOM     16  N   UNL     1      10.037   5.510  24.282  0.00  0.00    -0.135 NA
BRANCH  14  17
ATOM     17  C   UNL     1       7.209   3.465  25.237  0.00  0.00    +0.051 C 
ATOM     18  C   UNL     1       5.949   4.159  24.709  0.00  0.00    +0.015 C 
ATOM     19  C   UNL     1       7.216   3.554  26.766  0.00  0.00    +0.015 C 
ENDBRANCH  14  17
ENDBRANCH   3  13
ENDBRANCH   2   6
ENDBRANCH   1   2
BRANCH   1  20
ATOM     20  C   UNL     1       5.974  -2.285  25.975  0.00  0.00    +0.104 C 
BRANCH  20  21
ATOM     21  C   UNL     1       6.158  -3.530  26.845  0.00  0.00    -0.027 A 
ATOM     22  C   UNL     1       5.238  -3.770  27.885  0.00  0.00    +0.005 A 
ATOM     23  C   UNL     1       5.323  -4.912  28.691  0.00  0.00    +0.000 A 
ATOM     24  C   UNL     1       6.344  -5.835  28.491  0.00  0.00    +0.000 A 
ATOM     25  C   UNL     1       7.247  -5.636  27.457  0.00  0.00    +0.000 A 
ATOM     26  C   UNL     1       7.123  -4.523  26.616  0.00  0.00    +0.005 A 
ENDBRANCH  20  21
BRANCH  20  27
ATOM     27  N   UNL     1       5.910  -2.696  24.584  0.00  0.00    -0.308 N 
ATOM     28  H   UNL     1       6.740  -2.589  24.017  0.00  0.00    +0.149 HD
ATOM     29  C   UNL     1       4.778  -3.275  24.051  0.00  0.00    +0.217 C 
ATOM     30  O   UNL     1       3.740  -3.403  24.684  0.00  0.00    -0.275 OA
BRANCH  29  31
ATOM     31  C   UNL     1       4.958  -3.761  22.615  0.00  0.00    +0.075 C 
ATOM     32  C   UNL     1       4.851  -5.291  22.509  0.00  0.00    +0.018 C 
ATOM     33  C   UNL     1       6.062  -6.023  23.094  0.00  0.00    +0.076 C 
ATOM     34  C   UNL     1       7.372  -5.486  22.546  0.00  0.00    +0.249 C 
ATOM     35  F   UNL     1       7.482  -5.837  21.238  0.00  0.00    -0.206 F 
ATOM     36  F   UNL     1       8.412  -6.071  23.189  0.00  0.00    -0.206 F 
ATOM     37  C   UNL     1       7.491  -3.976  22.658  0.00  0.00    +0.076 C 
ATOM     38  C   UNL     1       6.293  -3.276  22.018  0.00  0.00    +0.018 C 
ENDBRANCH  29  31
ENDBRANCH  20  27
ENDBRANCH   1  20
TORSDOF 8
ENDMDL
MODEL 9
REMARK VINA RESULT:      -7.3      3.479      6.986
REMARK  Name = 
REMARK  11 active torsions:
REMARK  status: ('A' for Active; 'I' for Inactive)
REMARK    1  A    between atoms: C_1  and  C_2
REMARK    2  A    between atoms: C_5  and  C_38
REMARK    3  A    between atoms: N_6  and  C_7
REMARK    4  A    between atoms: N_16  and  C_17
REMARK    5  A    between atoms: C_17  and  C_18
REMARK    6  A    between atoms: C_18  and  C_19
REMARK    7  A    between atoms: C_19  and  C_21
REMARK    8  A    between atoms: C_19  and  N_27
REMARK    9  A    between atoms: C_28  and  C_30
REMARK   10  A    between atoms: C_38  and  C_39
REMARK   11  A    between atoms: C_38  and  C_40
REMARK                            x       y       z     vdW  Elec       q    Type
REMARK                         _______ _______ _______ _____ _____    ______ ____
ROOT
ATOM      1  C   UNL     1       9.366  -2.468  24.223  0.00  0.00    +0.042 C 
ENDROOT
BRANCH   1   2
ATOM      2  C   UNL     1       8.607  -1.142  24.147  0.00  0.00    +0.087 C 
BRANCH   2   6
ATOM      3  C   UNL     1       8.232   2.270  24.391  0.00  0.00    +0.093 C 
ATOM      4  C   UNL     1       9.623   1.591  24.539  0.00  0.00    +0.044 C 
ATOM      5  C   UNL     1       9.977   0.713  23.308  0.00  0.00    +0.059 C 
ATOM      6  N   UNL     1       8.914  -0.263  23.008  0.00  0.00    -0.296 NA
ATOM      7  C   UNL     1       7.827   0.582  22.495  0.00  0.00    +0.059 C 
ATOM      8  C   UNL     1       8.561   1.459  21.481  0.00  0.00    +0.020 C 
ATOM      9  C   UNL     1       9.992   1.536  22.009  0.00  0.00    +0.020 C 
ATOM     10  C   UNL     1       7.206   1.432  23.605  0.00  0.00    +0.044 C 
BRANCH   3  13
ATOM     11  C   UNL     1       8.681   5.331  25.473  0.00  0.00    +0.088 C 
ATOM     12  C   UNL     1       7.899   4.222  26.065  0.00  0.00    +0.131 A 
ATOM     13  N   UNL     1       7.716   2.930  25.593  0.00  0.00    -0.312 N 
ATOM     14  C   UNL     1       7.084   2.267  26.640  0.00  0.00    +0.136 A 
ATOM     15  N   UNL     1       6.817   3.128  27.596  0.00  0.00    -0.134 NA
ATOM     16  N   UNL     1       7.313   4.338  27.238  0.00  0.00    -0.135 NA
BRANCH  14  17
ATOM     17  C   UNL     1       6.803   0.794  26.719  0.00  0.00    +0.051 C 
ATOM     18  C   UNL     1       5.305   0.526  26.898  0.00  0.00    +0.015 C 
ATOM     19  C   UNL     1       7.561   0.154  27.886  0.00  0.00    +0.015 C 
ENDBRANCH  14  17
ENDBRANCH   3  13
ENDBRANCH   2   6
ENDBRANCH   1   2
BRANCH   1  20
ATOM     20  C   UNL     1       8.477  -3.730  24.407  0.00  0.00    +0.104 C 
BRANCH  20  21
ATOM     21  C   UNL     1       7.646  -4.262  23.237  0.00  0.00    -0.027 A 
ATOM     22  C   UNL     1       7.746  -5.626  22.902  0.00  0.00    +0.005 A 
ATOM     23  C   UNL     1       6.982  -6.186  21.870  0.00  0.00    +0.000 A 
ATOM     24  C   UNL     1       6.112  -5.391  21.133  0.00  0.00    +0.000 A 
ATOM     25  C   UNL     1       5.975  -4.050  21.460  0.00  0.00    +0.000 A 
ATOM     26  C   UNL     1       6.696  -3.507  22.531  0.00  0.00    +0.005 A 
ENDBRANCH  20  21
BRANCH  20  27
ATOM     27  N   UNL     1       7.620  -3.624  25.574  0.00  0.00    -0.308 N 
ATOM     28  H   UNL     1       7.097  -2.769  25.706  0.00  0.00    +0.149 HD
ATOM     29  C   UNL     1       7.463  -4.674  26.455  0.00  0.00    +0.217 C 
ATOM     30  O   UNL     1       8.091  -5.718  26.358  0.00  0.00    -0.275 OA
BRANCH  29  31
ATOM     31  C   UNL     1       6.418  -4.413  27.537  0.00  0.00    +0.075 C 
ATOM     32  C   UNL     1       5.873  -5.721  28.135  0.00  0.00    +0.018 C 
ATOM     33  C   UNL     1       4.951  -6.483  27.181  0.00  0.00    +0.076 C 
ATOM     34  C   UNL     1       3.858  -5.596  26.614  0.00  0.00    +0.249 C 
ATOM     35  F   UNL     1       2.981  -5.285  27.605  0.00  0.00    -0.206 F 
ATOM     36  F   UNL     1       3.152  -6.278  25.678  0.00  0.00    -0.206 F 
ATOM     37  C   UNL     1       4.389  -4.307  26.009  0.00  0.00    +0.076 C 
ATOM     38  C   UNL     1       5.261  -3.546  27.006  0.00  0.00    +0.018 C 
ENDBRANCH  29  31
ENDBRANCH  20  27
ENDBRANCH   1  20
TORSDOF 8
ENDMDL
