MODEL 1
REMARK VINA RESULT:      -7.3      0.000      0.000
REMARK  Name = 
REMARK  16 active torsions:
REMARK  status: ('A' for Active; 'I' for Inactive)
REMARK    1  A    between atoms: C_1  and  C_2
REMARK    2  A    between atoms: C_3  and  C_9
REMARK    3  A    between atoms: C_7  and  O_8
REMARK    4  A    between atoms: N_11  and  C_12
REMARK    5  A    between atoms: C_12  and  C_13
REMARK    6  A    between atoms: C_12  and  C_21
REMARK    7  A    between atoms: C_13  and  S_14
REMARK    8  A    between atoms: S_14  and  C_15
REMARK    9  A    between atoms: C_21  and  C_22
REMARK   10  A    between atoms: C_21  and  O_40
REMARK   11  A    between atoms: C_22  and  N_23
REMARK   12  A    between atoms: C_32  and  C_33
REMARK   13  A    between atoms: N_35  and  C_36
REMARK   14  A    between atoms: C_36  and  C_37
REMARK   15  A    between atoms: C_36  and  C_38
REMARK   16  A    between atoms: C_36  and  C_39
REMARK                            x       y       z     vdW  Elec       q    Type
REMARK                         _______ _______ _______ _____ _____    ______ ____
ROOT
ATOM      1  C   UNL     1       8.732  -1.972  23.034  0.00  0.00    +0.113 C 
ENDROOT
BRANCH   1   3
ATOM      2  C   UNL     1       8.341  -2.071  25.806  0.00  0.00    +0.245 C 
ATOM      3  N   UNL     1       8.847  -1.789  24.548  0.00  0.00    -0.305 N 
ATOM      4  H   UNL     1       9.475  -1.013  24.743  0.00  0.00    +0.149 HD
ATOM      5  O   UNL     1       8.793  -1.248  26.627  0.00  0.00    -0.270 OA
BRANCH   2  12
ATOM      6  C   UNL     1       8.729  -5.316  26.003  0.00  0.00    +0.048 C 
ATOM      7  C   UNL     1       7.722  -4.496  26.731  0.00  0.00    +0.003 A 
ATOM      8  C   UNL     1       6.892  -5.189  27.664  0.00  0.00    +0.120 A 
ATOM      9  C   UNL     1       5.662  -4.703  28.081  0.00  0.00    +0.046 A 
ATOM     10  C   UNL     1       5.269  -3.461  27.619  0.00  0.00    +0.004 A 
ATOM     11  C   UNL     1       6.176  -2.688  26.868  0.00  0.00    +0.013 A 
ATOM     12  C   UNL     1       7.460  -3.152  26.434  0.00  0.00    +0.043 A 
BRANCH   8  13
ATOM     13  O   UNL     1       7.315  -6.399  28.156  0.00  0.00    -0.506 OA
ATOM     14  H   UNL     1       6.543  -6.869  28.519  0.00  0.00    +0.292 HD
ENDBRANCH   8  13
ENDBRANCH   2  12
ENDBRANCH   1   3
BRANCH   1  15
ATOM     15  C   UNL     1       9.084  -0.650  22.196  0.00  0.00    +0.149 C 
BRANCH  15  16
ATOM     16  O   UNL     1       9.919  -0.921  21.060  0.00  0.00    -0.389 OA
ATOM     17  H   UNL     1      10.009  -1.893  20.966  0.00  0.00    +0.210 HD
ENDBRANCH  15  16
BRANCH  15  18
ATOM     18  C   UNL     1       9.817   0.419  23.038  0.00  0.00    +0.118 C 
BRANCH  18  19
ATOM     19  N   UNL     1       9.078   1.585  23.537  0.00  0.00    -0.289 NA
ATOM     20  C   UNL     1       7.690   1.710  23.102  0.00  0.00    +0.143 C 
ATOM     21  C   UNL     1       7.479   2.981  22.259  0.00  0.00    +0.032 C 
ATOM     22  C   UNL     1       7.866   4.230  23.046  0.00  0.00    -0.005 C 
ATOM     23  C   UNL     1       9.351   4.163  23.432  0.00  0.00    +0.006 C 
ATOM     24  C   UNL     1       9.643   5.348  24.388  0.00  0.00    +0.005 C 
ATOM     25  C   UNL     1       9.218   6.716  23.824  0.00  0.00    +0.000 C 
ATOM     26  C   UNL     1       7.797   6.721  23.265  0.00  0.00    +0.000 C 
ATOM     27  C   UNL     1       7.571   5.549  22.308  0.00  0.00    +0.004 C 
ATOM     28  C   UNL     1       9.737   2.786  24.060  0.00  0.00    +0.089 C 
BRANCH  20  29
ATOM     29  C   UNL     1       6.694   1.538  24.331  0.00  0.00    +0.231 C 
ATOM     30  N   UNL     1       5.451   2.166  24.206  0.00  0.00    -0.309 N 
ATOM     31  H   UNL     1       5.320   2.630  23.321  0.00  0.00    +0.149 HD
ATOM     32  O   UNL     1       7.076   1.030  25.375  0.00  0.00    -0.274 OA
BRANCH  30  33
ATOM     33  C   UNL     1       4.554   2.537  25.345  0.00  0.00    +0.026 C 
ATOM     34  C   UNL     1       4.185   1.361  26.276  0.00  0.00    +0.031 C 
ATOM     35  C   UNL     1       3.204   3.096  24.826  0.00  0.00    +0.031 C 
ATOM     36  C   UNL     1       5.238   3.634  26.175  0.00  0.00    +0.031 C 
ENDBRANCH  30  33
ENDBRANCH  20  29
ENDBRANCH  18  19
ENDBRANCH  15  18
ENDBRANCH   1  15
BRANCH   1  37
ATOM     37  C   UNL     1       7.225  -2.414  22.706  0.00  0.00    +0.099 C 
BRANCH  37  38
ATOM     38  S   UNL     1       6.975  -4.254  22.530  0.00  0.00    -0.123 S 
BRANCH  38  39
ATOM     39  C   UNL     1       5.609  -4.617  23.637  0.00  0.00    +0.008 A 
ATOM     40  C   UNL     1       5.555  -5.894  24.197  0.00  0.00    +0.015 A 
ATOM     41  C   UNL     1       4.431  -6.323  24.909  0.00  0.00    +0.001 A 
ATOM     42  C   UNL     1       3.338  -5.476  25.074  0.00  0.00    +0.000 A 
ATOM     43  C   UNL     1       3.370  -4.199  24.518  0.00  0.00    +0.001 A 
ATOM     44  C   UNL     1       4.497  -3.771  23.794  0.00  0.00    +0.015 A 
ENDBRANCH  38  39
ENDBRANCH  37  38
ENDBRANCH   1  37
TORSDOF 12
ENDMDL
MODEL 2
REMARK VINA RESULT:      -7.1      2.538      8.340
REMARK  Name = 
REMARK  16 active torsions:
REMARK  status: ('A' for Active; 'I' for Inactive)
REMARK    1  A    between atoms: C_1  and  C_2
REMARK    2  A    between atoms: C_3  and  C_9
REMARK    3  A    between atoms: C_7  and  O_8
REMARK    4  A    between atoms: N_11  and  C_12
REMARK    5  A    between atoms: C_12  and  C_13
REMARK    6  A    between atoms: C_12  and  C_21
REMARK    7  A    between atoms: C_13  and  S_14
REMARK    8  A    between atoms: S_14  and  C_15
REMARK    9  A    between atoms: C_21  and  C_22
REMARK   10  A    between atoms: C_21  and  O_40
REMARK   11  A    between atoms: C_22  and  N_23
REMARK   12  A    between atoms: C_32  and  C_33
REMARK   13  A    between atoms: N_35  and  C_36
REMARK   14  A    between atoms: C_36  and  C_37
REMARK   15  A    between atoms: C_36  and  C_38
REMARK   16  A    between atoms: C_36  and  C_39
REMARK                            x       y       z     vdW  Elec       q    Type
REMARK                         _______ _______ _______ _____ _____    ______ ____
ROOT
ATOM      1  C   UNL     1       7.018  -0.216  27.224  0.00  0.00    +0.113 C 
ENDROOT
BRANCH   1   3
ATOM      2  C   UNL     1       8.779  -1.188  25.275  0.00  0.00    +0.245 C 
ATOM      3  N   UNL     1       8.022  -1.048  26.426  0.00  0.00    -0.305 N 
ATOM      4  H   UNL     1       8.068  -1.984  26.823  0.00  0.00    +0.149 HD
ATOM      5  O   UNL     1       9.143  -2.376  25.161  0.00  0.00    -0.270 OA
BRANCH   2  12
ATOM      6  C   UNL     1       8.635  -1.382  22.010  0.00  0.00    +0.048 C 
ATOM      7  C   UNL     1       9.078  -0.207  22.811  0.00  0.00    +0.003 A 
ATOM      8  C   UNL     1       9.401   0.976  22.080  0.00  0.00    +0.120 A 
ATOM      9  C   UNL     1      10.219   1.973  22.589  0.00  0.00    +0.046 A 
ATOM     10  C   UNL     1      10.675   1.834  23.886  0.00  0.00    +0.004 A 
ATOM     11  C   UNL     1      10.189   0.774  24.677  0.00  0.00    +0.013 A 
ATOM     12  C   UNL     1       9.331  -0.264  24.188  0.00  0.00    +0.043 A 
BRANCH   8  13
ATOM     13  O   UNL     1       8.901   1.128  20.811  0.00  0.00    -0.506 OA
ATOM     14  H   UNL     1       9.359   0.501  20.223  0.00  0.00    +0.292 HD
ENDBRANCH   8  13
ENDBRANCH   2  12
ENDBRANCH   1   3
BRANCH   1  15
ATOM     15  C   UNL     1       5.520  -0.790  27.176  0.00  0.00    +0.149 C 
BRANCH  15  16
ATOM     16  O   UNL     1       4.631  -0.093  28.062  0.00  0.00    -0.389 OA
ATOM     17  H   UNL     1       4.179   0.614  27.554  0.00  0.00    +0.210 HD
ENDBRANCH  15  16
BRANCH  15  18
ATOM     18  C   UNL     1       5.438  -2.286  27.555  0.00  0.00    +0.118 C 
BRANCH  18  19
ATOM     19  N   UNL     1       5.334  -3.301  26.499  0.00  0.00    -0.289 NA
ATOM     20  C   UNL     1       5.977  -4.584  26.765  0.00  0.00    +0.143 C 
ATOM     21  C   UNL     1       7.114  -4.859  25.764  0.00  0.00    +0.032 C 
ATOM     22  C   UNL     1       6.593  -4.855  24.329  0.00  0.00    -0.005 C 
ATOM     23  C   UNL     1       5.995  -3.479  23.997  0.00  0.00    +0.006 C 
ATOM     24  C   UNL     1       5.309  -3.586  22.610  0.00  0.00    +0.005 C 
ATOM     25  C   UNL     1       6.230  -4.136  21.507  0.00  0.00    +0.000 C 
ATOM     26  C   UNL     1       6.970  -5.407  21.920  0.00  0.00    +0.000 C 
ATOM     27  C   UNL     1       7.651  -5.239  23.280  0.00  0.00    +0.004 C 
ATOM     28  C   UNL     1       5.016  -2.976  25.106  0.00  0.00    +0.089 C 
BRANCH  20  29
ATOM     29  C   UNL     1       4.896  -5.744  26.899  0.00  0.00    +0.231 C 
ATOM     30  N   UNL     1       3.619  -5.350  27.309  0.00  0.00    -0.309 N 
ATOM     31  H   UNL     1       3.525  -4.355  27.438  0.00  0.00    +0.149 HD
ATOM     32  O   UNL     1       5.229  -6.918  26.809  0.00  0.00    -0.274 OA
BRANCH  30  33
ATOM     33  C   UNL     1       2.598  -6.249  27.933  0.00  0.00    +0.026 C 
ATOM     34  C   UNL     1       3.130  -7.105  29.103  0.00  0.00    +0.031 C 
ATOM     35  C   UNL     1       2.045  -7.259  26.895  0.00  0.00    +0.031 C 
ATOM     36  C   UNL     1       1.427  -5.390  28.435  0.00  0.00    +0.031 C 
ENDBRANCH  30  33
ENDBRANCH  20  29
ENDBRANCH  18  19
ENDBRANCH  15  18
ENDBRANCH   1  15
BRANCH   1  37
ATOM     37  C   UNL     1       7.027   1.272  26.624  0.00  0.00    +0.099 C 
BRANCH  37  38
ATOM     38  S   UNL     1       6.026   1.488  25.065  0.00  0.00    -0.123 S 
BRANCH  38  39
ATOM     39  C   UNL     1       6.890   2.780  24.167  0.00  0.00    +0.008 A 
ATOM     40  C   UNL     1       7.729   3.623  24.898  0.00  0.00    +0.015 A 
ATOM     41  C   UNL     1       8.284   4.769  24.320  0.00  0.00    +0.001 A 
ATOM     42  C   UNL     1       8.009   5.090  22.993  0.00  0.00    +0.000 A 
ATOM     43  C   UNL     1       7.169   4.264  22.247  0.00  0.00    +0.001 A 
ATOM     44  C   UNL     1       6.604   3.117  22.833  0.00  0.00    +0.015 A 
ENDBRANCH  38  39
ENDBRANCH  37  38
ENDBRANCH   1  37
TORSDOF 12
ENDMDL
MODEL 3
REMARK VINA RESULT:      -7.1      2.531      8.167
REMARK  Name = 
REMARK  16 active torsions:
REMARK  status: ('A' for Active; 'I' for Inactive)
REMARK    1  A    between atoms: C_1  and  C_2
REMARK    2  A    between atoms: C_3  and  C_9
REMARK    3  A    between atoms: C_7  and  O_8
REMARK    4  A    between atoms: N_11  and  C_12
REMARK    5  A    between atoms: C_12  and  C_13
REMARK    6  A    between atoms: C_12  and  C_21
REMARK    7  A    between atoms: C_13  and  S_14
REMARK    8  A    between atoms: S_14  and  C_15
REMARK    9  A    between atoms: C_21  and  C_22
REMARK   10  A    between atoms: C_21  and  O_40
REMARK   11  A    between atoms: C_22  and  N_23
REMARK   12  A    between atoms: C_32  and  C_33
REMARK   13  A    between atoms: N_35  and  C_36
REMARK   14  A    between atoms: C_36  and  C_37
REMARK   15  A    between atoms: C_36  and  C_38
REMARK   16  A    between atoms: C_36  and  C_39
REMARK                            x       y       z     vdW  Elec       q    Type
REMARK                         _______ _______ _______ _____ _____    ______ ____
ROOT
ATOM      1  C   UNL     1       8.765  -2.888  24.617  0.00  0.00    +0.113 C 
ENDROOT
BRANCH   1   3
ATOM      2  C   UNL     1       8.168  -0.657  26.200  0.00  0.00    +0.245 C 
ATOM      3  N   UNL     1       8.492  -1.936  25.782  0.00  0.00    -0.305 N 
ATOM      4  H   UNL     1       8.822  -2.362  26.645  0.00  0.00    +0.149 HD
ATOM      5  O   UNL     1       8.461  -0.528  27.406  0.00  0.00    -0.270 OA
BRANCH   2  12
ATOM      6  C   UNL     1       6.390  -0.307  23.473  0.00  0.00    +0.048 C 
ATOM      7  C   UNL     1       6.538   0.689  24.570  0.00  0.00    +0.003 A 
ATOM      8  C   UNL     1       5.767   1.885  24.452  0.00  0.00    +0.120 A 
ATOM      9  C   UNL     1       6.098   3.060  25.111  0.00  0.00    +0.046 A 
ATOM     10  C   UNL     1       7.180   3.036  25.969  0.00  0.00    +0.004 A 
ATOM     11  C   UNL     1       7.812   1.807  26.245  0.00  0.00    +0.013 A 
ATOM     12  C   UNL     1       7.486   0.572  25.595  0.00  0.00    +0.043 A 
BRANCH   8  13
ATOM     13  O   UNL     1       4.663   1.884  23.636  0.00  0.00    -0.506 OA
ATOM     14  H   UNL     1       4.432   0.959  23.435  0.00  0.00    +0.292 HD
ENDBRANCH   8  13
ENDBRANCH   2  12
ENDBRANCH   1   3
BRANCH   1  15
ATOM     15  C   UNL     1       8.985  -4.413  25.068  0.00  0.00    +0.149 C 
BRANCH  15  16
ATOM     16  O   UNL     1      10.296  -4.902  24.745  0.00  0.00    -0.389 OA
ATOM     17  H   UNL     1      10.918  -4.604  25.441  0.00  0.00    +0.210 HD
ENDBRANCH  15  16
BRANCH  15  18
ATOM     18  C   UNL     1       7.977  -5.385  24.414  0.00  0.00    +0.118 C 
BRANCH  18  19
ATOM     19  N   UNL     1       6.539  -5.213  24.654  0.00  0.00    -0.289 NA
ATOM     20  C   UNL     1       6.104  -5.255  26.046  0.00  0.00    +0.143 C 
ATOM     21  C   UNL     1       5.158  -6.442  26.303  0.00  0.00    +0.032 C 
ATOM     22  C   UNL     1       3.928  -6.367  25.402  0.00  0.00    -0.005 C 
ATOM     23  C   UNL     1       4.359  -6.418  23.928  0.00  0.00    +0.006 C 
ATOM     24  C   UNL     1       3.104  -6.143  23.060  0.00  0.00    +0.005 C 
ATOM     25  C   UNL     1       1.916  -7.067  23.384  0.00  0.00    +0.000 C 
ATOM     26  C   UNL     1       1.615  -7.159  24.878  0.00  0.00    +0.000 C 
ATOM     27  C   UNL     1       2.880  -7.459  25.684  0.00  0.00    +0.004 C 
ATOM     28  C   UNL     1       5.524  -5.424  23.619  0.00  0.00    +0.089 C 
BRANCH  20  29
ATOM     29  C   UNL     1       5.552  -3.836  26.511  0.00  0.00    +0.231 C 
ATOM     30  N   UNL     1       5.003  -3.781  27.795  0.00  0.00    -0.309 N 
ATOM     31  H   UNL     1       5.056  -4.654  28.296  0.00  0.00    +0.149 HD
ATOM     32  O   UNL     1       5.469  -2.910  25.716  0.00  0.00    -0.274 OA
BRANCH  30  33
ATOM     33  C   UNL     1       4.041  -2.741  28.278  0.00  0.00    +0.026 C 
ATOM     34  C   UNL     1       4.531  -1.288  28.105  0.00  0.00    +0.031 C 
ATOM     35  C   UNL     1       3.761  -2.909  29.794  0.00  0.00    +0.031 C 
ATOM     36  C   UNL     1       2.712  -2.911  27.525  0.00  0.00    +0.031 C 
ENDBRANCH  30  33
ENDBRANCH  20  29
ENDBRANCH  18  19
ENDBRANCH  15  18
ENDBRANCH   1  15
BRANCH   1  37
ATOM     37  C   UNL     1      10.081  -2.372  23.859  0.00  0.00    +0.099 C 
BRANCH  37  38
ATOM     38  S   UNL     1       9.765  -1.605  22.189  0.00  0.00    -0.123 S 
BRANCH  38  39
ATOM     39  C   UNL     1       9.890   0.161  22.489  0.00  0.00    +0.008 A 
ATOM     40  C   UNL     1      10.621   0.576  23.603  0.00  0.00    +0.015 A 
ATOM     41  C   UNL     1      10.607   1.910  24.021  0.00  0.00    +0.001 A 
ATOM     42  C   UNL     1       9.860   2.857  23.324  0.00  0.00    +0.000 A 
ATOM     43  C   UNL     1       9.119   2.462  22.212  0.00  0.00    +0.001 A 
ATOM     44  C   UNL     1       9.125   1.118  21.798  0.00  0.00    +0.015 A 
ENDBRANCH  38  39
ENDBRANCH  37  38
ENDBRANCH   1  37
TORSDOF 12
ENDMDL
MODEL 4
REMARK VINA RESULT:      -7.0      1.775      2.343
REMARK  Name = 
REMARK  16 active torsions:
REMARK  status: ('A' for Active; 'I' for Inactive)
REMARK    1  A    between atoms: C_1  and  C_2
REMARK    2  A    between atoms: C_3  and  C_9
REMARK    3  A    between atoms: C_7  and  O_8
REMARK    4  A    between atoms: N_11  and  C_12
REMARK    5  A    between atoms: C_12  and  C_13
REMARK    6  A    between atoms: C_12  and  C_21
REMARK    7  A    between atoms: C_13  and  S_14
REMARK    8  A    between atoms: S_14  and  C_15
REMARK    9  A    between atoms: C_21  and  C_22
REMARK   10  A    between atoms: C_21  and  O_40
REMARK   11  A    between atoms: C_22  and  N_23
REMARK   12  A    between atoms: C_32  and  C_33
REMARK   13  A    between atoms: N_35  and  C_36
REMARK   14  A    between atoms: C_36  and  C_37
REMARK   15  A    between atoms: C_36  and  C_38
REMARK   16  A    between atoms: C_36  and  C_39
REMARK                            x       y       z     vdW  Elec       q    Type
REMARK                         _______ _______ _______ _____ _____    ______ ____
ROOT
ATOM      1  C   UNL     1      10.062  -0.686  23.851  0.00  0.00    +0.113 C 
ENDROOT
BRANCH   1   3
ATOM      2  C   UNL     1       8.757  -1.299  26.252  0.00  0.00    +0.245 C 
ATOM      3  N   UNL     1       9.620  -0.760  25.313  0.00  0.00    -0.305 N 
ATOM      4  H   UNL     1      10.024   0.022  25.823  0.00  0.00    +0.149 HD
ATOM      5  O   UNL     1       8.774  -0.595  27.282  0.00  0.00    -0.270 OA
BRANCH   2  12
ATOM      6  C   UNL     1       9.487  -4.479  25.982  0.00  0.00    +0.048 C 
ATOM      7  C   UNL     1       8.212  -3.901  26.490  0.00  0.00    +0.003 A 
ATOM      8  C   UNL     1       7.241  -4.829  26.975  0.00  0.00    +0.120 A 
ATOM      9  C   UNL     1       5.890  -4.525  27.063  0.00  0.00    +0.046 A 
ATOM     10  C   UNL     1       5.493  -3.244  26.730  0.00  0.00    +0.004 A 
ATOM     11  C   UNL     1       6.474  -2.271  26.452  0.00  0.00    +0.013 A 
ATOM     12  C   UNL     1       7.878  -2.545  26.369  0.00  0.00    +0.043 A 
BRANCH   8  13
ATOM     13  O   UNL     1       7.653  -6.082  27.353  0.00  0.00    -0.506 OA
ATOM     14  H   UNL     1       6.926  -6.708  27.182  0.00  0.00    +0.292 HD
ENDBRANCH   8  13
ENDBRANCH   2  12
ENDBRANCH   1   3
BRANCH   1  15
ATOM     15  C   UNL     1       9.624   0.669  23.112  0.00  0.00    +0.149 C 
BRANCH  15  16
ATOM     16  O   UNL     1      10.161   0.774  21.785  0.00  0.00    -0.389 OA
ATOM     17  H   UNL     1      11.133   0.878  21.851  0.00  0.00    +0.210 HD
ENDBRANCH  15  16
BRANCH  15  18
ATOM     18  C   UNL     1      10.072   1.940  23.871  0.00  0.00    +0.118 C 
BRANCH  18  19
ATOM     19  N   UNL     1       9.077   2.950  24.251  0.00  0.00    -0.289 NA
ATOM     20  C   UNL     1       7.788   2.448  24.719  0.00  0.00    +0.143 C 
ATOM     21  C   UNL     1       6.645   2.881  23.783  0.00  0.00    +0.032 C 
ATOM     22  C   UNL     1       6.574   4.401  23.671  0.00  0.00    -0.005 C 
ATOM     23  C   UNL     1       7.889   4.943  23.090  0.00  0.00    +0.006 C 
ATOM     24  C   UNL     1       7.842   6.490  23.181  0.00  0.00    +0.005 C 
ATOM     25  C   UNL     1       6.588   7.107  22.537  0.00  0.00    +0.000 C 
ATOM     26  C   UNL     1       5.290   6.432  22.978  0.00  0.00    +0.000 C 
ATOM     27  C   UNL     1       5.381   4.911  22.843  0.00  0.00    +0.004 C 
ATOM     28  C   UNL     1       9.142   4.344  23.806  0.00  0.00    +0.089 C 
BRANCH  20  29
ATOM     29  C   UNL     1       7.570   2.791  26.258  0.00  0.00    +0.231 C 
ATOM     30  N   UNL     1       7.038   1.767  27.046  0.00  0.00    -0.309 N 
ATOM     31  H   UNL     1       6.887   0.907  26.543  0.00  0.00    +0.149 HD
ATOM     32  O   UNL     1       7.707   3.937  26.665  0.00  0.00    -0.274 OA
BRANCH  30  33
ATOM     33  C   UNL     1       6.334   1.962  28.353  0.00  0.00    +0.026 C 
ATOM     34  C   UNL     1       5.332   3.136  28.370  0.00  0.00    +0.031 C 
ATOM     35  C   UNL     1       7.348   2.264  29.486  0.00  0.00    +0.031 C 
ATOM     36  C   UNL     1       5.590   0.666  28.710  0.00  0.00    +0.031 C 
ENDBRANCH  30  33
ENDBRANCH  20  29
ENDBRANCH  18  19
ENDBRANCH  15  18
ENDBRANCH   1  15
BRANCH   1  37
ATOM     37  C   UNL     1       9.417  -1.935  23.079  0.00  0.00    +0.099 C 
BRANCH  37  38
ATOM     38  S   UNL     1       7.679  -1.654  22.461  0.00  0.00    -0.123 S 
BRANCH  38  39
ATOM     39  C   UNL     1       6.812  -3.165  22.895  0.00  0.00    +0.008 A 
ATOM     40  C   UNL     1       7.541  -4.355  22.874  0.00  0.00    +0.015 A 
ATOM     41  C   UNL     1       6.905  -5.593  23.006  0.00  0.00    +0.001 A 
ATOM     42  C   UNL     1       5.523  -5.661  23.163  0.00  0.00    +0.000 A 
ATOM     43  C   UNL     1       4.777  -4.484  23.180  0.00  0.00    +0.001 A 
ATOM     44  C   UNL     1       5.415  -3.239  23.038  0.00  0.00    +0.015 A 
ENDBRANCH  38  39
ENDBRANCH  37  38
ENDBRANCH   1  37
TORSDOF 12
ENDMDL
MODEL 5
REMARK VINA RESULT:      -7.0      1.338      3.199
REMARK  Name = 
REMARK  16 active torsions:
REMARK  status: ('A' for Active; 'I' for Inactive)
REMARK    1  A    between atoms: C_1  and  C_2
REMARK    2  A    between atoms: C_3  and  C_9
REMARK    3  A    between atoms: C_7  and  O_8
REMARK    4  A    between atoms: N_11  and  C_12
REMARK    5  A    between atoms: C_12  and  C_13
REMARK    6  A    between atoms: C_12  and  C_21
REMARK    7  A    between atoms: C_13  and  S_14
REMARK    8  A    between atoms: S_14  and  C_15
REMARK    9  A    between atoms: C_21  and  C_22
REMARK   10  A    between atoms: C_21  and  O_40
REMARK   11  A    between atoms: C_22  and  N_23
REMARK   12  A    between atoms: C_32  and  C_33
REMARK   13  A    between atoms: N_35  and  C_36
REMARK   14  A    between atoms: C_36  and  C_37
REMARK   15  A    between atoms: C_36  and  C_38
REMARK   16  A    between atoms: C_36  and  C_39
REMARK                            x       y       z     vdW  Elec       q    Type
REMARK                         _______ _______ _______ _____ _____    ______ ____
ROOT
ATOM      1  C   UNL     1       9.262  -2.062  23.133  0.00  0.00    +0.113 C 
ENDROOT
BRANCH   1   3
ATOM      2  C   UNL     1       8.461  -1.962  25.814  0.00  0.00    +0.245 C 
ATOM      3  N   UNL     1       9.135  -1.749  24.624  0.00  0.00    -0.305 N 
ATOM      4  H   UNL     1       9.680  -0.916  24.837  0.00  0.00    +0.149 HD
ATOM      5  O   UNL     1       8.734  -1.044  26.614  0.00  0.00    -0.270 OA
BRANCH   2  12
ATOM      6  C   UNL     1       8.830  -5.212  25.970  0.00  0.00    +0.048 C 
ATOM      7  C   UNL     1       7.808  -4.399  26.686  0.00  0.00    +0.003 A 
ATOM      8  C   UNL     1       6.952  -5.103  27.586  0.00  0.00    +0.120 A 
ATOM      9  C   UNL     1       5.714  -4.617  27.980  0.00  0.00    +0.046 A 
ATOM     10  C   UNL     1       5.339  -3.366  27.529  0.00  0.00    +0.004 A 
ATOM     11  C   UNL     1       6.268  -2.585  26.812  0.00  0.00    +0.013 A 
ATOM     12  C   UNL     1       7.560  -3.049  26.403  0.00  0.00    +0.043 A 
BRANCH   8  13
ATOM     13  O   UNL     1       7.358  -6.321  28.070  0.00  0.00    -0.506 OA
ATOM     14  H   UNL     1       8.332  -6.347  28.058  0.00  0.00    +0.292 HD
ENDBRANCH   8  13
ENDBRANCH   2  12
ENDBRANCH   1   3
BRANCH   1  15
ATOM     15  C   UNL     1       8.999  -0.797  22.182  0.00  0.00    +0.149 C 
BRANCH  15  16
ATOM     16  O   UNL     1       9.491  -0.994  20.848  0.00  0.00    -0.389 OA
ATOM     17  H   UNL     1       8.729  -0.979  20.231  0.00  0.00    +0.210 HD
ENDBRANCH  15  16
BRANCH  15  18
ATOM     18  C   UNL     1       9.658   0.498  22.709  0.00  0.00    +0.118 C 
BRANCH  18  19
ATOM     19  N   UNL     1       8.822   1.660  23.036  0.00  0.00    -0.289 NA
ATOM     20  C   UNL     1       8.980   2.216  24.377  0.00  0.00    +0.143 C 
ATOM     21  C   UNL     1       7.677   2.099  25.190  0.00  0.00    +0.032 C 
ATOM     22  C   UNL     1       6.527   2.816  24.488  0.00  0.00    -0.005 C 
ATOM     23  C   UNL     1       6.281   2.181  23.111  0.00  0.00    +0.006 C 
ATOM     24  C   UNL     1       5.246   3.062  22.365  0.00  0.00    +0.005 C 
ATOM     25  C   UNL     1       3.955   3.308  23.165  0.00  0.00    +0.000 C 
ATOM     26  C   UNL     1       4.214   3.758  24.602  0.00  0.00    +0.000 C 
ATOM     27  C   UNL     1       5.219   2.840  25.300  0.00  0.00    +0.004 C 
ATOM     28  C   UNL     1       7.604   2.003  22.298  0.00  0.00    +0.089 C 
BRANCH  20  29
ATOM     29  C   UNL     1       9.610   3.676  24.314  0.00  0.00    +0.231 C 
ATOM     30  N   UNL     1       8.928   4.671  25.022  0.00  0.00    -0.309 N 
ATOM     31  H   UNL     1       8.124   4.330  25.525  0.00  0.00    +0.149 HD
ATOM     32  O   UNL     1      10.534   3.923  23.552  0.00  0.00    -0.274 OA
BRANCH  30  33
ATOM     33  C   UNL     1       9.035   6.141  24.763  0.00  0.00    +0.026 C 
ATOM     34  C   UNL     1      10.423   6.743  25.070  0.00  0.00    +0.031 C 
ATOM     35  C   UNL     1       8.034   6.931  25.644  0.00  0.00    +0.031 C 
ATOM     36  C   UNL     1       8.690   6.409  23.290  0.00  0.00    +0.031 C 
ENDBRANCH  30  33
ENDBRANCH  20  29
ENDBRANCH  18  19
ENDBRANCH  15  18
ENDBRANCH   1  15
BRANCH   1  37
ATOM     37  C   UNL     1       8.200  -3.211  22.780  0.00  0.00    +0.099 C 
BRANCH  37  38
ATOM     38  S   UNL     1       6.434  -2.626  22.653  0.00  0.00    -0.123 S 
BRANCH  38  39
ATOM     39  C   UNL     1       5.478  -3.959  23.382  0.00  0.00    +0.008 A 
ATOM     40  C   UNL     1       4.233  -3.639  23.925  0.00  0.00    +0.015 A 
ATOM     41  C   UNL     1       3.513  -4.569  24.681  0.00  0.00    +0.001 A 
ATOM     42  C   UNL     1       4.030  -5.842  24.906  0.00  0.00    +0.000 A 
ATOM     43  C   UNL     1       5.274  -6.180  24.378  0.00  0.00    +0.001 A 
ATOM     44  C   UNL     1       6.002  -5.241  23.625  0.00  0.00    +0.015 A 
ENDBRANCH  38  39
ENDBRANCH  37  38
ENDBRANCH   1  37
TORSDOF 12
ENDMDL
MODEL 6
REMARK VINA RESULT:      -6.9      2.450      8.812
REMARK  Name = 
REMARK  16 active torsions:
REMARK  status: ('A' for Active; 'I' for Inactive)
REMARK    1  A    between atoms: C_1  and  C_2
REMARK    2  A    between atoms: C_3  and  C_9
REMARK    3  A    between atoms: C_7  and  O_8
REMARK    4  A    between atoms: N_11  and  C_12
REMARK    5  A    between atoms: C_12  and  C_13
REMARK    6  A    between atoms: C_12  and  C_21
REMARK    7  A    between atoms: C_13  and  S_14
REMARK    8  A    between atoms: S_14  and  C_15
REMARK    9  A    between atoms: C_21  and  C_22
REMARK   10  A    between atoms: C_21  and  O_40
REMARK   11  A    between atoms: C_22  and  N_23
REMARK   12  A    between atoms: C_32  and  C_33
REMARK   13  A    between atoms: N_35  and  C_36
REMARK   14  A    between atoms: C_36  and  C_37
REMARK   15  A    between atoms: C_36  and  C_38
REMARK   16  A    between atoms: C_36  and  C_39
REMARK                            x       y       z     vdW  Elec       q    Type
REMARK                         _______ _______ _______ _____ _____    ______ ____
ROOT
ATOM      1  C   UNL     1       6.642   0.689  25.532  0.00  0.00    +0.113 C 
ENDROOT
BRANCH   1   3
ATOM      2  C   UNL     1       6.777   3.478  25.749  0.00  0.00    +0.245 C 
ATOM      3  N   UNL     1       6.398   2.154  25.893  0.00  0.00    -0.305 N 
ATOM      4  H   UNL     1       5.782   2.200  26.703  0.00  0.00    +0.149 HD
ATOM      5  O   UNL     1       6.282   4.154  26.673  0.00  0.00    -0.270 OA
BRANCH   2  12
ATOM      6  C   UNL     1       6.670   3.514  22.476  0.00  0.00    +0.048 C 
ATOM      7  C   UNL     1       7.360   4.501  23.353  0.00  0.00    +0.003 A 
ATOM      8  C   UNL     1       7.973   5.613  22.700  0.00  0.00    +0.120 A 
ATOM      9  C   UNL     1       8.992   6.355  23.278  0.00  0.00    +0.046 A 
ATOM     10  C   UNL     1       9.370   6.036  24.569  0.00  0.00    +0.004 A 
ATOM     11  C   UNL     1       8.627   5.079  25.287  0.00  0.00    +0.013 A 
ATOM     12  C   UNL     1       7.558   4.305  24.726  0.00  0.00    +0.043 A 
BRANCH   8  13
ATOM     13  O   UNL     1       7.553   5.954  21.438  0.00  0.00    -0.506 OA
ATOM     14  H   UNL     1       7.705   6.908  21.313  0.00  0.00    +0.292 HD
ENDBRANCH   8  13
ENDBRANCH   2  12
ENDBRANCH   1   3
BRANCH   1  15
ATOM     15  C   UNL     1       5.337  -0.235  25.663  0.00  0.00    +0.149 C 
BRANCH  15  16
ATOM     16  O   UNL     1       4.189   0.492  26.127  0.00  0.00    -0.389 OA
ATOM     17  H   UNL     1       3.536   0.539  25.397  0.00  0.00    +0.210 HD
ENDBRANCH  15  16
BRANCH  15  18
ATOM     18  C   UNL     1       5.533  -1.419  26.637  0.00  0.00    +0.118 C 
BRANCH  18  19
ATOM     19  N   UNL     1       5.628  -2.786  26.111  0.00  0.00    -0.289 NA
ATOM     20  C   UNL     1       6.762  -3.582  26.572  0.00  0.00    +0.143 C 
ATOM     21  C   UNL     1       7.693  -3.960  25.405  0.00  0.00    +0.032 C 
ATOM     22  C   UNL     1       6.939  -4.745  24.336  0.00  0.00    -0.005 C 
ATOM     23  C   UNL     1       5.797  -3.888  23.768  0.00  0.00    +0.006 C 
ATOM     24  C   UNL     1       4.948  -4.791  22.837  0.00  0.00    +0.005 C 
ATOM     25  C   UNL     1       5.773  -5.507  21.753  0.00  0.00    +0.000 C 
ATOM     26  C   UNL     1       7.018  -6.200  22.303  0.00  0.00    +0.000 C 
ATOM     27  C   UNL     1       7.832  -5.258  23.192  0.00  0.00    +0.004 C 
ATOM     28  C   UNL     1       4.940  -3.226  24.894  0.00  0.00    +0.089 C 
BRANCH  20  29
ATOM     29  C   UNL     1       6.272  -4.801  27.470  0.00  0.00    +0.231 C 
ATOM     30  N   UNL     1       4.983  -4.694  28.001  0.00  0.00    -0.309 N 
ATOM     31  H   UNL     1       4.497  -3.860  27.715  0.00  0.00    +0.149 HD
ATOM     32  O   UNL     1       7.052  -5.683  27.801  0.00  0.00    -0.274 OA
BRANCH  30  33
ATOM     33  C   UNL     1       4.478  -5.441  29.196  0.00  0.00    +0.026 C 
ATOM     34  C   UNL     1       5.407  -5.379  30.427  0.00  0.00    +0.031 C 
ATOM     35  C   UNL     1       4.311  -6.948  28.874  0.00  0.00    +0.031 C 
ATOM     36  C   UNL     1       3.101  -4.879  29.581  0.00  0.00    +0.031 C 
ENDBRANCH  30  33
ENDBRANCH  20  29
ENDBRANCH  18  19
ENDBRANCH  15  18
ENDBRANCH   1  15
BRANCH   1  37
ATOM     37  C   UNL     1       7.782   0.126  26.510  0.00  0.00    +0.099 C 
BRANCH  37  38
ATOM     38  S   UNL     1       9.305  -0.512  25.643  0.00  0.00    -0.123 S 
BRANCH  38  39
ATOM     39  C   UNL     1       9.483   0.569  24.221  0.00  0.00    +0.008 A 
ATOM     40  C   UNL     1       9.110   0.062  22.975  0.00  0.00    +0.015 A 
ATOM     41  C   UNL     1       9.396   0.758  21.797  0.00  0.00    +0.001 A 
ATOM     42  C   UNL     1      10.061   1.980  21.846  0.00  0.00    +0.000 A 
ATOM     43  C   UNL     1      10.448   2.501  23.080  0.00  0.00    +0.001 A 
ATOM     44  C   UNL     1      10.168   1.796  24.264  0.00  0.00    +0.015 A 
ENDBRANCH  38  39
ENDBRANCH  37  38
ENDBRANCH   1  37
TORSDOF 12
ENDMDL
MODEL 7
REMARK VINA RESULT:      -6.8      2.200      4.606
REMARK  Name = 
REMARK  16 active torsions:
REMARK  status: ('A' for Active; 'I' for Inactive)
REMARK    1  A    between atoms: C_1  and  C_2
REMARK    2  A    between atoms: C_3  and  C_9
REMARK    3  A    between atoms: C_7  and  O_8
REMARK    4  A    between atoms: N_11  and  C_12
REMARK    5  A    between atoms: C_12  and  C_13
REMARK    6  A    between atoms: C_12  and  C_21
REMARK    7  A    between atoms: C_13  and  S_14
REMARK    8  A    between atoms: S_14  and  C_15
REMARK    9  A    between atoms: C_21  and  C_22
REMARK   10  A    between atoms: C_21  and  O_40
REMARK   11  A    between atoms: C_22  and  N_23
REMARK   12  A    between atoms: C_32  and  C_33
REMARK   13  A    between atoms: N_35  and  C_36
REMARK   14  A    between atoms: C_36  and  C_37
REMARK   15  A    between atoms: C_36  and  C_38
REMARK   16  A    between atoms: C_36  and  C_39
REMARK                            x       y       z     vdW  Elec       q    Type
REMARK                         _______ _______ _______ _____ _____    ______ ____
ROOT
ATOM      1  C   UNL     1       6.500  -2.185  24.779  0.00  0.00    +0.113 C 
ENDROOT
BRANCH   1   3
ATOM      2  C   UNL     1       9.199  -1.992  24.057  0.00  0.00    +0.245 C 
ATOM      3  N   UNL     1       7.994  -2.437  24.575  0.00  0.00    -0.305 N 
ATOM      4  H   UNL     1       8.197  -3.415  24.768  0.00  0.00    +0.149 HD
ATOM      5  O   UNL     1       9.995  -2.949  23.979  0.00  0.00    -0.270 OA
BRANCH   2  12
ATOM      6  C   UNL     1       9.470  -0.559  21.126  0.00  0.00    +0.048 C 
ATOM      7  C   UNL     1       9.718   0.075  22.451  0.00  0.00    +0.003 A 
ATOM      8  C   UNL     1      10.035   1.468  22.440  0.00  0.00    +0.120 A 
ATOM      9  C   UNL     1      10.703   2.093  23.482  0.00  0.00    +0.046 A 
ATOM     10  C   UNL     1      11.007   1.340  24.600  0.00  0.00    +0.004 A 
ATOM     11  C   UNL     1      10.512   0.024  24.697  0.00  0.00    +0.013 A 
ATOM     12  C   UNL     1       9.804  -0.648  23.648  0.00  0.00    +0.043 A 
BRANCH   8  13
ATOM     13  O   UNL     1       9.682   2.219  21.347  0.00  0.00    -0.506 OA
ATOM     14  H   UNL     1       8.713   2.190  21.255  0.00  0.00    +0.292 HD
ENDBRANCH   8  13
ENDBRANCH   2  12
ENDBRANCH   1   3
BRANCH   1  15
ATOM     15  C   UNL     1       6.140  -0.654  25.095  0.00  0.00    +0.149 C 
BRANCH  15  16
ATOM     16  O   UNL     1       4.786  -0.484  25.542  0.00  0.00    -0.389 OA
ATOM     17  H   UNL     1       4.337   0.146  24.939  0.00  0.00    +0.210 HD
ENDBRANCH  15  16
BRANCH  15  18
ATOM     18  C   UNL     1       6.319   0.271  23.869  0.00  0.00    +0.118 C 
BRANCH  18  19
ATOM     19  N   UNL     1       6.216   1.726  24.033  0.00  0.00    -0.289 NA
ATOM     20  C   UNL     1       5.809   2.485  22.854  0.00  0.00    +0.143 C 
ATOM     21  C   UNL     1       6.918   3.452  22.400  0.00  0.00    +0.032 C 
ATOM     22  C   UNL     1       7.284   4.427  23.515  0.00  0.00    -0.005 C 
ATOM     23  C   UNL     1       7.806   3.652  24.735  0.00  0.00    +0.006 C 
ATOM     24  C   UNL     1       7.976   4.663  25.898  0.00  0.00    +0.005 C 
ATOM     25  C   UNL     1       8.839   5.884  25.533  0.00  0.00    +0.000 C 
ATOM     26  C   UNL     1       8.431   6.537  24.214  0.00  0.00    +0.000 C 
ATOM     27  C   UNL     1       8.304   5.501  23.095  0.00  0.00    +0.004 C 
ATOM     28  C   UNL     1       6.874   2.458  25.118  0.00  0.00    +0.089 C 
BRANCH  20  29
ATOM     29  C   UNL     1       4.379   3.148  23.071  0.00  0.00    +0.231 C 
ATOM     30  N   UNL     1       4.122   4.309  22.336  0.00  0.00    -0.309 N 
ATOM     31  H   UNL     1       4.873   4.570  21.718  0.00  0.00    +0.149 HD
ATOM     32  O   UNL     1       3.636   2.747  23.957  0.00  0.00    -0.274 OA
BRANCH  30  33
ATOM     33  C   UNL     1       3.092   5.339  22.683  0.00  0.00    +0.026 C 
ATOM     34  C   UNL     1       3.157   5.842  24.141  0.00  0.00    +0.031 C 
ATOM     35  C   UNL     1       1.661   4.771  22.501  0.00  0.00    +0.031 C 
ATOM     36  C   UNL     1       3.255   6.537  21.734  0.00  0.00    +0.031 C 
ENDBRANCH  30  33
ENDBRANCH  20  29
ENDBRANCH  18  19
ENDBRANCH  15  18
ENDBRANCH   1  15
BRANCH   1  37
ATOM     37  C   UNL     1       6.011  -3.100  26.003  0.00  0.00    +0.099 C 
BRANCH  37  38
ATOM     38  S   UNL     1       6.658  -4.850  25.973  0.00  0.00    -0.123 S 
BRANCH  38  39
ATOM     39  C   UNL     1       6.357  -5.397  24.289  0.00  0.00    +0.008 A 
ATOM     40  C   UNL     1       7.461  -5.513  23.442  0.00  0.00    +0.015 A 
ATOM     41  C   UNL     1       7.299  -5.741  22.072  0.00  0.00    +0.001 A 
ATOM     42  C   UNL     1       6.024  -5.860  21.525  0.00  0.00    +0.000 A 
ATOM     43  C   UNL     1       4.909  -5.741  22.353  0.00  0.00    +0.001 A 
ATOM     44  C   UNL     1       5.072  -5.502  23.729  0.00  0.00    +0.015 A 
ENDBRANCH  38  39
ENDBRANCH  37  38
ENDBRANCH   1  37
TORSDOF 12
ENDMDL
MODEL 8
REMARK VINA RESULT:      -6.7      2.555      9.138
REMARK  Name = 
REMARK  16 active torsions:
REMARK  status: ('A' for Active; 'I' for Inactive)
REMARK    1  A    between atoms: C_1  and  C_2
REMARK    2  A    between atoms: C_3  and  C_9
REMARK    3  A    between atoms: C_7  and  O_8
REMARK    4  A    between atoms: N_11  and  C_12
REMARK    5  A    between atoms: C_12  and  C_13
REMARK    6  A    between atoms: C_12  and  C_21
REMARK    7  A    between atoms: C_13  and  S_14
REMARK    8  A    between atoms: S_14  and  C_15
REMARK    9  A    between atoms: C_21  and  C_22
REMARK   10  A    between atoms: C_21  and  O_40
REMARK   11  A    between atoms: C_22  and  N_23
REMARK   12  A    between atoms: C_32  and  C_33
REMARK   13  A    between atoms: N_35  and  C_36
REMARK   14  A    between atoms: C_36  and  C_37
REMARK   15  A    between atoms: C_36  and  C_38
REMARK   16  A    between atoms: C_36  and  C_39
REMARK                            x       y       z     vdW  Elec       q    Type
REMARK                         _______ _______ _______ _____ _____    ______ ____
ROOT
ATOM      1  C   UNL     1       6.549  -1.285  25.636  0.00  0.00    +0.113 C 
ENDROOT
BRANCH   1   3
ATOM      2  C   UNL     1       5.603   1.261  24.952  0.00  0.00    +0.245 C 
ATOM      3  N   UNL     1       5.678  -0.090  25.248  0.00  0.00    -0.305 N 
ATOM      4  H   UNL     1       4.700  -0.325  25.404  0.00  0.00    +0.149 HD
ATOM      5  O   UNL     1       4.420   1.643  25.057  0.00  0.00    -0.270 OA
BRANCH   2  12
ATOM      6  C   UNL     1       6.421   2.210  21.927  0.00  0.00    +0.048 C 
ATOM      7  C   UNL     1       6.743   2.917  23.197  0.00  0.00    +0.003 A 
ATOM      8  C   UNL     1       7.412   4.173  23.074  0.00  0.00    +0.120 A 
ATOM      9  C   UNL     1       8.155   4.732  24.103  0.00  0.00    +0.046 A 
ATOM     10  C   UNL     1       8.181   4.068  25.315  0.00  0.00    +0.004 A 
ATOM     11  C   UNL     1       7.355   2.942  25.500  0.00  0.00    +0.013 A 
ATOM     12  C   UNL     1       6.563   2.347  24.464  0.00  0.00    +0.043 A 
BRANCH   8  13
ATOM     13  O   UNL     1       7.337   4.850  21.882  0.00  0.00    -0.506 OA
ATOM     14  H   UNL     1       8.069   4.551  21.314  0.00  0.00    +0.292 HD
ENDBRANCH   8  13
ENDBRANCH   2  12
ENDBRANCH   1   3
BRANCH   1  15
ATOM     15  C   UNL     1       5.965  -2.137  26.864  0.00  0.00    +0.149 C 
BRANCH  15  16
ATOM     16  O   UNL     1       6.638  -3.394  27.034  0.00  0.00    -0.389 OA
ATOM     17  H   UNL     1       7.225  -3.328  27.817  0.00  0.00    +0.210 HD
ENDBRANCH  15  16
BRANCH  15  18
ATOM     18  C   UNL     1       4.461  -2.459  26.712  0.00  0.00    +0.118 C 
BRANCH  18  19
ATOM     19  N   UNL     1       4.046  -3.726  26.097  0.00  0.00    -0.289 NA
ATOM     20  C   UNL     1       3.560  -3.652  24.722  0.00  0.00    +0.143 C 
ATOM     21  C   UNL     1       2.085  -4.082  24.625  0.00  0.00    +0.032 C 
ATOM     22  C   UNL     1       1.895  -5.506  25.141  0.00  0.00    -0.005 C 
ATOM     23  C   UNL     1       2.312  -5.584  26.618  0.00  0.00    +0.006 C 
ATOM     24  C   UNL     1       2.288  -7.077  27.036  0.00  0.00    +0.005 C 
ATOM     25  C   UNL     1       0.950  -7.779  26.739  0.00  0.00    +0.000 C 
ATOM     26  C   UNL     1       0.446  -7.536  25.318  0.00  0.00    +0.000 C 
ATOM     27  C   UNL     1       0.464  -6.047  24.967  0.00  0.00    +0.004 C 
ATOM     28  C   UNL     1       3.701  -4.918  26.875  0.00  0.00    +0.089 C 
BRANCH  20  29
ATOM     29  C   UNL     1       4.551  -4.401  23.729  0.00  0.00    +0.231 C 
ATOM     30  N   UNL     1       5.876  -4.524  24.159  0.00  0.00    -0.309 N 
ATOM     31  H   UNL     1       6.038  -4.149  25.080  0.00  0.00    +0.149 HD
ATOM     32  O   UNL     1       4.195  -4.691  22.595  0.00  0.00    -0.274 OA
BRANCH  30  33
ATOM     33  C   UNL     1       7.054  -4.758  23.267  0.00  0.00    +0.026 C 
ATOM     34  C   UNL     1       6.900  -5.956  22.306  0.00  0.00    +0.031 C 
ATOM     35  C   UNL     1       8.328  -5.053  24.100  0.00  0.00    +0.031 C 
ATOM     36  C   UNL     1       7.307  -3.486  22.442  0.00  0.00    +0.031 C 
ENDBRANCH  30  33
ENDBRANCH  20  29
ENDBRANCH  18  19
ENDBRANCH  15  18
ENDBRANCH   1  15
BRANCH   1  37
ATOM     37  C   UNL     1       8.000  -0.728  26.028  0.00  0.00    +0.099 C 
BRANCH  37  38
ATOM     38  S   UNL     1       9.410  -1.483  25.068  0.00  0.00    -0.123 S 
BRANCH  38  39
ATOM     39  C   UNL     1       9.849  -0.218  23.871  0.00  0.00    +0.008 A 
ATOM     40  C   UNL     1      10.436   0.952  24.355  0.00  0.00    +0.015 A 
ATOM     41  C   UNL     1      10.629   2.060  23.525  0.00  0.00    +0.001 A 
ATOM     42  C   UNL     1      10.237   2.015  22.189  0.00  0.00    +0.000 A 
ATOM     43  C   UNL     1       9.644   0.858  21.688  0.00  0.00    +0.001 A 
ATOM     44  C   UNL     1       9.442  -0.254  22.526  0.00  0.00    +0.015 A 
ENDBRANCH  38  39
ENDBRANCH  37  38
ENDBRANCH   1  37
TORSDOF 12
ENDMDL
MODEL 9
REMARK VINA RESULT:      -6.7      2.132      4.869
REMARK  Name = 
REMARK  16 active torsions:
REMARK  status: ('A' for Active; 'I' for Inactive)
REMARK    1  A    between atoms: C_1  and  C_2
REMARK    2  A    between atoms: C_3  and  C_9
REMARK    3  A    between atoms: C_7  and  O_8
REMARK    4  A    between atoms: N_11  and  C_12
REMARK    5  A    between atoms: C_12  and  C_13
REMARK    6  A    between atoms: C_12  and  C_21
REMARK    7  A    between atoms: C_13  and  S_14
REMARK    8  A    between atoms: S_14  and  C_15
REMARK    9  A    between atoms: C_21  and  C_22
REMARK   10  A    between atoms: C_21  and  O_40
REMARK   11  A    between atoms: C_22  and  N_23
REMARK   12  A    between atoms: C_32  and  C_33
REMARK   13  A    between atoms: N_35  and  C_36
REMARK   14  A    between atoms: C_36  and  C_37
REMARK   15  A    between atoms: C_36  and  C_38
REMARK   16  A    between atoms: C_36  and  C_39
REMARK                            x       y       z     vdW  Elec       q    Type
REMARK                         _______ _______ _______ _____ _____    ______ ____
ROOT
ATOM      1  C   UNL     1       4.982  -0.758  25.970  0.00  0.00    +0.113 C 
ENDROOT
BRANCH   1   3
ATOM      2  C   UNL     1       6.088  -1.771  23.604  0.00  0.00    +0.245 C 
ATOM      3  N   UNL     1       5.585  -0.920  24.574  0.00  0.00    -0.305 N 
ATOM      4  H   UNL     1       5.895  -0.011  24.237  0.00  0.00    +0.149 HD
ATOM      5  O   UNL     1       6.750  -1.111  22.777  0.00  0.00    -0.270 OA
BRANCH   2  12
ATOM      6  C   UNL     1       3.811  -3.990  24.388  0.00  0.00    +0.048 C 
ATOM      7  C   UNL     1       4.901  -4.151  23.385  0.00  0.00    +0.003 A 
ATOM      8  C   UNL     1       4.905  -5.370  22.641  0.00  0.00    +0.120 A 
ATOM      9  C   UNL     1       6.040  -5.865  22.017  0.00  0.00    +0.046 A 
ATOM     10  C   UNL     1       7.190  -5.101  22.068  0.00  0.00    +0.004 A 
ATOM     11  C   UNL     1       7.132  -3.806  22.622  0.00  0.00    +0.013 A 
ATOM     12  C   UNL     1       5.972  -3.257  23.260  0.00  0.00    +0.043 A 
BRANCH   8  13
ATOM     13  O   UNL     1       3.743  -6.096  22.552  0.00  0.00    -0.506 OA
ATOM     14  H   UNL     1       3.924  -6.901  22.036  0.00  0.00    +0.292 HD
ENDBRANCH   8  13
ENDBRANCH   2  12
ENDBRANCH   1   3
BRANCH   1  15
ATOM     15  C   UNL     1       4.730   0.770  26.390  0.00  0.00    +0.149 C 
BRANCH  15  16
ATOM     16  O   UNL     1       3.510   0.947  27.127  0.00  0.00    -0.389 OA
ATOM     17  H   UNL     1       3.503   1.853  27.502  0.00  0.00    +0.210 HD
ENDBRANCH  15  16
BRANCH  15  18
ATOM     18  C   UNL     1       4.655   1.723  25.176  0.00  0.00    +0.118 C 
BRANCH  18  19
ATOM     19  N   UNL     1       5.868   2.407  24.711  0.00  0.00    -0.289 NA
ATOM     20  C   UNL     1       6.948   2.547  25.684  0.00  0.00    +0.143 C 
ATOM     21  C   UNL     1       7.236   4.028  25.991  0.00  0.00    +0.032 C 
ATOM     22  C   UNL     1       7.610   4.789  24.723  0.00  0.00    -0.005 C 
ATOM     23  C   UNL     1       6.447   4.733  23.720  0.00  0.00    +0.006 C 
ATOM     24  C   UNL     1       6.946   5.345  22.385  0.00  0.00    +0.005 C 
ATOM     25  C   UNL     1       7.556   6.750  22.540  0.00  0.00    +0.000 C 
ATOM     26  C   UNL     1       8.578   6.841  23.671  0.00  0.00    +0.000 C 
ATOM     27  C   UNL     1       8.026   6.250  24.970  0.00  0.00    +0.004 C 
ATOM     28  C   UNL     1       5.893   3.285  23.538  0.00  0.00    +0.089 C 
BRANCH  20  29
ATOM     29  C   UNL     1       8.215   1.686  25.253  0.00  0.00    +0.231 C 
ATOM     30  N   UNL     1       9.281   2.398  24.696  0.00  0.00    -0.309 N 
ATOM     31  H   UNL     1       9.131   3.394  24.666  0.00  0.00    +0.149 HD
ATOM     32  O   UNL     1       8.168   0.464  25.262  0.00  0.00    -0.274 OA
BRANCH  30  33
ATOM     33  C   UNL     1      10.347   1.812  23.823  0.00  0.00    +0.026 C 
ATOM     34  C   UNL     1       9.819   1.117  22.550  0.00  0.00    +0.031 C 
ATOM     35  C   UNL     1      11.150   0.727  24.587  0.00  0.00    +0.031 C 
ATOM     36  C   UNL     1      11.320   2.929  23.416  0.00  0.00    +0.031 C 
ENDBRANCH  30  33
ENDBRANCH  20  29
ENDBRANCH  18  19
ENDBRANCH  15  18
ENDBRANCH   1  15
BRANCH   1  37
ATOM     37  C   UNL     1       5.990  -1.430  27.020  0.00  0.00    +0.099 C 
BRANCH  37  38
ATOM     38  S   UNL     1       5.809  -3.278  27.200  0.00  0.00    -0.123 S 
BRANCH  38  39
ATOM     39  C   UNL     1       7.340  -3.934  26.531  0.00  0.00    +0.008 A 
ATOM     40  C   UNL     1       8.320  -3.018  26.144  0.00  0.00    +0.015 A 
ATOM     41  C   UNL     1       9.454  -3.429  25.438  0.00  0.00    +0.001 A 
ATOM     42  C   UNL     1       9.629  -4.770  25.107  0.00  0.00    +0.000 A 
ATOM     43  C   UNL     1       8.659  -5.700  25.479  0.00  0.00    +0.001 A 
ATOM     44  C   UNL     1       7.514  -5.285  26.181  0.00  0.00    +0.015 A 
ENDBRANCH  38  39
ENDBRANCH  37  38
ENDBRANCH   1  37
TORSDOF 12
ENDMDL
