MODEL 1
REMARK VINA RESULT:      -6.1      0.000      0.000
REMARK  Name = 
REMARK  3 active torsions:
REMARK  status: ('A' for Active; 'I' for Inactive)
REMARK    1  A    between atoms: C_3  and  N_10
REMARK    2  A    between atoms: C_6  and  C_8
REMARK    3  A    between atoms: C_8  and  O_9
REMARK                            x       y       z     vdW  Elec       q    Type
REMARK                         _______ _______ _______ _____ _____    ______ ____
ROOT
ATOM      1  N   UNL     1       9.647  -0.750  24.292  0.00  0.00    -0.288 N 
ATOM      2  C   UNL     1       9.022  -1.785  24.934  0.00  0.00    +0.169 A 
ATOM      3  N   UNL     1       8.268  -1.710  26.059  0.00  0.00    -0.218 NA
ATOM      4  C   UNL     1       7.832  -2.874  26.442  0.00  0.00    +0.201 A 
ATOM      5  N   UNL     1       8.086  -4.075  25.804  0.00  0.00    -0.312 N 
ATOM      6  H   UNL     1       7.718  -4.943  26.164  0.00  0.00    +0.170 HD
ATOM      7  C   UNL     1       8.843  -4.188  24.650  0.00  0.00    +0.279 A 
ATOM      8  O   UNL     1       9.048  -5.272  24.111  0.00  0.00    -0.265 OA
ATOM      9  C   UNL     1       9.339  -2.907  24.195  0.00  0.00    +0.172 A 
ATOM     10  N   UNL     1      10.095  -2.592  23.100  0.00  0.00    -0.229 NA
ATOM     11  C   UNL     1      10.234  -1.284  23.168  0.00  0.00    +0.203 A 
ENDROOT
BRANCH   1  15
ATOM     12  C   UNL     1      10.246   1.965  22.795  0.00  0.00    +0.038 C 
ATOM     13  C   UNL     1       8.754   2.107  23.040  0.00  0.00    +0.146 C 
ATOM     14  O   UNL     1       8.416   1.255  24.159  0.00  0.00    -0.351 OA
ATOM     15  C   UNL     1       9.623   0.652  24.676  0.00  0.00    +0.222 C 
ATOM     16  C   UNL     1      10.767   1.495  24.130  0.00  0.00    +0.057 C 
BRANCH  13  17
ATOM     17  C   UNL     1       7.921   1.703  21.821  0.00  0.00    +0.187 C 
BRANCH  17  18
ATOM     18  O   UNL     1       8.768   1.190  20.797  0.00  0.00    -0.392 OA
ATOM     19  H   UNL     1       8.683   1.802  20.041  0.00  0.00    +0.210 HD
ENDBRANCH  17  18
ENDBRANCH  13  17
ENDBRANCH   1  15
TORSDOF 3
ENDMDL
MODEL 2
REMARK VINA RESULT:      -6.0      2.342      2.691
REMARK  Name = 
REMARK  3 active torsions:
REMARK  status: ('A' for Active; 'I' for Inactive)
REMARK    1  A    between atoms: C_3  and  N_10
REMARK    2  A    between atoms: C_6  and  C_8
REMARK    3  A    between atoms: C_8  and  O_9
REMARK                            x       y       z     vdW  Elec       q    Type
REMARK                         _______ _______ _______ _____ _____    ______ ____
ROOT
ATOM      1  N   UNL     1       8.238  -2.039  24.297  0.00  0.00    -0.288 N 
ATOM      2  C   UNL     1       7.378  -2.667  23.437  0.00  0.00    +0.169 A 
ATOM      3  N   UNL     1       6.254  -2.146  22.883  0.00  0.00    -0.218 NA
ATOM      4  C   UNL     1       5.631  -3.001  22.127  0.00  0.00    +0.201 A 
ATOM      5  N   UNL     1       6.034  -4.303  21.889  0.00  0.00    -0.312 N 
ATOM      6  H   UNL     1       5.494  -4.913  21.293  0.00  0.00    +0.170 HD
ATOM      7  C   UNL     1       7.179  -4.865  22.429  0.00  0.00    +0.279 A 
ATOM      8  O   UNL     1       7.505  -6.025  22.195  0.00  0.00    -0.265 OA
ATOM      9  C   UNL     1       7.898  -3.935  23.272  0.00  0.00    +0.172 A 
ATOM     10  N   UNL     1       9.068  -4.092  23.962  0.00  0.00    -0.229 NA
ATOM     11  C   UNL     1       9.263  -2.925  24.540  0.00  0.00    +0.203 A 
ENDROOT
BRANCH   1  15
ATOM     12  C   UNL     1      10.264   0.363  24.606  0.00  0.00    +0.038 C 
ATOM     13  C   UNL     1       9.335   0.918  23.540  0.00  0.00    +0.146 C 
ATOM     14  O   UNL     1       8.073   0.223  23.660  0.00  0.00    -0.351 OA
ATOM     15  C   UNL     1       8.134  -0.676  24.790  0.00  0.00    +0.222 C 
ATOM     16  C   UNL     1       9.309  -0.197  25.631  0.00  0.00    +0.057 C 
BRANCH  13  17
ATOM     17  C   UNL     1       9.890   0.728  22.126  0.00  0.00    +0.187 C 
BRANCH  17  18
ATOM     18  O   UNL     1       9.971   1.983  21.457  0.00  0.00    -0.392 OA
ATOM     19  H   UNL     1      10.294   1.792  20.556  0.00  0.00    +0.210 HD
ENDBRANCH  17  18
ENDBRANCH  13  17
ENDBRANCH   1  15
TORSDOF 3
ENDMDL
MODEL 3
REMARK VINA RESULT:      -6.0      2.005      2.910
REMARK  Name = 
REMARK  3 active torsions:
REMARK  status: ('A' for Active; 'I' for Inactive)
REMARK    1  A    between atoms: C_3  and  N_10
REMARK    2  A    between atoms: C_6  and  C_8
REMARK    3  A    between atoms: C_8  and  O_9
REMARK                            x       y       z     vdW  Elec       q    Type
REMARK                         _______ _______ _______ _____ _____    ______ ____
ROOT
ATOM      1  N   UNL     1       8.717  -2.226  23.122  0.00  0.00    -0.288 N 
ATOM      2  C   UNL     1       8.767  -3.272  24.003  0.00  0.00    +0.169 A 
ATOM      3  N   UNL     1       9.878  -3.909  24.451  0.00  0.00    -0.218 NA
ATOM      4  C   UNL     1       9.597  -4.885  25.263  0.00  0.00    +0.201 A 
ATOM      5  N   UNL     1       8.324  -5.265  25.650  0.00  0.00    -0.312 N 
ATOM      6  H   UNL     1       8.183  -6.039  26.281  0.00  0.00    +0.170 HD
ATOM      7  C   UNL     1       7.169  -4.633  25.221  0.00  0.00    +0.279 A 
ATOM      8  O   UNL     1       6.055  -4.997  25.587  0.00  0.00    -0.265 OA
ATOM      9  C   UNL     1       7.450  -3.536  24.319  0.00  0.00    +0.172 A 
ATOM     10  N   UNL     1       6.598  -2.662  23.701  0.00  0.00    -0.229 NA
ATOM     11  C   UNL     1       7.393  -1.866  23.017  0.00  0.00    +0.203 A 
ENDROOT
BRANCH   1  15
ATOM     12  C   UNL     1       9.294   0.714  22.124  0.00  0.00    +0.038 C 
ATOM     13  C   UNL     1      10.286   0.610  23.269  0.00  0.00    +0.146 C 
ATOM     14  O   UNL     1      10.554  -0.794  23.484  0.00  0.00    -0.351 OA
ATOM     15  C   UNL     1       9.848  -1.568  22.488  0.00  0.00    +0.222 C 
ATOM     16  C   UNL     1       9.492  -0.585  21.382  0.00  0.00    +0.057 C 
BRANCH  13  17
ATOM     17  C   UNL     1       9.753   1.232  24.561  0.00  0.00    +0.187 C 
BRANCH  17  18
ATOM     18  O   UNL     1       9.942   0.336  25.652  0.00  0.00    -0.392 OA
ATOM     19  H   UNL     1       9.695   0.830  26.457  0.00  0.00    +0.210 HD
ENDBRANCH  17  18
ENDBRANCH  13  17
ENDBRANCH   1  15
TORSDOF 3
ENDMDL
MODEL 4
REMARK VINA RESULT:      -5.9      1.458      1.573
REMARK  Name = 
REMARK  3 active torsions:
REMARK  status: ('A' for Active; 'I' for Inactive)
REMARK    1  A    between atoms: C_3  and  N_10
REMARK    2  A    between atoms: C_6  and  C_8
REMARK    3  A    between atoms: C_8  and  O_9
REMARK                            x       y       z     vdW  Elec       q    Type
REMARK                         _______ _______ _______ _____ _____    ______ ____
ROOT
ATOM      1  N   UNL     1       8.366  -1.313  24.195  0.00  0.00    -0.288 N 
ATOM      2  C   UNL     1       8.370  -2.600  24.659  0.00  0.00    +0.169 A 
ATOM      3  N   UNL     1       8.667  -3.013  25.917  0.00  0.00    -0.218 NA
ATOM      4  C   UNL     1       8.609  -4.306  26.041  0.00  0.00    +0.201 A 
ATOM      5  N   UNL     1       8.287  -5.195  25.032  0.00  0.00    -0.312 N 
ATOM      6  H   UNL     1       8.268  -6.189  25.202  0.00  0.00    +0.170 HD
ATOM      7  C   UNL     1       7.969  -4.810  23.740  0.00  0.00    +0.279 A 
ATOM      8  O   UNL     1       7.688  -5.628  22.869  0.00  0.00    -0.265 OA
ATOM      9  C   UNL     1       8.019  -3.374  23.571  0.00  0.00    +0.172 A 
ATOM     10  N   UNL     1       7.757  -2.605  22.470  0.00  0.00    -0.229 NA
ATOM     11  C   UNL     1       7.941  -1.369  22.887  0.00  0.00    +0.203 A 
ENDROOT
BRANCH   1  15
ATOM     12  C   UNL     1      10.533   0.972  23.956  0.00  0.00    +0.038 C 
ATOM     13  C   UNL     1       9.268   1.756  23.654  0.00  0.00    +0.146 C 
ATOM     14  O   UNL     1       8.161   1.034  24.239  0.00  0.00    -0.351 OA
ATOM     15  C   UNL     1       8.670  -0.112  24.957  0.00  0.00    +0.222 C 
ATOM     16  C   UNL     1      10.151   0.164  25.172  0.00  0.00    +0.057 C 
BRANCH  13  17
ATOM     17  C   UNL     1       9.031   1.925  22.152  0.00  0.00    +0.187 C 
BRANCH  17  18
ATOM     18  O   UNL     1      10.255   2.241  21.494  0.00  0.00    -0.392 OA
ATOM     19  H   UNL     1      10.248   3.207  21.353  0.00  0.00    +0.210 HD
ENDBRANCH  17  18
ENDBRANCH  13  17
ENDBRANCH   1  15
TORSDOF 3
ENDMDL
MODEL 5
REMARK VINA RESULT:      -5.8      2.102      5.790
REMARK  Name = 
REMARK  3 active torsions:
REMARK  status: ('A' for Active; 'I' for Inactive)
REMARK    1  A    between atoms: C_3  and  N_10
REMARK    2  A    between atoms: C_6  and  C_8
REMARK    3  A    between atoms: C_8  and  O_9
REMARK                            x       y       z     vdW  Elec       q    Type
REMARK                         _______ _______ _______ _____ _____    ______ ____
ROOT
ATOM      1  N   UNL     1       8.106  -1.906  24.453  0.00  0.00    -0.288 N 
ATOM      2  C   UNL     1       8.705  -1.075  23.546  0.00  0.00    +0.169 A 
ATOM      3  N   UNL     1       8.559  -1.100  22.198  0.00  0.00    -0.218 NA
ATOM      4  C   UNL     1       9.283  -0.197  21.604  0.00  0.00    +0.201 A 
ATOM      5  N   UNL     1      10.121   0.703  22.237  0.00  0.00    -0.312 N 
ATOM      6  H   UNL     1      10.658   1.373  21.708  0.00  0.00    +0.170 HD
ATOM      7  C   UNL     1      10.288   0.763  23.611  0.00  0.00    +0.279 A 
ATOM      8  O   UNL     1      11.040   1.577  24.138  0.00  0.00    -0.265 OA
ATOM      9  C   UNL     1       9.489  -0.227  24.301  0.00  0.00    +0.172 A 
ATOM     10  N   UNL     1       9.357  -0.477  25.640  0.00  0.00    -0.229 NA
ATOM     11  C   UNL     1       8.493  -1.469  25.700  0.00  0.00    +0.203 A 
ENDROOT
BRANCH   1  15
ATOM     12  C   UNL     1       8.364  -5.044  24.208  0.00  0.00    +0.038 C 
ATOM     13  C   UNL     1       7.496  -4.933  25.449  0.00  0.00    +0.146 C 
ATOM     14  O   UNL     1       6.834  -3.649  25.401  0.00  0.00    -0.351 OA
ATOM     15  C   UNL     1       7.176  -2.986  24.163  0.00  0.00    +0.222 C 
ATOM     16  C   UNL     1       7.712  -4.078  23.249  0.00  0.00    +0.057 C 
BRANCH  13  17
ATOM     17  C   UNL     1       8.309  -5.041  26.741  0.00  0.00    +0.187 C 
BRANCH  17  18
ATOM     18  O   UNL     1       7.682  -5.950  27.641  0.00  0.00    -0.392 OA
ATOM     19  H   UNL     1       7.606  -5.481  28.494  0.00  0.00    +0.210 HD
ENDBRANCH  17  18
ENDBRANCH  13  17
ENDBRANCH   1  15
TORSDOF 3
ENDMDL
MODEL 6
REMARK VINA RESULT:      -5.8      1.612      2.026
REMARK  Name = 
REMARK  3 active torsions:
REMARK  status: ('A' for Active; 'I' for Inactive)
REMARK    1  A    between atoms: C_3  and  N_10
REMARK    2  A    between atoms: C_6  and  C_8
REMARK    3  A    between atoms: C_8  and  O_9
REMARK                            x       y       z     vdW  Elec       q    Type
REMARK                         _______ _______ _______ _____ _____    ______ ____
ROOT
ATOM      1  N   UNL     1       8.265  -1.490  23.472  0.00  0.00    -0.288 N 
ATOM      2  C   UNL     1       7.929  -2.663  24.092  0.00  0.00    +0.169 A 
ATOM      3  N   UNL     1       6.689  -3.053  24.481  0.00  0.00    -0.218 NA
ATOM      4  C   UNL     1       6.697  -4.212  25.072  0.00  0.00    +0.201 A 
ATOM      5  N   UNL     1       7.818  -4.989  25.299  0.00  0.00    -0.312 N 
ATOM      6  H   UNL     1       7.747  -5.878  25.770  0.00  0.00    +0.170 HD
ATOM      7  C   UNL     1       9.097  -4.627  24.908  0.00  0.00    +0.279 A 
ATOM      8  O   UNL     1      10.070  -5.344  25.125  0.00  0.00    -0.265 OA
ATOM      9  C   UNL     1       9.121  -3.343  24.242  0.00  0.00    +0.172 A 
ATOM     10  N   UNL     1      10.167  -2.651  23.695  0.00  0.00    -0.229 NA
ATOM     11  C   UNL     1       9.614  -1.559  23.210  0.00  0.00    +0.203 A 
ENDROOT
BRANCH   1  15
ATOM     12  C   UNL     1       7.862   1.503  24.394  0.00  0.00    +0.038 C 
ATOM     13  C   UNL     1       8.353   1.714  22.972  0.00  0.00    +0.146 C 
ATOM     14  O   UNL     1       8.071   0.505  22.232  0.00  0.00    -0.351 OA
ATOM     15  C   UNL     1       7.361  -0.418  23.088  0.00  0.00    +0.222 C 
ATOM     16  C   UNL     1       6.822   0.421  24.237  0.00  0.00    +0.057 C 
BRANCH  13  17
ATOM     17  C   UNL     1       9.853   2.012  22.912  0.00  0.00    +0.187 C 
BRANCH  17  18
ATOM     18  O   UNL     1      10.256   2.235  21.563  0.00  0.00    -0.392 OA
ATOM     19  H   UNL     1       9.445   2.175  21.023  0.00  0.00    +0.210 HD
ENDBRANCH  17  18
ENDBRANCH  13  17
ENDBRANCH   1  15
TORSDOF 3
ENDMDL
MODEL 7
REMARK VINA RESULT:      -5.8      1.800      5.346
REMARK  Name = 
REMARK  3 active torsions:
REMARK  status: ('A' for Active; 'I' for Inactive)
REMARK    1  A    between atoms: C_3  and  N_10
REMARK    2  A    between atoms: C_6  and  C_8
REMARK    3  A    between atoms: C_8  and  O_9
REMARK                            x       y       z     vdW  Elec       q    Type
REMARK                         _______ _______ _______ _____ _____    ______ ____
ROOT
ATOM      1  N   UNL     1       8.928  -3.174  25.215  0.00  0.00    -0.288 N 
ATOM      2  C   UNL     1       9.462  -2.275  24.331  0.00  0.00    +0.169 A 
ATOM      3  N   UNL     1       9.992  -2.547  23.112  0.00  0.00    -0.218 NA
ATOM      4  C   UNL     1      10.445  -1.482  22.520  0.00  0.00    +0.201 A 
ATOM      5  N   UNL     1      10.413  -0.200  23.039  0.00  0.00    -0.312 N 
ATOM      6  H   UNL     1      10.791   0.579  22.522  0.00  0.00    +0.170 HD
ATOM      7  C   UNL     1       9.873   0.116  24.275  0.00  0.00    +0.279 A 
ATOM      8  O   UNL     1       9.861   1.266  24.703  0.00  0.00    -0.265 OA
ATOM      9  C   UNL     1       9.354  -1.050  24.957  0.00  0.00    +0.172 A 
ATOM     10  N   UNL     1       8.731  -1.158  26.171  0.00  0.00    -0.229 NA
ATOM     11  C   UNL     1       8.458  -2.442  26.281  0.00  0.00    +0.203 A 
ENDROOT
BRANCH   1  15
ATOM     12  C   UNL     1       6.498  -5.183  25.035  0.00  0.00    +0.038 C 
ATOM     13  C   UNL     1       7.038  -5.272  23.618  0.00  0.00    +0.146 C 
ATOM     14  O   UNL     1       8.426  -4.869  23.657  0.00  0.00    -0.351 OA
ATOM     15  C   UNL     1       8.805  -4.610  25.027  0.00  0.00    +0.222 C 
ATOM     16  C   UNL     1       7.743  -5.289  25.881  0.00  0.00    +0.057 C 
BRANCH  13  17
ATOM     17  C   UNL     1       6.272  -4.373  22.644  0.00  0.00    +0.187 C 
BRANCH  17  18
ATOM     18  O   UNL     1       7.156  -3.428  22.049  0.00  0.00    -0.392 OA
ATOM     19  H   UNL     1       8.048  -3.641  22.383  0.00  0.00    +0.210 HD
ENDBRANCH  17  18
ENDBRANCH  13  17
ENDBRANCH   1  15
TORSDOF 3
ENDMDL
MODEL 8
REMARK VINA RESULT:      -5.8      2.265      5.157
REMARK  Name = 
REMARK  3 active torsions:
REMARK  status: ('A' for Active; 'I' for Inactive)
REMARK    1  A    between atoms: C_3  and  N_10
REMARK    2  A    between atoms: C_6  and  C_8
REMARK    3  A    between atoms: C_8  and  O_9
REMARK                            x       y       z     vdW  Elec       q    Type
REMARK                         _______ _______ _______ _____ _____    ______ ____
ROOT
ATOM      1  N   UNL     1       8.087  -2.188  23.284  0.00  0.00    -0.288 N 
ATOM      2  C   UNL     1       8.574  -1.450  24.328  0.00  0.00    +0.169 A 
ATOM      3  N   UNL     1       8.089  -1.411  25.595  0.00  0.00    -0.218 NA
ATOM      4  C   UNL     1       8.753  -0.590  26.355  0.00  0.00    +0.201 A 
ATOM      5  N   UNL     1       9.834   0.175  25.956  0.00  0.00    -0.312 N 
ATOM      6  H   UNL     1      10.297   0.796  26.603  0.00  0.00    +0.170 HD
ATOM      7  C   UNL     1      10.361   0.154  24.676  0.00  0.00    +0.279 A 
ATOM      8  O   UNL     1      11.323   0.848  24.358  0.00  0.00    -0.265 OA
ATOM      9  C   UNL     1       9.646  -0.756  23.806  0.00  0.00    +0.172 A 
ATOM     10  N   UNL     1       9.862  -1.075  22.494  0.00  0.00    -0.229 NA
ATOM     11  C   UNL     1       8.930  -1.964  22.219  0.00  0.00    +0.203 A 
ENDROOT
BRANCH   1  15
ATOM     12  C   UNL     1       7.750  -5.320  23.059  0.00  0.00    +0.038 C 
ATOM     13  C   UNL     1       7.323  -5.097  24.500  0.00  0.00    +0.146 C 
ATOM     14  O   UNL     1       6.893  -3.722  24.616  0.00  0.00    -0.351 OA
ATOM     15  C   UNL     1       6.952  -3.096  23.315  0.00  0.00    +0.222 C 
ATOM     16  C   UNL     1       7.006  -4.240  22.313  0.00  0.00    +0.057 C 
BRANCH  13  17
ATOM     17  C   UNL     1       8.457  -5.364  25.492  0.00  0.00    +0.187 C 
BRANCH  17  18
ATOM     18  O   UNL     1       9.655  -5.690  24.794  0.00  0.00    -0.392 OA
ATOM     19  H   UNL     1      10.088  -4.841  24.584  0.00  0.00    +0.210 HD
ENDBRANCH  17  18
ENDBRANCH  13  17
ENDBRANCH   1  15
TORSDOF 3
ENDMDL
MODEL 9
REMARK VINA RESULT:      -5.7      1.919      5.383
REMARK  Name = 
REMARK  3 active torsions:
REMARK  status: ('A' for Active; 'I' for Inactive)
REMARK    1  A    between atoms: C_3  and  N_10
REMARK    2  A    between atoms: C_6  and  C_8
REMARK    3  A    between atoms: C_8  and  O_9
REMARK                            x       y       z     vdW  Elec       q    Type
REMARK                         _______ _______ _______ _____ _____    ______ ____
ROOT
ATOM      1  N   UNL     1       8.907  -2.324  23.587  0.00  0.00    -0.288 N 
ATOM      2  C   UNL     1       9.473  -1.113  23.882  0.00  0.00    +0.169 A 
ATOM      3  N   UNL     1       9.888  -0.683  25.100  0.00  0.00    -0.218 NA
ATOM      4  C   UNL     1      10.359   0.528  25.064  0.00  0.00    +0.201 A 
ATOM      5  N   UNL     1      10.444   1.323  23.935  0.00  0.00    -0.312 N 
ATOM      6  H   UNL     1      10.817   2.259  23.985  0.00  0.00    +0.170 HD
ATOM      7  C   UNL     1      10.039   0.914  22.675  0.00  0.00    +0.279 A 
ATOM      8  O   UNL     1      10.130   1.647  21.694  0.00  0.00    -0.265 OA
ATOM      9  C   UNL     1       9.514  -0.435  22.681  0.00  0.00    +0.172 A 
ATOM     10  N   UNL     1       9.037  -1.201  21.653  0.00  0.00    -0.229 NA
ATOM     11  C   UNL     1       8.712  -2.342  22.224  0.00  0.00    +0.203 A 
ENDROOT
BRANCH   1  15
ATOM     12  C   UNL     1       6.420  -4.182  24.167  0.00  0.00    +0.038 C 
ATOM     13  C   UNL     1       7.403  -5.198  23.612  0.00  0.00    +0.146 C 
ATOM     14  O   UNL     1       8.733  -4.664  23.802  0.00  0.00    -0.351 OA
ATOM     15  C   UNL     1       8.641  -3.410  24.515  0.00  0.00    +0.222 C 
ATOM     16  C   UNL     1       7.257  -3.400  25.149  0.00  0.00    +0.057 C 
BRANCH  13  17
ATOM     17  C   UNL     1       7.174  -5.480  22.125  0.00  0.00    +0.187 C 
BRANCH  17  18
ATOM     18  O   UNL     1       6.353  -6.633  21.964  0.00  0.00    -0.392 OA
ATOM     19  H   UNL     1       6.632  -7.265  22.653  0.00  0.00    +0.210 HD
ENDBRANCH  17  18
ENDBRANCH  13  17
ENDBRANCH   1  15
TORSDOF 3
ENDMDL
