MODEL 1
REMARK VINA RESULT:      -6.5      0.000      0.000
REMARK  Name = 
REMARK  8 active torsions:
REMARK  status: ('A' for Active; 'I' for Inactive)
REMARK    1  A    between atoms: C_1  and  C_2
REMARK    2  A    between atoms: C_2  and  C_3
REMARK    3  A    between atoms: C_2  and  N_4
REMARK    4  A    between atoms: N_13  and  C1*_14
REMARK    5  A    between atoms: C2*_16  and  O2*_26
REMARK    6  A    between atoms: C3*_18  and  O3*_25
REMARK    7  A    between atoms: C4*_20  and  C5*_23
REMARK    8  A    between atoms: C5*_23  and  O5*_24
REMARK                            x       y       z     vdW  Elec       q    Type
REMARK                         _______ _______ _______ _____ _____    ______ ____
ROOT
ATOM      1  N   UNL     1       7.401   0.307  24.571  0.00  0.00    -0.312 N 
ATOM      2  H   UNL     1       7.635   1.040  23.890  0.00  0.00    +0.149 HD
ATOM      3  C   UNL     1       6.842  -0.816  24.086  0.00  0.00    +0.199 A 
ATOM      4  N   UNL     1       7.429  -1.507  23.044  0.00  0.00    -0.283 N 
ATOM      5  C   UNL     1       6.675  -2.659  22.847  0.00  0.00    +0.074 A 
ATOM      6  C   UNL     1       5.648  -2.567  23.778  0.00  0.00    +0.092 A 
ATOM      7  C   UNL     1       4.669  -3.570  23.836  0.00  0.00    +0.051 A 
ATOM      8  C   UNL     1       4.775  -4.670  22.975  0.00  0.00    +0.061 A 
ATOM      9 CL   UNL     1       3.558  -5.895  23.100  0.00  0.00    -0.082 Cl
ATOM     10  C   UNL     1       5.834  -4.766  22.064  0.00  0.00    +0.061 A 
ATOM     11 CL   UNL     1       6.028  -6.129  21.016  0.00  0.00    -0.082 Cl
ATOM     12  C   UNL     1       6.800  -3.750  21.972  0.00  0.00    +0.049 A 
ATOM     13  N   UNL     1       5.791  -1.441  24.555  0.00  0.00    -0.214 NA
ENDROOT
BRANCH   4  14
ATOM     14  C1* UNL     1       8.650  -1.221  22.309  0.00  0.00    +0.254 C 
ATOM     15  O4* UNL     1       8.663   0.191  22.012  0.00  0.00    -0.346 OA
ATOM     16  C4* UNL     1       9.904   0.763  22.474  0.00  0.00    +0.177 C 
ATOM     17  C3* UNL     1      10.592  -0.252  23.394  0.00  0.00    +0.178 C 
ATOM     18  C2* UNL     1      10.058  -1.566  22.833  0.00  0.00    +0.195 C 
BRANCH  17  19
ATOM     19  O3* UNL     1      10.268  -0.037  24.770  0.00  0.00    -0.386 OA
ATOM     20  H3* UNL     1       9.392   0.402  24.775  0.00  0.00    +0.210 HD
ENDBRANCH  17  19
BRANCH  18  21
ATOM     21  O2* UNL     1      10.221  -2.703  23.657  0.00  0.00    -0.385 OA
ATOM     22  H2* UNL     1      10.026  -3.492  23.110  0.00  0.00    +0.210 HD
ENDBRANCH  18  21
BRANCH  16  23
ATOM     23  C5* UNL     1       9.621   2.121  23.111  0.00  0.00    +0.190 C 
BRANCH  23  24
ATOM     24  O5* UNL     1      10.786   2.666  23.718  0.00  0.00    -0.392 OA
ATOM     25  H5* UNL     1      10.811   2.297  24.621  0.00  0.00    +0.210 HD
ENDBRANCH  23  24
ENDBRANCH  16  23
ENDBRANCH   4  14
BRANCH   1  27
ATOM     26  C   UNL     1       7.789  -0.010  26.914  0.00  0.00    +0.027 C 
ATOM     27  C   UNL     1       7.051   0.847  25.881  0.00  0.00    +0.067 C 
ATOM     28  C   UNL     1       7.499   2.301  26.010  0.00  0.00    +0.027 C 
ENDBRANCH   1  27
TORSDOF 6
ENDMDL
MODEL 2
REMARK VINA RESULT:      -6.4      4.415      6.548
REMARK  Name = 
REMARK  8 active torsions:
REMARK  status: ('A' for Active; 'I' for Inactive)
REMARK    1  A    between atoms: C_1  and  C_2
REMARK    2  A    between atoms: C_2  and  C_3
REMARK    3  A    between atoms: C_2  and  N_4
REMARK    4  A    between atoms: N_13  and  C1*_14
REMARK    5  A    between atoms: C2*_16  and  O2*_26
REMARK    6  A    between atoms: C3*_18  and  O3*_25
REMARK    7  A    between atoms: C4*_20  and  C5*_23
REMARK    8  A    between atoms: C5*_23  and  O5*_24
REMARK                            x       y       z     vdW  Elec       q    Type
REMARK                         _______ _______ _______ _____ _____    ______ ____
ROOT
ATOM      1  N   UNL     1       7.582  -0.282  24.937  0.00  0.00    -0.312 N 
ATOM      2  H   UNL     1       8.183  -1.042  25.279  0.00  0.00    +0.149 HD
ATOM      3  C   UNL     1       8.142   0.937  24.837  0.00  0.00    +0.199 A 
ATOM      4  N   UNL     1       9.328   1.118  24.151  0.00  0.00    -0.283 N 
ATOM      5  C   UNL     1       9.586   2.484  24.143  0.00  0.00    +0.074 A 
ATOM      6  C   UNL     1       8.539   3.041  24.865  0.00  0.00    +0.092 A 
ATOM      7  C   UNL     1       8.500   4.426  25.080  0.00  0.00    +0.051 A 
ATOM      8  C   UNL     1       9.505   5.227  24.520  0.00  0.00    +0.061 A 
ATOM      9 CL   UNL     1       9.403   6.934  24.790  0.00  0.00    -0.082 Cl
ATOM     10  C   UNL     1      10.537   4.654  23.766  0.00  0.00    +0.061 A 
ATOM     11 CL   UNL     1      11.771   5.610  23.019  0.00  0.00    -0.082 Cl
ATOM     12  C   UNL     1      10.606   3.264  23.575  0.00  0.00    +0.049 A 
ATOM     13  N   UNL     1       7.642   2.073  25.253  0.00  0.00    -0.214 NA
ENDROOT
BRANCH   4  14
ATOM     14  C1* UNL     1      10.155   0.148  23.452  0.00  0.00    +0.254 C 
ATOM     15  O4* UNL     1      10.192  -1.054  24.250  0.00  0.00    -0.346 OA
ATOM     16  C4* UNL     1       9.804  -2.179  23.433  0.00  0.00    +0.177 C 
ATOM     17  C3* UNL     1       9.182  -1.644  22.138  0.00  0.00    +0.178 C 
ATOM     18  C2* UNL     1       9.894  -0.303  22.001  0.00  0.00    +0.195 C 
BRANCH  17  19
ATOM     19  O3* UNL     1       7.759  -1.536  22.229  0.00  0.00    -0.386 OA
ATOM     20  H3* UNL     1       7.445  -2.395  22.580  0.00  0.00    +0.210 HD
ENDBRANCH  17  19
BRANCH  18  21
ATOM     21  O2* UNL     1       9.318   0.615  21.093  0.00  0.00    -0.385 OA
ATOM     22  H2* UNL     1       9.559   0.324  20.189  0.00  0.00    +0.210 HD
ENDBRANCH  18  21
BRANCH  16  23
ATOM     23  C5* UNL     1       8.900  -3.099  24.249  0.00  0.00    +0.190 C 
BRANCH  23  24
ATOM     24  O5* UNL     1       8.921  -2.762  25.630  0.00  0.00    -0.392 OA
ATOM     25  H5* UNL     1       9.374  -1.899  25.684  0.00  0.00    +0.210 HD
ENDBRANCH  23  24
ENDBRANCH  16  23
ENDBRANCH   4  14
BRANCH   1  27
ATOM     26  C   UNL     1       5.689  -1.691  24.525  0.00  0.00    +0.027 C 
ATOM     27  C   UNL     1       6.181  -0.466  25.301  0.00  0.00    +0.067 C 
ATOM     28  C   UNL     1       6.034  -0.719  26.800  0.00  0.00    +0.027 C 
ENDBRANCH   1  27
TORSDOF 6
ENDMDL
MODEL 3
REMARK VINA RESULT:      -6.1      3.900      6.039
REMARK  Name = 
REMARK  8 active torsions:
REMARK  status: ('A' for Active; 'I' for Inactive)
REMARK    1  A    between atoms: C_1  and  C_2
REMARK    2  A    between atoms: C_2  and  C_3
REMARK    3  A    between atoms: C_2  and  N_4
REMARK    4  A    between atoms: N_13  and  C1*_14
REMARK    5  A    between atoms: C2*_16  and  O2*_26
REMARK    6  A    between atoms: C3*_18  and  O3*_25
REMARK    7  A    between atoms: C4*_20  and  C5*_23
REMARK    8  A    between atoms: C5*_23  and  O5*_24
REMARK                            x       y       z     vdW  Elec       q    Type
REMARK                         _______ _______ _______ _____ _____    ______ ____
ROOT
ATOM      1  N   UNL     1       6.261  -2.561  24.695  0.00  0.00    -0.312 N 
ATOM      2  H   UNL     1       6.439  -2.933  25.636  0.00  0.00    +0.149 HD
ATOM      3  C   UNL     1       6.720  -1.325  24.433  0.00  0.00    +0.199 A 
ATOM      4  N   UNL     1       8.039  -0.993  24.675  0.00  0.00    -0.283 N 
ATOM      5  C   UNL     1       8.221   0.305  24.211  0.00  0.00    +0.074 A 
ATOM      6  C   UNL     1       6.970   0.686  23.743  0.00  0.00    +0.092 A 
ATOM      7  C   UNL     1       6.785   1.975  23.220  0.00  0.00    +0.051 A 
ATOM      8  C   UNL     1       7.886   2.839  23.144  0.00  0.00    +0.061 A 
ATOM      9 CL   UNL     1       7.616   4.410  22.469  0.00  0.00    -0.082 Cl
ATOM     10  C   UNL     1       9.148   2.429  23.591  0.00  0.00    +0.061 A 
ATOM     11 CL   UNL     1      10.543   3.448  23.473  0.00  0.00    -0.082 Cl
ATOM     12  C   UNL     1       9.337   1.155  24.149  0.00  0.00    +0.049 A 
ATOM     13  N   UNL     1       6.069  -0.346  23.857  0.00  0.00    -0.214 NA
ENDROOT
BRANCH   4  14
ATOM     14  C1* UNL     1       9.120  -1.806  25.207  0.00  0.00    +0.254 C 
ATOM     15  O4* UNL     1       8.627  -2.477  26.385  0.00  0.00    -0.346 OA
ATOM     16  C4* UNL     1       8.862  -3.895  26.258  0.00  0.00    +0.177 C 
ATOM     17  C3* UNL     1       9.235  -4.195  24.802  0.00  0.00    +0.178 C 
ATOM     18  C2* UNL     1       9.867  -2.873  24.381  0.00  0.00    +0.195 C 
BRANCH  17  19
ATOM     19  O3* UNL     1       8.096  -4.566  24.021  0.00  0.00    -0.386 OA
ATOM     20  H3* UNL     1       7.313  -4.362  24.573  0.00  0.00    +0.210 HD
ENDBRANCH  17  19
BRANCH  18  21
ATOM     21  O2* UNL     1      10.023  -2.675  22.991  0.00  0.00    -0.385 OA
ATOM     22  H2* UNL     1      10.551  -1.859  22.867  0.00  0.00    +0.210 HD
ENDBRANCH  18  21
BRANCH  16  23
ATOM     23  C5* UNL     1       7.644  -4.652  26.780  0.00  0.00    +0.190 C 
BRANCH  23  24
ATOM     24  O5* UNL     1       7.887  -6.051  26.847  0.00  0.00    -0.392 OA
ATOM     25  H5* UNL     1       7.019  -6.477  26.718  0.00  0.00    +0.210 HD
ENDBRANCH  23  24
ENDBRANCH  16  23
ENDBRANCH   4  14
BRANCH   1  27
ATOM     26  C   UNL     1       5.335  -3.420  22.658  0.00  0.00    +0.027 C 
ATOM     27  C   UNL     1       5.021  -3.070  24.116  0.00  0.00    +0.067 C 
ATOM     28  C   UNL     1       4.548  -4.322  24.850  0.00  0.00    +0.027 C 
ENDBRANCH   1  27
TORSDOF 6
ENDMDL
MODEL 4
REMARK VINA RESULT:      -6.1      3.959      6.464
REMARK  Name = 
REMARK  8 active torsions:
REMARK  status: ('A' for Active; 'I' for Inactive)
REMARK    1  A    between atoms: C_1  and  C_2
REMARK    2  A    between atoms: C_2  and  C_3
REMARK    3  A    between atoms: C_2  and  N_4
REMARK    4  A    between atoms: N_13  and  C1*_14
REMARK    5  A    between atoms: C2*_16  and  O2*_26
REMARK    6  A    between atoms: C3*_18  and  O3*_25
REMARK    7  A    between atoms: C4*_20  and  C5*_23
REMARK    8  A    between atoms: C5*_23  and  O5*_24
REMARK                            x       y       z     vdW  Elec       q    Type
REMARK                         _______ _______ _______ _____ _____    ______ ____
ROOT
ATOM      1  N   UNL     1       5.870  -3.596  24.126  0.00  0.00    -0.312 N 
ATOM      2  H   UNL     1       5.423  -3.668  25.049  0.00  0.00    +0.149 HD
ATOM      3  C   UNL     1       6.728  -2.577  23.944  0.00  0.00    +0.199 A 
ATOM      4  N   UNL     1       7.764  -2.355  24.831  0.00  0.00    -0.283 N 
ATOM      5  C   UNL     1       8.520  -1.307  24.317  0.00  0.00    +0.074 A 
ATOM      6  C   UNL     1       7.859  -0.939  23.153  0.00  0.00    +0.092 A 
ATOM      7  C   UNL     1       8.345   0.128  22.383  0.00  0.00    +0.051 A 
ATOM      8  C   UNL     1       9.519   0.775  22.790  0.00  0.00    +0.061 A 
ATOM      9 CL   UNL     1      10.096   2.070  21.795  0.00  0.00    -0.082 Cl
ATOM     10  C   UNL     1      10.193   0.372  23.949  0.00  0.00    +0.061 A 
ATOM     11 CL   UNL     1      11.671   1.113  24.461  0.00  0.00    -0.082 Cl
ATOM     12  C   UNL     1       9.696  -0.671  24.747  0.00  0.00    +0.049 A 
ATOM     13  N   UNL     1       6.777  -1.758  22.924  0.00  0.00    -0.214 NA
ENDROOT
BRANCH   4  14
ATOM     14  C1* UNL     1       8.133  -3.087  26.032  0.00  0.00    +0.254 C 
ATOM     15  O4* UNL     1       6.919  -3.391  26.751  0.00  0.00    -0.346 OA
ATOM     16  C4* UNL     1       6.867  -4.808  27.019  0.00  0.00    +0.177 C 
ATOM     17  C3* UNL     1       7.933  -5.501  26.163  0.00  0.00    +0.178 C 
ATOM     18  C2* UNL     1       8.962  -4.386  26.014  0.00  0.00    +0.195 C 
BRANCH  17  19
ATOM     19  O3* UNL     1       7.403  -5.969  24.920  0.00  0.00    -0.386 OA
ATOM     20  H3* UNL     1       6.430  -5.882  24.992  0.00  0.00    +0.210 HD
ENDBRANCH  17  19
BRANCH  18  21
ATOM     21  O2* UNL     1       9.928  -4.567  24.998  0.00  0.00    -0.385 OA
ATOM     22  H2* UNL     1      10.606  -3.868  25.109  0.00  0.00    +0.210 HD
ENDBRANCH  18  21
BRANCH  16  23
ATOM     23  C5* UNL     1       5.441  -5.306  26.800  0.00  0.00    +0.190 C 
BRANCH  23  24
ATOM     24  O5* UNL     1       5.380  -6.726  26.783  0.00  0.00    -0.392 OA
ATOM     25  H5* UNL     1       6.306  -7.029  26.728  0.00  0.00    +0.210 HD
ENDBRANCH  23  24
ENDBRANCH  16  23
ENDBRANCH   4  14
BRANCH   1  27
ATOM     26  C   UNL     1       5.906  -5.008  22.190  0.00  0.00    +0.027 C 
ATOM     27  C   UNL     1       5.022  -4.100  23.051  0.00  0.00    +0.067 C 
ATOM     28  C   UNL     1       3.852  -4.907  23.609  0.00  0.00    +0.027 C 
ENDBRANCH   1  27
TORSDOF 6
ENDMDL
MODEL 5
REMARK VINA RESULT:      -6.1      3.921      6.415
REMARK  Name = 
REMARK  8 active torsions:
REMARK  status: ('A' for Active; 'I' for Inactive)
REMARK    1  A    between atoms: C_1  and  C_2
REMARK    2  A    between atoms: C_2  and  C_3
REMARK    3  A    between atoms: C_2  and  N_4
REMARK    4  A    between atoms: N_13  and  C1*_14
REMARK    5  A    between atoms: C2*_16  and  O2*_26
REMARK    6  A    between atoms: C3*_18  and  O3*_25
REMARK    7  A    between atoms: C4*_20  and  C5*_23
REMARK    8  A    between atoms: C5*_23  and  O5*_24
REMARK                            x       y       z     vdW  Elec       q    Type
REMARK                         _______ _______ _______ _____ _____    ______ ____
ROOT
ATOM      1  N   UNL     1       4.443  -3.473  25.110  0.00  0.00    -0.312 N 
ATOM      2  H   UNL     1       4.880  -4.318  25.497  0.00  0.00    +0.149 HD
ATOM      3  C   UNL     1       5.268  -2.490  24.709  0.00  0.00    +0.199 A 
ATOM      4  N   UNL     1       6.310  -2.751  23.840  0.00  0.00    -0.283 N 
ATOM      5  C   UNL     1       6.905  -1.529  23.544  0.00  0.00    +0.074 A 
ATOM      6  C   UNL     1       6.191  -0.603  24.292  0.00  0.00    +0.092 A 
ATOM      7  C   UNL     1       6.550   0.752  24.251  0.00  0.00    +0.051 A 
ATOM      8  C   UNL     1       7.605   1.148  23.417  0.00  0.00    +0.061 A 
ATOM      9 CL   UNL     1       7.997   2.833  23.379  0.00  0.00    -0.082 Cl
ATOM     10  C   UNL     1       8.295   0.207  22.643  0.00  0.00    +0.061 A 
ATOM     11 CL   UNL     1       9.571   0.659  21.565  0.00  0.00    -0.082 Cl
ATOM     12  C   UNL     1       7.967  -1.158  22.704  0.00  0.00    +0.049 A 
ATOM     13  N   UNL     1       5.164  -1.213  24.975  0.00  0.00    -0.214 NA
ENDROOT
BRANCH   4  14
ATOM     14  C1* UNL     1       6.715  -4.003  23.222  0.00  0.00    +0.254 C 
ATOM     15  O4* UNL     1       6.579  -5.045  24.211  0.00  0.00    -0.346 OA
ATOM     16  C4* UNL     1       5.769  -6.110  23.671  0.00  0.00    +0.177 C 
ATOM     17  C3* UNL     1       5.086  -5.600  22.397  0.00  0.00    +0.178 C 
ATOM     18  C2* UNL     1       6.088  -4.552  21.925  0.00  0.00    +0.195 C 
BRANCH  17  19
ATOM     19  O3* UNL     1       3.781  -5.076  22.659  0.00  0.00    -0.386 OA
ATOM     20  H3* UNL     1       3.568  -4.493  21.902  0.00  0.00    +0.210 HD
ENDBRANCH  17  19
BRANCH  18  21
ATOM     21  O2* UNL     1       5.618  -3.639  20.953  0.00  0.00    -0.385 OA
ATOM     22  H2* UNL     1       4.662  -3.501  21.118  0.00  0.00    +0.210 HD
ENDBRANCH  18  21
BRANCH  16  23
ATOM     23  C5* UNL     1       4.819  -6.613  24.754  0.00  0.00    +0.190 C 
BRANCH  23  24
ATOM     24  O5* UNL     1       3.985  -7.659  24.272  0.00  0.00    -0.392 OA
ATOM     25  H5* UNL     1       4.075  -7.643  23.301  0.00  0.00    +0.210 HD
ENDBRANCH  23  24
ENDBRANCH  16  23
ENDBRANCH   4  14
BRANCH   1  27
ATOM     26  C   UNL     1       2.240  -4.389  25.338  0.00  0.00    +0.027 C 
ATOM     27  C   UNL     1       3.135  -3.198  25.697  0.00  0.00    +0.067 C 
ATOM     28  C   UNL     1       3.231  -3.073  27.215  0.00  0.00    +0.027 C 
ENDBRANCH   1  27
TORSDOF 6
ENDMDL
MODEL 6
REMARK VINA RESULT:      -6.0      1.601      1.877
REMARK  Name = 
REMARK  8 active torsions:
REMARK  status: ('A' for Active; 'I' for Inactive)
REMARK    1  A    between atoms: C_1  and  C_2
REMARK    2  A    between atoms: C_2  and  C_3
REMARK    3  A    between atoms: C_2  and  N_4
REMARK    4  A    between atoms: N_13  and  C1*_14
REMARK    5  A    between atoms: C2*_16  and  O2*_26
REMARK    6  A    between atoms: C3*_18  and  O3*_25
REMARK    7  A    between atoms: C4*_20  and  C5*_23
REMARK    8  A    between atoms: C5*_23  and  O5*_24
REMARK                            x       y       z     vdW  Elec       q    Type
REMARK                         _______ _______ _______ _____ _____    ______ ____
ROOT
ATOM      1  N   UNL     1       7.333   0.440  23.806  0.00  0.00    -0.312 N 
ATOM      2  H   UNL     1       7.582   0.679  22.839  0.00  0.00    +0.149 HD
ATOM      3  C   UNL     1       6.623  -0.687  23.991  0.00  0.00    +0.199 A 
ATOM      4  N   UNL     1       7.046  -1.887  23.452  0.00  0.00    -0.283 N 
ATOM      5  C   UNL     1       6.165  -2.865  23.900  0.00  0.00    +0.074 A 
ATOM      6  C   UNL     1       5.235  -2.172  24.665  0.00  0.00    +0.092 A 
ATOM      7  C   UNL     1       4.167  -2.862  25.257  0.00  0.00    +0.051 A 
ATOM      8  C   UNL     1       4.087  -4.252  25.095  0.00  0.00    +0.061 A 
ATOM      9 CL   UNL     1       2.766  -5.064  25.865  0.00  0.00    -0.082 Cl
ATOM     10  C   UNL     1       5.049  -4.941  24.349  0.00  0.00    +0.061 A 
ATOM     11 CL   UNL     1       5.014  -6.662  24.163  0.00  0.00    -0.082 Cl
ATOM     12  C   UNL     1       6.103  -4.256  23.721  0.00  0.00    +0.049 A 
ATOM     13  N   UNL     1       5.557  -0.836  24.736  0.00  0.00    -0.214 NA
ENDROOT
BRANCH   4  14
ATOM     14  C1* UNL     1       8.223  -2.184  22.653  0.00  0.00    +0.254 C 
ATOM     15  O4* UNL     1       8.430  -1.079  21.748  0.00  0.00    -0.346 OA
ATOM     16  C4* UNL     1       9.783  -0.598  21.886  0.00  0.00    +0.177 C 
ATOM     17  C3* UNL     1      10.385  -1.206  23.157  0.00  0.00    +0.178 C 
ATOM     18  C2* UNL     1       9.602  -2.511  23.259  0.00  0.00    +0.195 C 
BRANCH  17  19
ATOM     19  O3* UNL     1      10.228  -0.348  24.291  0.00  0.00    -0.386 OA
ATOM     20  H3* UNL     1       9.268  -0.328  24.482  0.00  0.00    +0.210 HD
ENDBRANCH  17  19
BRANCH  18  21
ATOM     21  O2* UNL     1       9.661  -3.173  24.506  0.00  0.00    -0.385 OA
ATOM     22  H2* UNL     1      10.564  -3.539  24.603  0.00  0.00    +0.210 HD
ENDBRANCH  18  21
BRANCH  16  23
ATOM     23  C5* UNL     1       9.777   0.928  21.842  0.00  0.00    +0.190 C 
BRANCH  23  24
ATOM     24  O5* UNL     1       8.678   1.424  21.090  0.00  0.00    -0.392 OA
ATOM     25  H5* UNL     1       8.063   1.809  21.743  0.00  0.00    +0.210 HD
ENDBRANCH  23  24
ENDBRANCH  16  23
ENDBRANCH   4  14
BRANCH   1  27
ATOM     26  C   UNL     1       8.547   2.212  24.869  0.00  0.00    +0.027 C 
ATOM     27  C   UNL     1       7.152   1.619  24.647  0.00  0.00    +0.067 C 
ATOM     28  C   UNL     1       6.263   2.652  23.959  0.00  0.00    +0.027 C 
ENDBRANCH   1  27
TORSDOF 6
ENDMDL
MODEL 7
REMARK VINA RESULT:      -6.0      2.602      3.021
REMARK  Name = 
REMARK  8 active torsions:
REMARK  status: ('A' for Active; 'I' for Inactive)
REMARK    1  A    between atoms: C_1  and  C_2
REMARK    2  A    between atoms: C_2  and  C_3
REMARK    3  A    between atoms: C_2  and  N_4
REMARK    4  A    between atoms: N_13  and  C1*_14
REMARK    5  A    between atoms: C2*_16  and  O2*_26
REMARK    6  A    between atoms: C3*_18  and  O3*_25
REMARK    7  A    between atoms: C4*_20  and  C5*_23
REMARK    8  A    between atoms: C5*_23  and  O5*_24
REMARK                            x       y       z     vdW  Elec       q    Type
REMARK                         _______ _______ _______ _____ _____    ______ ____
ROOT
ATOM      1  N   UNL     1       6.962   1.041  23.425  0.00  0.00    -0.312 N 
ATOM      2  H   UNL     1       7.515   0.961  22.564  0.00  0.00    +0.149 HD
ATOM      3  C   UNL     1       6.661  -0.103  24.064  0.00  0.00    +0.199 A 
ATOM      4  N   UNL     1       7.648  -1.014  24.389  0.00  0.00    -0.283 N 
ATOM      5  C   UNL     1       7.040  -2.026  25.121  0.00  0.00    +0.074 A 
ATOM      6  C   UNL     1       5.698  -1.670  25.161  0.00  0.00    +0.092 A 
ATOM      7  C   UNL     1       4.775  -2.502  25.810  0.00  0.00    +0.051 A 
ATOM      8  C   UNL     1       5.239  -3.663  26.444  0.00  0.00    +0.061 A 
ATOM      9 CL   UNL     1       4.067  -4.646  27.254  0.00  0.00    -0.082 Cl
ATOM     10  C   UNL     1       6.599  -3.993  26.424  0.00  0.00    +0.061 A 
ATOM     11 CL   UNL     1       7.221  -5.391  27.233  0.00  0.00    -0.082 Cl
ATOM     12  C   UNL     1       7.528  -3.186  25.746  0.00  0.00    +0.049 A 
ATOM     13  N   UNL     1       5.493  -0.463  24.533  0.00  0.00    -0.214 NA
ENDROOT
BRANCH   4  14
ATOM     14  C1* UNL     1       9.081  -0.957  24.149  0.00  0.00    +0.254 C 
ATOM     15  O4* UNL     1       9.283  -0.457  22.810  0.00  0.00    -0.346 OA
ATOM     16  C4* UNL     1      10.181   0.671  22.855  0.00  0.00    +0.177 C 
ATOM     17  C3* UNL     1      10.319   1.123  24.313  0.00  0.00    +0.178 C 
ATOM     18  C2* UNL     1      10.065  -0.187  25.052  0.00  0.00    +0.195 C 
BRANCH  17  19
ATOM     19  O3* UNL     1       9.394   2.162  24.644  0.00  0.00    -0.386 OA
ATOM     20  H3* UNL     1       9.633   2.925  24.078  0.00  0.00    +0.210 HD
ENDBRANCH  17  19
BRANCH  18  21
ATOM     21  O2* UNL     1       9.781  -0.074  26.432  0.00  0.00    -0.385 OA
ATOM     22  H2* UNL     1      10.521  -0.493  26.919  0.00  0.00    +0.210 HD
ENDBRANCH  18  21
BRANCH  16  23
ATOM     23  C5* UNL     1       9.681   1.746  21.892  0.00  0.00    +0.190 C 
BRANCH  23  24
ATOM     24  O5* UNL     1       8.833   1.196  20.892  0.00  0.00    -0.392 OA
ATOM     25  H5* UNL     1       8.638   0.285  21.182  0.00  0.00    +0.210 HD
ENDBRANCH  23  24
ENDBRANCH  16  23
ENDBRANCH   4  14
BRANCH   1  27
ATOM     26  C   UNL     1       6.233   2.908  24.740  0.00  0.00    +0.027 C 
ATOM     27  C   UNL     1       6.051   2.182  23.403  0.00  0.00    +0.067 C 
ATOM     28  C   UNL     1       6.391   3.132  22.257  0.00  0.00    +0.027 C 
ENDBRANCH   1  27
TORSDOF 6
ENDMDL
MODEL 8
REMARK VINA RESULT:      -5.9      3.891      6.696
REMARK  Name = 
REMARK  8 active torsions:
REMARK  status: ('A' for Active; 'I' for Inactive)
REMARK    1  A    between atoms: C_1  and  C_2
REMARK    2  A    between atoms: C_2  and  C_3
REMARK    3  A    between atoms: C_2  and  N_4
REMARK    4  A    between atoms: N_13  and  C1*_14
REMARK    5  A    between atoms: C2*_16  and  O2*_26
REMARK    6  A    between atoms: C3*_18  and  O3*_25
REMARK    7  A    between atoms: C4*_20  and  C5*_23
REMARK    8  A    between atoms: C5*_23  and  O5*_24
REMARK                            x       y       z     vdW  Elec       q    Type
REMARK                         _______ _______ _______ _____ _____    ______ ____
ROOT
ATOM      1  N   UNL     1       6.487  -4.032  22.620  0.00  0.00    -0.312 N 
ATOM      2  H   UNL     1       5.462  -4.096  22.599  0.00  0.00    +0.149 HD
ATOM      3  C   UNL     1       7.017  -2.803  22.741  0.00  0.00    +0.199 A 
ATOM      4  N   UNL     1       6.612  -1.952  23.751  0.00  0.00    -0.283 N 
ATOM      5  C   UNL     1       7.408  -0.815  23.667  0.00  0.00    +0.074 A 
ATOM      6  C   UNL     1       8.231  -1.047  22.572  0.00  0.00    +0.092 A 
ATOM      7  C   UNL     1       9.158  -0.070  22.179  0.00  0.00    +0.051 A 
ATOM      8  C   UNL     1       9.261   1.108  22.931  0.00  0.00    +0.061 A 
ATOM      9 CL   UNL     1      10.436   2.273  22.423  0.00  0.00    -0.082 Cl
ATOM     10  C   UNL     1       8.446   1.313  24.051  0.00  0.00    +0.061 A 
ATOM     11 CL   UNL     1       8.572   2.732  25.034  0.00  0.00    -0.082 Cl
ATOM     12  C   UNL     1       7.490   0.358  24.433  0.00  0.00    +0.049 A 
ATOM     13  N   UNL     1       7.998  -2.293  22.039  0.00  0.00    -0.214 NA
ENDROOT
BRANCH   4  14
ATOM     14  C1* UNL     1       5.632  -2.160  24.804  0.00  0.00    +0.254 C 
ATOM     15  O4* UNL     1       4.545  -2.928  24.247  0.00  0.00    -0.346 OA
ATOM     16  C4* UNL     1       4.310  -4.088  25.073  0.00  0.00    +0.177 C 
ATOM     17  C3* UNL     1       5.499  -4.251  26.026  0.00  0.00    +0.178 C 
ATOM     18  C2* UNL     1       5.967  -2.806  26.163  0.00  0.00    +0.195 C 
BRANCH  17  19
ATOM     19  O3* UNL     1       6.493  -5.134  25.500  0.00  0.00    -0.386 OA
ATOM     20  H3* UNL     1       7.312  -4.602  25.424  0.00  0.00    +0.210 HD
ENDBRANCH  17  19
BRANCH  18  21
ATOM     21  O2* UNL     1       7.259  -2.623  26.707  0.00  0.00    -0.385 OA
ATOM     22  H2* UNL     1       7.154  -2.481  27.670  0.00  0.00    +0.210 HD
ENDBRANCH  18  21
BRANCH  16  23
ATOM     23  C5* UNL     1       4.034  -5.291  24.175  0.00  0.00    +0.190 C 
BRANCH  23  24
ATOM     24  O5* UNL     1       3.464  -4.897  22.934  0.00  0.00    -0.392 OA
ATOM     25  H5* UNL     1       4.190  -4.941  22.283  0.00  0.00    +0.210 HD
ENDBRANCH  23  24
ENDBRANCH  16  23
ENDBRANCH   4  14
BRANCH   1  27
ATOM     26  C   UNL     1       7.810  -6.017  22.848  0.00  0.00    +0.027 C 
ATOM     27  C   UNL     1       7.132  -5.084  21.840  0.00  0.00    +0.067 C 
ATOM     28  C   UNL     1       6.105  -5.871  21.029  0.00  0.00    +0.027 C 
ENDBRANCH   1  27
TORSDOF 6
ENDMDL
MODEL 9
REMARK VINA RESULT:      -5.9      3.873      5.893
REMARK  Name = 
REMARK  8 active torsions:
REMARK  status: ('A' for Active; 'I' for Inactive)
REMARK    1  A    between atoms: C_1  and  C_2
REMARK    2  A    between atoms: C_2  and  C_3
REMARK    3  A    between atoms: C_2  and  N_4
REMARK    4  A    between atoms: N_13  and  C1*_14
REMARK    5  A    between atoms: C2*_16  and  O2*_26
REMARK    6  A    between atoms: C3*_18  and  O3*_25
REMARK    7  A    between atoms: C4*_20  and  C5*_23
REMARK    8  A    between atoms: C5*_23  and  O5*_24
REMARK                            x       y       z     vdW  Elec       q    Type
REMARK                         _______ _______ _______ _____ _____    ______ ____
ROOT
ATOM      1  N   UNL     1       5.504  -2.678  25.927  0.00  0.00    -0.312 N 
ATOM      2  H   UNL     1       6.039  -3.065  26.715  0.00  0.00    +0.149 HD
ATOM      3  C   UNL     1       6.045  -1.629  25.282  0.00  0.00    +0.199 A 
ATOM      4  N   UNL     1       7.342  -1.680  24.809  0.00  0.00    -0.283 N 
ATOM      5  C   UNL     1       7.565  -0.498  24.112  0.00  0.00    +0.074 A 
ATOM      6  C   UNL     1       6.379   0.213  24.243  0.00  0.00    +0.092 A 
ATOM      7  C   UNL     1       6.265   1.489  23.672  0.00  0.00    +0.051 A 
ATOM      8  C   UNL     1       7.345   2.003  22.942  0.00  0.00    +0.061 A 
ATOM      9 CL   UNL     1       7.150   3.571  22.235  0.00  0.00    -0.082 Cl
ATOM     10  C   UNL     1       8.523   1.261  22.791  0.00  0.00    +0.061 A 
ATOM     11 CL   UNL     1       9.863   1.838  21.860  0.00  0.00    -0.082 Cl
ATOM     12  C   UNL     1       8.662  -0.003  23.389  0.00  0.00    +0.049 A 
ATOM     13  N   UNL     1       5.444  -0.519  24.938  0.00  0.00    -0.214 NA
ENDROOT
BRANCH   4  14
ATOM     14  C1* UNL     1       8.317  -2.756  24.883  0.00  0.00    +0.254 C 
ATOM     15  O4* UNL     1       8.232  -3.335  26.201  0.00  0.00    -0.346 OA
ATOM     16  C4* UNL     1       8.044  -4.761  26.083  0.00  0.00    +0.177 C 
ATOM     17  C3* UNL     1       7.672  -5.080  24.630  0.00  0.00    +0.178 C 
ATOM     18  C2* UNL     1       8.358  -3.936  23.892  0.00  0.00    +0.195 C 
BRANCH  17  19
ATOM     19  O3* UNL     1       6.255  -5.127  24.436  0.00  0.00    -0.386 OA
ATOM     20  H3* UNL     1       5.881  -5.489  25.266  0.00  0.00    +0.210 HD
ENDBRANCH  17  19
BRANCH  18  21
ATOM     21  O2* UNL     1       7.944  -3.723  22.557  0.00  0.00    -0.385 OA
ATOM     22  H2* UNL     1       7.460  -2.872  22.532  0.00  0.00    +0.210 HD
ENDBRANCH  18  21
BRANCH  16  23
ATOM     23  C5* UNL     1       7.026  -5.218  27.124  0.00  0.00    +0.190 C 
BRANCH  23  24
ATOM     24  O5* UNL     1       7.568  -6.213  27.983  0.00  0.00    -0.392 OA
ATOM     25  H5* UNL     1       8.314  -6.607  27.493  0.00  0.00    +0.210 HD
ENDBRANCH  23  24
ENDBRANCH  16  23
ENDBRANCH   4  14
BRANCH   1  27
ATOM     26  C   UNL     1       3.550  -3.562  24.860  0.00  0.00    +0.027 C 
ATOM     27  C   UNL     1       4.063  -2.825  26.101  0.00  0.00    +0.067 C 
ATOM     28  C   UNL     1       3.743  -3.645  27.349  0.00  0.00    +0.027 C 
ENDBRANCH   1  27
TORSDOF 6
ENDMDL
