MODEL 1
REMARK VINA RESULT:      -7.3      0.000      0.000
REMARK  Name = 
REMARK  4 active torsions:
REMARK  status: ('A' for Active; 'I' for Inactive)
REMARK    1  A    between atoms: C_3  and  N_10
REMARK    2  A    between atoms: C_5  and  O_9
REMARK    3  A    between atoms: C_6  and  C_7
REMARK    4  A    between atoms: C_7  and  O_8
REMARK                            x       y       z     vdW  Elec       q    Type
REMARK                         _______ _______ _______ _____ _____    ______ ____
ROOT
ATOM      1  N   UNL     1       8.901  -2.224  22.919  0.00  0.00    -0.172 N 
ATOM      2  C   UNL     1       8.986  -3.161  23.956  0.00  0.00    +0.337 C 
ATOM      3  N   UNL     1       9.892  -3.955  24.422  0.00  0.00    +0.025 NA
ATOM      4  C   UNL     1       9.473  -4.669  25.531  0.00  0.00    +0.458 C 
ATOM      5  N   UNL     1       8.701  -4.074  26.466  0.00  0.00    -0.162 N 
ATOM      6  H   UNL     1       8.539  -4.551  27.337  0.00  0.00    +0.255 HD
ATOM      7  C   UNL     1       7.745  -3.137  26.073  0.00  0.00    +0.313 C 
ATOM      8  O   UNL     1       7.064  -2.501  26.868  0.00  0.00    -0.254 OA
ATOM      9  N   UNL     1       9.758  -5.915  25.664  0.00  0.00    -0.120 NA
ATOM     10  H   UNL     1      10.269  -6.224  24.833  0.00  0.00    +0.307 HD
ATOM     11  C   UNL     1       7.591  -3.209  24.577  0.00  0.00    +0.325 C 
ATOM     12  N   UNL     1       6.779  -2.204  23.835  0.00  0.00    -0.228 NA
ATOM     13  C   UNL     1       7.557  -1.903  22.839  0.00  0.00    +0.302 C 
ENDROOT
BRANCH   1  19
ATOM     14  C   UNL     1      10.104  -0.036  25.128  0.00  0.00    +0.012 C 
ATOM     15  C   UNL     1       9.554  -0.025  23.901  0.00  0.00    -0.026 C 
ATOM     16  C   UNL     1       8.569   1.013  23.365  0.00  0.00    +0.072 C 
ATOM     17  C   UNL     1       8.899   1.052  21.863  0.00  0.00    +0.128 C 
ATOM     18  C   UNL     1       9.761  -0.193  21.552  0.00  0.00    +0.084 C 
ATOM     19  C   UNL     1       9.862  -1.069  22.819  0.00  0.00    +0.203 C 
BRANCH  17  20
ATOM     20  O   UNL     1       9.586   2.226  21.435  0.00  0.00    -0.391 OA
ATOM     21  H   UNL     1       9.014   3.009  21.577  0.00  0.00    +0.210 HD
ENDBRANCH  17  20
BRANCH  16  22
ATOM     22  C   UNL     1       8.442   2.363  24.074  0.00  0.00    +0.166 C 
BRANCH  22  23
ATOM     23  O   UNL     1       9.659   3.095  23.999  0.00  0.00    -0.394 OA
ATOM     24  H   UNL     1       9.714   3.626  24.812  0.00  0.00    +0.209 HD
ENDBRANCH  22  23
ENDBRANCH  16  22
ENDBRANCH   1  19
TORSDOF 4
REMARK  Name = 
REMARK  4 active torsions:
REMARK  status: ('A' for Active; 'I' for Inactive)
REMARK    1  A    between atoms: C_3  and  N_10
REMARK    2  A    between atoms: C_5  and  O_9
REMARK    3  A    between atoms: C_6  and  C_7
REMARK    4  A    between atoms: C_7  and  O_8
REMARK                            x       y       z     vdW  Elec       q    Type
REMARK                         _______ _______ _______ _____ _____    ______ ____

ENDMDL
MODEL 2
REMARK VINA RESULT:      -7.2      1.654      2.435
REMARK  Name = 
REMARK  4 active torsions:
REMARK  status: ('A' for Active; 'I' for Inactive)
REMARK    1  A    between atoms: C_3  and  N_10
REMARK    2  A    between atoms: C_5  and  O_9
REMARK    3  A    between atoms: C_6  and  C_7
REMARK    4  A    between atoms: C_7  and  O_8
REMARK                            x       y       z     vdW  Elec       q    Type
REMARK                         _______ _______ _______ _____ _____    ______ ____
ROOT
ATOM      1  N   UNL     1       8.061  -2.666  22.668  0.00  0.00    -0.172 N 
ATOM      2  C   UNL     1       8.472  -3.589  23.636  0.00  0.00    +0.337 C 
ATOM      3  N   UNL     1       9.452  -3.689  24.473  0.00  0.00    +0.025 NA
ATOM      4  C   UNL     1       9.373  -4.816  25.273  0.00  0.00    +0.458 C 
ATOM      5  N   UNL     1       8.176  -5.226  25.744  0.00  0.00    -0.162 N 
ATOM      6  H   UNL     1       8.153  -5.944  26.449  0.00  0.00    +0.255 HD
ATOM      7  C   UNL     1       7.039  -5.086  24.950  0.00  0.00    +0.313 C 
ATOM      8  O   UNL     1       5.910  -5.364  25.339  0.00  0.00    -0.254 OA
ATOM      9  N   UNL     1      10.417  -5.519  25.532  0.00  0.00    -0.120 NA
ATOM     10  H   UNL     1      11.214  -5.119  25.030  0.00  0.00    +0.307 HD
ATOM     11  C   UNL     1       7.472  -4.741  23.550  0.00  0.00    +0.325 C 
ATOM     12  N   UNL     1       6.482  -4.346  22.510  0.00  0.00    -0.228 NA
ATOM     13  C   UNL     1       7.044  -3.301  21.978  0.00  0.00    +0.302 C 
ENDROOT
BRANCH   1  19
ATOM     14  C   UNL     1       9.410   0.196  21.615  0.00  0.00    +0.012 C 
ATOM     15  C   UNL     1       9.102  -0.401  22.780  0.00  0.00    -0.026 C 
ATOM     16  C   UNL     1       9.932  -0.354  24.062  0.00  0.00    +0.072 C 
ATOM     17  C   UNL     1       8.862  -0.435  25.165  0.00  0.00    +0.128 C 
ATOM     18  C   UNL     1       7.548  -0.893  24.492  0.00  0.00    +0.084 C 
ATOM     19  C   UNL     1       7.823  -1.218  23.009  0.00  0.00    +0.203 C 
BRANCH  17  20
ATOM     20  O   UNL     1       8.638   0.785  25.867  0.00  0.00    -0.391 OA
ATOM     21  H   UNL     1       9.294   0.870  26.592  0.00  0.00    +0.210 HD
ENDBRANCH  17  20
BRANCH  16  22
ATOM     22  C   UNL     1      11.003   0.727  24.224  0.00  0.00    +0.166 C 
BRANCH  22  23
ATOM     23  O   UNL     1      10.419   2.023  24.245  0.00  0.00    -0.394 OA
ATOM     24  H   UNL     1      10.291   2.256  25.182  0.00  0.00    +0.209 HD
ENDBRANCH  22  23
ENDBRANCH  16  22
ENDBRANCH   1  19
TORSDOF 4
REMARK  Name = 
REMARK  4 active torsions:
REMARK  status: ('A' for Active; 'I' for Inactive)
REMARK    1  A    between atoms: C_3  and  N_10
REMARK    2  A    between atoms: C_5  and  O_9
REMARK    3  A    between atoms: C_6  and  C_7
REMARK    4  A    between atoms: C_7  and  O_8
REMARK                            x       y       z     vdW  Elec       q    Type
REMARK                         _______ _______ _______ _____ _____    ______ ____

ENDMDL
MODEL 3
REMARK VINA RESULT:      -7.1      4.185      6.799
REMARK  Name = 
REMARK  4 active torsions:
REMARK  status: ('A' for Active; 'I' for Inactive)
REMARK    1  A    between atoms: C_3  and  N_10
REMARK    2  A    between atoms: C_5  and  O_9
REMARK    3  A    between atoms: C_6  and  C_7
REMARK    4  A    between atoms: C_7  and  O_8
REMARK                            x       y       z     vdW  Elec       q    Type
REMARK                         _______ _______ _______ _____ _____    ______ ____
ROOT
ATOM      1  N   UNL     1       9.345   2.411  24.108  0.00  0.00    -0.172 N 
ATOM      2  C   UNL     1      10.238   3.462  23.865  0.00  0.00    +0.337 C 
ATOM      3  N   UNL     1      11.415   3.583  23.346  0.00  0.00    +0.025 NA
ATOM      4  C   UNL     1      11.856   4.894  23.296  0.00  0.00    +0.458 C 
ATOM      5  N   UNL     1      10.992   5.886  22.990  0.00  0.00    -0.162 N 
ATOM      6  H   UNL     1      11.356   6.805  22.800  0.00  0.00    +0.255 HD
ATOM      7  C   UNL     1       9.672   5.810  23.433  0.00  0.00    +0.313 C 
ATOM      8  O   UNL     1       8.815   6.631  23.130  0.00  0.00    -0.254 OA
ATOM      9  N   UNL     1      13.069   5.197  23.594  0.00  0.00    -0.120 NA
ATOM     10  H   UNL     1      13.557   4.346  23.883  0.00  0.00    +0.307 HD
ATOM     11  C   UNL     1       9.572   4.706  24.452  0.00  0.00    +0.325 C 
ATOM     12  N   UNL     1       8.253   4.254  24.976  0.00  0.00    -0.228 NA
ATOM     13  C   UNL     1       8.358   2.961  24.907  0.00  0.00    +0.302 C 
ENDROOT
BRANCH   1  19
ATOM     14  C   UNL     1       6.959   0.093  23.897  0.00  0.00    +0.012 C 
ATOM     15  C   UNL     1       8.260   0.226  23.586  0.00  0.00    -0.026 C 
ATOM     16  C   UNL     1       9.335  -0.851  23.729  0.00  0.00    +0.072 C 
ATOM     17  C   UNL     1      10.304  -0.520  22.580  0.00  0.00    +0.128 C 
ATOM     18  C   UNL     1       9.958   0.904  22.087  0.00  0.00    +0.084 C 
ATOM     19  C   UNL     1       8.871   1.507  23.001  0.00  0.00    +0.203 C 
BRANCH  17  20
ATOM     20  O   UNL     1      10.257  -1.429  21.482  0.00  0.00    -0.391 OA
ATOM     21  H   UNL     1       9.839  -2.268  21.770  0.00  0.00    +0.210 HD
ENDBRANCH  17  20
BRANCH  16  22
ATOM     22  C   UNL     1       8.916  -2.315  23.871  0.00  0.00    +0.166 C 
BRANCH  22  23
ATOM     23  O   UNL     1      10.053  -3.165  23.955  0.00  0.00    -0.394 OA
ATOM     24  H   UNL     1      10.189  -3.538  23.066  0.00  0.00    +0.209 HD
ENDBRANCH  22  23
ENDBRANCH  16  22
ENDBRANCH   1  19
TORSDOF 4
REMARK  Name = 
REMARK  4 active torsions:
REMARK  status: ('A' for Active; 'I' for Inactive)
REMARK    1  A    between atoms: C_3  and  N_10
REMARK    2  A    between atoms: C_5  and  O_9
REMARK    3  A    between atoms: C_6  and  C_7
REMARK    4  A    between atoms: C_7  and  O_8
REMARK                            x       y       z     vdW  Elec       q    Type
REMARK                         _______ _______ _______ _____ _____    ______ ____

ENDMDL
MODEL 4
REMARK VINA RESULT:      -7.1      2.797      6.307
REMARK  Name = 
REMARK  4 active torsions:
REMARK  status: ('A' for Active; 'I' for Inactive)
REMARK    1  A    between atoms: C_3  and  N_10
REMARK    2  A    between atoms: C_5  and  O_9
REMARK    3  A    between atoms: C_6  and  C_7
REMARK    4  A    between atoms: C_7  and  O_8
REMARK                            x       y       z     vdW  Elec       q    Type
REMARK                         _______ _______ _______ _____ _____    ______ ____
ROOT
ATOM      1  N   UNL     1       7.048  -3.518  24.027  0.00  0.00    -0.172 N 
ATOM      2  C   UNL     1       7.866  -2.452  24.418  0.00  0.00    +0.337 C 
ATOM      3  N   UNL     1       8.215  -1.906  25.536  0.00  0.00    +0.025 NA
ATOM      4  C   UNL     1       9.117  -0.868  25.378  0.00  0.00    +0.458 C 
ATOM      5  N   UNL     1      10.101  -0.963  24.457  0.00  0.00    -0.162 N 
ATOM      6  H   UNL     1      10.838  -0.278  24.464  0.00  0.00    +0.255 HD
ATOM      7  C   UNL     1       9.851  -1.608  23.247  0.00  0.00    +0.313 C 
ATOM      8  O   UNL     1      10.714  -1.800  22.398  0.00  0.00    -0.254 OA
ATOM      9  N   UNL     1       9.002   0.219  26.054  0.00  0.00    -0.120 NA
ATOM     10  H   UNL     1       8.162   0.155  26.635  0.00  0.00    +0.307 HD
ATOM     11  C   UNL     1       8.366  -1.824  23.117  0.00  0.00    +0.325 C 
ATOM     12  N   UNL     1       7.799  -2.655  22.019  0.00  0.00    -0.228 NA
ATOM     13  C   UNL     1       6.945  -3.402  22.652  0.00  0.00    +0.302 C 
ENDROOT
BRANCH   1  19
ATOM     14  C   UNL     1       5.055  -6.165  24.394  0.00  0.00    +0.012 C 
ATOM     15  C   UNL     1       5.946  -5.470  25.123  0.00  0.00    -0.026 C 
ATOM     16  C   UNL     1       5.832  -5.141  26.611  0.00  0.00    +0.072 C 
ATOM     17  C   UNL     1       7.301  -5.112  27.068  0.00  0.00    +0.128 C 
ATOM     18  C   UNL     1       8.174  -5.049  25.793  0.00  0.00    +0.084 C 
ATOM     19  C   UNL     1       7.259  -4.911  24.558  0.00  0.00    +0.203 C 
BRANCH  17  20
ATOM     20  O   UNL     1       7.698  -6.225  27.864  0.00  0.00    -0.391 OA
ATOM     21  H   UNL     1       7.169  -6.242  28.690  0.00  0.00    +0.210 HD
ENDBRANCH  17  20
BRANCH  16  22
ATOM     22  C   UNL     1       4.859  -5.935  27.483  0.00  0.00    +0.166 C 
BRANCH  22  23
ATOM     23  O   UNL     1       5.237  -7.304  27.553  0.00  0.00    -0.394 OA
ATOM     24  H   UNL     1       6.054  -7.394  27.032  0.00  0.00    +0.209 HD
ENDBRANCH  22  23
ENDBRANCH  16  22
ENDBRANCH   1  19
TORSDOF 4
REMARK  Name = 
REMARK  4 active torsions:
REMARK  status: ('A' for Active; 'I' for Inactive)
REMARK    1  A    between atoms: C_3  and  N_10
REMARK    2  A    between atoms: C_5  and  O_9
REMARK    3  A    between atoms: C_6  and  C_7
REMARK    4  A    between atoms: C_7  and  O_8
REMARK                            x       y       z     vdW  Elec       q    Type
REMARK                         _______ _______ _______ _____ _____    ______ ____

ENDMDL
MODEL 5
REMARK VINA RESULT:      -6.9      1.375      2.224
REMARK  Name = 
REMARK  4 active torsions:
REMARK  status: ('A' for Active; 'I' for Inactive)
REMARK    1  A    between atoms: C_3  and  N_10
REMARK    2  A    between atoms: C_5  and  O_9
REMARK    3  A    between atoms: C_6  and  C_7
REMARK    4  A    between atoms: C_7  and  O_8
REMARK                            x       y       z     vdW  Elec       q    Type
REMARK                         _______ _______ _______ _____ _____    ______ ____
ROOT
ATOM      1  N   UNL     1       7.459  -2.044  24.280  0.00  0.00    -0.172 N 
ATOM      2  C   UNL     1       8.086  -3.168  24.833  0.00  0.00    +0.337 C 
ATOM      3  N   UNL     1       9.293  -3.621  24.902  0.00  0.00    +0.025 NA
ATOM      4  C   UNL     1       9.394  -4.796  25.628  0.00  0.00    +0.458 C 
ATOM      5  N   UNL     1       8.657  -4.962  26.747  0.00  0.00    -0.162 N 
ATOM      6  H   UNL     1       8.858  -5.745  27.347  0.00  0.00    +0.255 HD
ATOM      7  C   UNL     1       7.367  -4.437  26.806  0.00  0.00    +0.313 C 
ATOM      8  O   UNL     1       6.670  -4.481  27.813  0.00  0.00    -0.254 OA
ATOM      9  N   UNL     1      10.137  -5.763  25.224  0.00  0.00    -0.120 NA
ATOM     10  H   UNL     1      10.552  -5.504  24.325  0.00  0.00    +0.307 HD
ATOM     11  C   UNL     1       6.958  -4.015  25.420  0.00  0.00    +0.325 C 
ATOM     12  N   UNL     1       5.704  -3.246  25.184  0.00  0.00    -0.228 NA
ATOM     13  C   UNL     1       6.104  -2.307  24.379  0.00  0.00    +0.302 C 
ENDROOT
BRANCH   1  19
ATOM     14  C   UNL     1       6.995   0.936  22.860  0.00  0.00    +0.012 C 
ATOM     15  C   UNL     1       8.007   0.214  23.371  0.00  0.00    -0.026 C 
ATOM     16  C   UNL     1       9.430   0.139  22.818  0.00  0.00    +0.072 C 
ATOM     17  C   UNL     1      10.277  -0.078  24.084  0.00  0.00    +0.128 C 
ATOM     18  C   UNL     1       9.308  -0.484  25.218  0.00  0.00    +0.084 C 
ATOM     19  C   UNL     1       7.887  -0.646  24.638  0.00  0.00    +0.203 C 
BRANCH  17  20
ATOM     20  O   UNL     1      11.038   1.057  24.492  0.00  0.00    -0.391 OA
ATOM     21  H   UNL     1      11.447   1.476  23.705  0.00  0.00    +0.210 HD
ENDBRANCH  17  20
BRANCH  16  22
ATOM     22  C   UNL     1       9.915   1.215  21.845  0.00  0.00    +0.166 C 
BRANCH  22  23
ATOM     23  O   UNL     1       9.948   2.491  22.471  0.00  0.00    -0.394 OA
ATOM     24  H   UNL     1       9.178   2.984  22.139  0.00  0.00    +0.209 HD
ENDBRANCH  22  23
ENDBRANCH  16  22
ENDBRANCH   1  19
TORSDOF 4
REMARK  Name = 
REMARK  4 active torsions:
REMARK  status: ('A' for Active; 'I' for Inactive)
REMARK    1  A    between atoms: C_3  and  N_10
REMARK    2  A    between atoms: C_5  and  O_9
REMARK    3  A    between atoms: C_6  and  C_7
REMARK    4  A    between atoms: C_7  and  O_8
REMARK                            x       y       z     vdW  Elec       q    Type
REMARK                         _______ _______ _______ _____ _____    ______ ____

ENDMDL
MODEL 6
REMARK VINA RESULT:      -6.9      1.863      2.616
REMARK  Name = 
REMARK  4 active torsions:
REMARK  status: ('A' for Active; 'I' for Inactive)
REMARK    1  A    between atoms: C_3  and  N_10
REMARK    2  A    between atoms: C_5  and  O_9
REMARK    3  A    between atoms: C_6  and  C_7
REMARK    4  A    between atoms: C_7  and  O_8
REMARK                            x       y       z     vdW  Elec       q    Type
REMARK                         _______ _______ _______ _____ _____    ______ ____
ROOT
ATOM      1  N   UNL     1       8.270  -1.424  24.028  0.00  0.00    -0.172 N 
ATOM      2  C   UNL     1       7.656  -2.569  23.505  0.00  0.00    +0.337 C 
ATOM      3  N   UNL     1       7.023  -2.874  22.421  0.00  0.00    +0.025 NA
ATOM      4  C   UNL     1       6.642  -4.204  22.368  0.00  0.00    +0.458 C 
ATOM      5  N   UNL     1       7.472  -5.163  22.834  0.00  0.00    -0.162 N 
ATOM      6  H   UNL     1       7.254  -6.127  22.644  0.00  0.00    +0.255 HD
ATOM      7  C   UNL     1       8.262  -4.904  23.953  0.00  0.00    +0.313 C 
ATOM      8  O   UNL     1       9.092  -5.695  24.386  0.00  0.00    -0.254 OA
ATOM      9  N   UNL     1       5.482  -4.544  21.933  0.00  0.00    -0.120 NA
ATOM     10  H   UNL     1       4.957  -3.697  21.705  0.00  0.00    +0.307 HD
ATOM     11  C   UNL     1       7.779  -3.631  24.597  0.00  0.00    +0.325 C 
ATOM     12  N   UNL     1       8.537  -2.990  25.707  0.00  0.00    -0.228 NA
ATOM     13  C   UNL     1       8.553  -1.742  25.345  0.00  0.00    +0.302 C 
ENDROOT
BRANCH   1  19
ATOM     14  C   UNL     1      10.823   0.502  24.968  0.00  0.00    +0.012 C 
ATOM     15  C   UNL     1       9.821   0.529  24.072  0.00  0.00    -0.026 C 
ATOM     16  C   UNL     1       9.004   1.757  23.673  0.00  0.00    +0.072 C 
ATOM     17  C   UNL     1       8.651   1.469  22.203  0.00  0.00    +0.128 C 
ATOM     18  C   UNL     1       8.944  -0.027  21.948  0.00  0.00    +0.084 C 
ATOM     19  C   UNL     1       9.353  -0.698  23.277  0.00  0.00    +0.203 C 
BRANCH  17  20
ATOM     20  O   UNL     1       9.362   2.262  21.255  0.00  0.00    -0.391 OA
ATOM     21  H   UNL     1       8.906   3.124  21.143  0.00  0.00    +0.210 HD
ENDBRANCH  17  20
BRANCH  16  22
ATOM     22  C   UNL     1       9.544   3.153  23.987  0.00  0.00    +0.166 C 
BRANCH  22  23
ATOM     23  O   UNL     1      10.733   3.417  23.253  0.00  0.00    -0.394 OA
ATOM     24  H   UNL     1      10.655   4.325  22.913  0.00  0.00    +0.209 HD
ENDBRANCH  22  23
ENDBRANCH  16  22
ENDBRANCH   1  19
TORSDOF 4
REMARK  Name = 
REMARK  4 active torsions:
REMARK  status: ('A' for Active; 'I' for Inactive)
REMARK    1  A    between atoms: C_3  and  N_10
REMARK    2  A    between atoms: C_5  and  O_9
REMARK    3  A    between atoms: C_6  and  C_7
REMARK    4  A    between atoms: C_7  and  O_8
REMARK                            x       y       z     vdW  Elec       q    Type
REMARK                         _______ _______ _______ _____ _____    ______ ____

ENDMDL
MODEL 7
REMARK VINA RESULT:      -6.6      2.182      3.207
REMARK  Name = 
REMARK  4 active torsions:
REMARK  status: ('A' for Active; 'I' for Inactive)
REMARK    1  A    between atoms: C_3  and  N_10
REMARK    2  A    between atoms: C_5  and  O_9
REMARK    3  A    between atoms: C_6  and  C_7
REMARK    4  A    between atoms: C_7  and  O_8
REMARK                            x       y       z     vdW  Elec       q    Type
REMARK                         _______ _______ _______ _____ _____    ______ ____
ROOT
ATOM      1  N   UNL     1       7.476  -1.751  25.086  0.00  0.00    -0.172 N 
ATOM      2  C   UNL     1       6.762  -2.797  24.489  0.00  0.00    +0.337 C 
ATOM      3  N   UNL     1       6.496  -3.175  23.282  0.00  0.00    +0.025 NA
ATOM      4  C   UNL     1       5.763  -4.348  23.228  0.00  0.00    +0.458 C 
ATOM      5  N   UNL     1       6.026  -5.350  24.094  0.00  0.00    -0.162 N 
ATOM      6  H   UNL     1       5.600  -6.248  23.940  0.00  0.00    +0.255 HD
ATOM      7  C   UNL     1       6.404  -5.047  25.402  0.00  0.00    +0.313 C 
ATOM      8  O   UNL     1       6.732  -5.898  26.219  0.00  0.00    -0.254 OA
ATOM      9  N   UNL     1       4.790  -4.482  22.400  0.00  0.00    -0.120 NA
ATOM     10  H   UNL     1       4.675  -3.606  21.884  0.00  0.00    +0.307 HD
ATOM     11  C   UNL     1       6.149  -3.583  25.647  0.00  0.00    +0.325 C 
ATOM     12  N   UNL     1       6.622  -2.914  26.891  0.00  0.00    -0.228 NA
ATOM     13  C   UNL     1       7.156  -1.823  26.430  0.00  0.00    +0.302 C 
ENDROOT
BRANCH   1  19
ATOM     14  C   UNL     1       9.329   1.009  24.829  0.00  0.00    +0.012 C 
ATOM     15  C   UNL     1       9.096  -0.114  24.126  0.00  0.00    -0.026 C 
ATOM     16  C   UNL     1       8.989  -0.219  22.605  0.00  0.00    +0.072 C 
ATOM     17  C   UNL     1       9.525  -1.633  22.322  0.00  0.00    +0.128 C 
ATOM     18  C   UNL     1       9.555  -2.388  23.671  0.00  0.00    +0.084 C 
ATOM     19  C   UNL     1       8.925  -1.500  24.764  0.00  0.00    +0.203 C 
BRANCH  17  20
ATOM     20  O   UNL     1      10.819  -1.670  21.726  0.00  0.00    -0.391 OA
ATOM     21  H   UNL     1      10.974  -0.839  21.229  0.00  0.00    +0.210 HD
ENDBRANCH  17  20
BRANCH  16  22
ATOM     22  C   UNL     1       9.542   0.910  21.734  0.00  0.00    +0.166 C 
BRANCH  22  23
ATOM     23  O   UNL     1       8.502   1.541  20.997  0.00  0.00    -0.394 OA
ATOM     24  H   UNL     1       8.046   2.139  21.615  0.00  0.00    +0.209 HD
ENDBRANCH  22  23
ENDBRANCH  16  22
ENDBRANCH   1  19
TORSDOF 4
REMARK  Name = 
REMARK  4 active torsions:
REMARK  status: ('A' for Active; 'I' for Inactive)
REMARK    1  A    between atoms: C_3  and  N_10
REMARK    2  A    between atoms: C_5  and  O_9
REMARK    3  A    between atoms: C_6  and  C_7
REMARK    4  A    between atoms: C_7  and  O_8
REMARK                            x       y       z     vdW  Elec       q    Type
REMARK                         _______ _______ _______ _____ _____    ______ ____

ENDMDL
MODEL 8
REMARK VINA RESULT:      -6.6      2.631      5.791
REMARK  Name = 
REMARK  4 active torsions:
REMARK  status: ('A' for Active; 'I' for Inactive)
REMARK    1  A    between atoms: C_3  and  N_10
REMARK    2  A    between atoms: C_5  and  O_9
REMARK    3  A    between atoms: C_6  and  C_7
REMARK    4  A    between atoms: C_7  and  O_8
REMARK                            x       y       z     vdW  Elec       q    Type
REMARK                         _______ _______ _______ _____ _____    ______ ____
ROOT
ATOM      1  N   UNL     1       8.148  -1.274  22.441  0.00  0.00    -0.172 N 
ATOM      2  C   UNL     1       8.445   0.082  22.619  0.00  0.00    +0.337 C 
ATOM      3  N   UNL     1       7.768   1.176  22.741  0.00  0.00    +0.025 NA
ATOM      4  C   UNL     1       8.565   2.289  22.950  0.00  0.00    +0.458 C 
ATOM      5  N   UNL     1       9.655   2.200  23.742  0.00  0.00    -0.162 N 
ATOM      6  H   UNL     1      10.128   3.047  24.012  0.00  0.00    +0.255 HD
ATOM      7  C   UNL     1      10.409   1.027  23.746  0.00  0.00    +0.313 C 
ATOM      8  O   UNL     1      11.363   0.846  24.494  0.00  0.00    -0.254 OA
ATOM      9  N   UNL     1       8.319   3.401  22.354  0.00  0.00    -0.120 NA
ATOM     10  H   UNL     1       7.518   3.269  21.732  0.00  0.00    +0.307 HD
ATOM     11  C   UNL     1       9.970   0.172  22.587  0.00  0.00    +0.325 C 
ATOM     12  N   UNL     1      10.459  -1.226  22.430  0.00  0.00    -0.228 NA
ATOM     13  C   UNL     1       9.364  -1.871  22.157  0.00  0.00    +0.302 C 
ENDROOT
BRANCH   1  19
ATOM     14  C   UNL     1       8.403  -2.081  25.665  0.00  0.00    +0.012 C 
ATOM     15  C   UNL     1       8.093  -2.680  24.502  0.00  0.00    -0.026 C 
ATOM     16  C   UNL     1       8.485  -4.097  24.086  0.00  0.00    +0.072 C 
ATOM     17  C   UNL     1       7.309  -4.528  23.191  0.00  0.00    +0.128 C 
ATOM     18  C   UNL     1       6.514  -3.250  22.838  0.00  0.00    +0.084 C 
ATOM     19  C   UNL     1       7.255  -2.018  23.399  0.00  0.00    +0.203 C 
BRANCH  17  20
ATOM     20  O   UNL     1       6.434  -5.487  23.780  0.00  0.00    -0.391 OA
ATOM     21  H   UNL     1       5.550  -5.084  23.913  0.00  0.00    +0.210 HD
ENDBRANCH  17  20
BRANCH  16  22
ATOM     22  C   UNL     1       8.934  -5.096  25.154  0.00  0.00    +0.166 C 
BRANCH  22  23
ATOM     23  O   UNL     1      10.337  -5.319  25.086  0.00  0.00    -0.394 OA
ATOM     24  H   UNL     1      10.732  -4.501  24.735  0.00  0.00    +0.209 HD
ENDBRANCH  22  23
ENDBRANCH  16  22
ENDBRANCH   1  19
TORSDOF 4
REMARK  Name = 
REMARK  4 active torsions:
REMARK  status: ('A' for Active; 'I' for Inactive)
REMARK    1  A    between atoms: C_3  and  N_10
REMARK    2  A    between atoms: C_5  and  O_9
REMARK    3  A    between atoms: C_6  and  C_7
REMARK    4  A    between atoms: C_7  and  O_8
REMARK                            x       y       z     vdW  Elec       q    Type
REMARK                         _______ _______ _______ _____ _____    ______ ____

ENDMDL
MODEL 9
REMARK VINA RESULT:      -6.6      1.895      3.151
REMARK  Name = 
REMARK  4 active torsions:
REMARK  status: ('A' for Active; 'I' for Inactive)
REMARK    1  A    between atoms: C_3  and  N_10
REMARK    2  A    between atoms: C_5  and  O_9
REMARK    3  A    between atoms: C_6  and  C_7
REMARK    4  A    between atoms: C_7  and  O_8
REMARK                            x       y       z     vdW  Elec       q    Type
REMARK                         _______ _______ _______ _____ _____    ______ ____
ROOT
ATOM      1  N   UNL     1       8.222  -0.128  25.127  0.00  0.00    -0.172 N 
ATOM      2  C   UNL     1       7.847  -1.179  24.282  0.00  0.00    +0.337 C 
ATOM      3  N   UNL     1       7.331  -1.288  23.102  0.00  0.00    +0.025 NA
ATOM      4  C   UNL     1       7.196  -2.601  22.685  0.00  0.00    +0.458 C 
ATOM      5  N   UNL     1       8.160  -3.502  22.971  0.00  0.00    -0.162 N 
ATOM      6  H   UNL     1       8.127  -4.405  22.527  0.00  0.00    +0.255 HD
ATOM      7  C   UNL     1       8.838  -3.422  24.187  0.00  0.00    +0.313 C 
ATOM      8  O   UNL     1       9.774  -4.155  24.482  0.00  0.00    -0.254 OA
ATOM      9  N   UNL     1       6.137  -2.997  22.075  0.00  0.00    -0.120 NA
ATOM     10  H   UNL     1       5.480  -2.215  22.017  0.00  0.00    +0.307 HD
ATOM     11  C   UNL     1       8.106  -2.456  25.080  0.00  0.00    +0.325 C 
ATOM     12  N   UNL     1       8.685  -2.015  26.380  0.00  0.00    -0.228 NA
ATOM     13  C   UNL     1       8.495  -0.730  26.343  0.00  0.00    +0.302 C 
ENDROOT
BRANCH   1  19
ATOM     14  C   UNL     1       8.217   3.201  25.286  0.00  0.00    +0.012 C 
ATOM     15  C   UNL     1       8.448   2.240  24.375  0.00  0.00    -0.026 C 
ATOM     16  C   UNL     1       8.046   2.280  22.901  0.00  0.00    +0.072 C 
ATOM     17  C   UNL     1       9.158   1.462  22.221  0.00  0.00    +0.128 C 
ATOM     18  C   UNL     1       9.908   0.698  23.336  0.00  0.00    +0.084 C 
ATOM     19  C   UNL     1       9.193   0.933  24.683  0.00  0.00    +0.203 C 
BRANCH  17  20
ATOM     20  O   UNL     1      10.087   2.235  21.466  0.00  0.00    -0.391 OA
ATOM     21  H   UNL     1       9.901   3.189  21.596  0.00  0.00    +0.210 HD
ENDBRANCH  17  20
BRANCH  16  22
ATOM     22  C   UNL     1       7.690   3.621  22.256  0.00  0.00    +0.166 C 
BRANCH  22  23
ATOM     23  O   UNL     1       6.342   3.628  21.804  0.00  0.00    -0.394 OA
ATOM     24  H   UNL     1       5.783   3.529  22.594  0.00  0.00    +0.209 HD
ENDBRANCH  22  23
ENDBRANCH  16  22
ENDBRANCH   1  19
TORSDOF 4
REMARK  Name = 
REMARK  4 active torsions:
REMARK  status: ('A' for Active; 'I' for Inactive)
REMARK    1  A    between atoms: C_3  and  N_10
REMARK    2  A    between atoms: C_5  and  O_9
REMARK    3  A    between atoms: C_6  and  C_7
REMARK    4  A    between atoms: C_7  and  O_8
REMARK                            x       y       z     vdW  Elec       q    Type
REMARK                         _______ _______ _______ _____ _____    ______ ____

ENDMDL
