MODEL 1
REMARK VINA RESULT:      -6.0      0.000      0.000
REMARK  Name = 
REMARK  12 active torsions:
REMARK  status: ('A' for Active; 'I' for Inactive)
REMARK    1  A    between atoms: C_1  and  C_2
REMARK    2  A    between atoms: C_2  and  C_3
REMARK    3  A    between atoms: C_3  and  C_4
REMARK    4  A    between atoms: C_3  and  C_6
REMARK    5  A    between atoms: C_4  and  C_5
REMARK    6  A    between atoms: C_6  and  C_7
REMARK    7  A    between atoms: C_6  and  N_24
REMARK    8  A    between atoms: C_9  and  N_20
REMARK    9  A    between atoms: C_12  and  C_17
REMARK   10  A    between atoms: C_14  and  O_16
REMARK   11  A    between atoms: C_17  and  O_19
REMARK   12  A    between atoms: C_25  and  C_27
REMARK                            x       y       z     vdW  Elec       q    Type
REMARK                         _______ _______ _______ _____ _____    ______ ____
ROOT
ATOM      1  C   UNL     1       8.142  -2.880  22.969  0.00  0.00    +0.079 C 
ATOM      2  C   UNL     1       9.133  -1.784  22.518  0.00  0.00    +0.137 C 
ATOM      3  C   UNL     1       9.947  -1.327  23.736  0.00  0.00    +0.130 C 
ATOM      4  C   UNL     1       9.731  -2.420  24.790  0.00  0.00    +0.062 C 
ATOM      5  C   UNL     1       8.942  -3.543  24.110  0.00  0.00    +0.196 C 
ENDROOT
BRANCH   5   6
ATOM      6  N   UNL     1       8.157  -4.233  25.123  0.00  0.00    -0.110 NA
ATOM      7  C   UNL     1       8.639  -5.249  25.733  0.00  0.00    +0.377 C 
ATOM      8  N   UNL     1       7.963  -5.758  26.784  0.00  0.00    -0.289 N 
ATOM      9  H   UNL     1       7.916  -6.761  26.870  0.00  0.00    +0.255 HD
ATOM     10  H   UNL     1       7.063  -5.307  26.908  0.00  0.00    +0.255 HD
ATOM     11  N   UNL     1       9.798  -5.902  25.523  0.00  0.00    -0.289 N 
ATOM     12  H   UNL     1       9.876  -6.849  25.864  0.00  0.00    +0.255 HD
ATOM     13  H   UNL     1      10.289  -5.729  24.659  0.00  0.00    +0.255 HD
ENDBRANCH   5   6
BRANCH   2  14
ATOM     14  O   UNL     1       8.652  -0.730  21.713  0.00  0.00    -0.391 OA
ATOM     15  H   UNL     1       9.176  -0.715  20.876  0.00  0.00    +0.210 HD
ENDBRANCH   2  14
BRANCH   3  16
ATOM     16  C   UNL     1       9.681   0.063  24.279  0.00  0.00    +0.310 C 
ATOM     17  O   UNL     1       9.539   1.066  23.594  0.00  0.00    -0.251 OA
BRANCH  16  18
ATOM     18  O   UNL     1       9.482   0.087  25.617  0.00  0.00    -0.480 OA
ATOM     19  H   UNL     1       8.874  -0.627  25.913  0.00  0.00    +0.295 HD
ENDBRANCH  16  18
ENDBRANCH   3  16
BRANCH   1  20
ATOM     20  C   UNL     1       6.638  -2.565  23.225  0.00  0.00    +0.085 C 
BRANCH  20  21
ATOM     21  N   UNL     1       6.341  -1.134  23.244  0.00  0.00    -0.312 N 
ATOM     22  H   UNL     1       6.080  -0.717  22.358  0.00  0.00    +0.149 HD
ATOM     23  C   UNL     1       6.279  -0.356  24.373  0.00  0.00    +0.210 C 
ATOM     24  C   UNL     1       6.014   1.101  24.120  0.00  0.00    +0.109 C 
ATOM     25  O   UNL     1       6.459  -0.805  25.502  0.00  0.00    -0.276 OA
ENDBRANCH  20  21
BRANCH  20  26
ATOM     26  C   UNL     1       5.594  -3.389  22.376  0.00  0.00    +0.009 C 
BRANCH  26  28
ATOM     27  C   UNL     1       6.172  -5.846  21.871  0.00  0.00    +0.004 C 
ATOM     28  C   UNL     1       6.263  -4.396  21.409  0.00  0.00    +0.002 C 
ENDBRANCH  26  28
BRANCH  26  29
ATOM     29  C   UNL     1       4.506  -4.059  23.264  0.00  0.00    +0.002 C 
ATOM     30  C   UNL     1       4.583  -3.756  24.755  0.00  0.00    +0.004 C 
ENDBRANCH  26  29
ENDBRANCH  20  26
ENDBRANCH   1  20
TORSDOF 9
ENDMDL
MODEL 2
REMARK VINA RESULT:      -5.6      2.291      5.641
REMARK  Name = 
REMARK  12 active torsions:
REMARK  status: ('A' for Active; 'I' for Inactive)
REMARK    1  A    between atoms: C_1  and  C_2
REMARK    2  A    between atoms: C_2  and  C_3
REMARK    3  A    between atoms: C_3  and  C_4
REMARK    4  A    between atoms: C_3  and  C_6
REMARK    5  A    between atoms: C_4  and  C_5
REMARK    6  A    between atoms: C_6  and  C_7
REMARK    7  A    between atoms: C_6  and  N_24
REMARK    8  A    between atoms: C_9  and  N_20
REMARK    9  A    between atoms: C_12  and  C_17
REMARK   10  A    between atoms: C_14  and  O_16
REMARK   11  A    between atoms: C_17  and  O_19
REMARK   12  A    between atoms: C_25  and  C_27
REMARK                            x       y       z     vdW  Elec       q    Type
REMARK                         _______ _______ _______ _____ _____    ______ ____
ROOT
ATOM      1  C   UNL     1       7.390  -1.929  22.868  0.00  0.00    +0.079 C 
ATOM      2  C   UNL     1       6.671  -3.268  22.587  0.00  0.00    +0.137 C 
ATOM      3  C   UNL     1       5.615  -3.496  23.676  0.00  0.00    +0.130 C 
ATOM      4  C   UNL     1       5.430  -2.127  24.343  0.00  0.00    +0.062 C 
ATOM      5  C   UNL     1       6.252  -1.122  23.528  0.00  0.00    +0.196 C 
ENDROOT
BRANCH   5   6
ATOM      6  N   UNL     1       6.665  -0.042  24.413  0.00  0.00    -0.110 NA
ATOM      7  C   UNL     1       6.469   1.177  24.079  0.00  0.00    +0.377 C 
ATOM      8  N   UNL     1       6.700   2.145  24.990  0.00  0.00    -0.289 N 
ATOM      9  H   UNL     1       7.148   2.990  24.672  0.00  0.00    +0.255 HD
ATOM     10  H   UNL     1       7.113   1.775  25.839  0.00  0.00    +0.255 HD
ATOM     11  N   UNL     1       5.996   1.681  22.924  0.00  0.00    -0.289 N 
ATOM     12  H   UNL     1       6.201   2.646  22.710  0.00  0.00    +0.255 HD
ATOM     13  H   UNL     1       5.965   1.074  22.119  0.00  0.00    +0.255 HD
ENDBRANCH   5   6
BRANCH   2  14
ATOM     14  O   UNL     1       7.454  -4.403  22.290  0.00  0.00    -0.391 OA
ATOM     15  H   UNL     1       7.749  -4.808  23.141  0.00  0.00    +0.210 HD
ENDBRANCH   2  14
BRANCH   3  16
ATOM     16  C   UNL     1       5.868  -4.601  24.682  0.00  0.00    +0.310 C 
ATOM     17  O   UNL     1       6.149  -5.757  24.395  0.00  0.00    -0.251 OA
BRANCH  16  18
ATOM     18  O   UNL     1       5.883  -4.167  25.963  0.00  0.00    -0.480 OA
ATOM     19  H   UNL     1       5.682  -4.889  26.600  0.00  0.00    +0.295 HD
ENDBRANCH  16  18
ENDBRANCH   3  16
BRANCH   1  20
ATOM     20  C   UNL     1       8.796  -1.882  23.536  0.00  0.00    +0.085 C 
BRANCH  20  21
ATOM     21  N   UNL     1       9.268  -3.191  23.985  0.00  0.00    -0.312 N 
ATOM     22  H   UNL     1       9.781  -3.740  23.305  0.00  0.00    +0.149 HD
ATOM     23  C   UNL     1       9.169  -3.669  25.267  0.00  0.00    +0.210 C 
ATOM     24  C   UNL     1       9.677  -5.069  25.458  0.00  0.00    +0.109 C 
ATOM     25  O   UNL     1       8.673  -3.018  26.183  0.00  0.00    -0.276 OA
ENDBRANCH  20  21
BRANCH  20  26
ATOM     26  C   UNL     1       9.909  -1.065  22.772  0.00  0.00    +0.009 C 
BRANCH  26  28
ATOM     27  C   UNL     1       9.328   1.126  21.553  0.00  0.00    +0.004 C 
ATOM     28  C   UNL     1       9.386  -0.396  21.478  0.00  0.00    +0.002 C 
ENDBRANCH  26  28
BRANCH  26  29
ATOM     29  C   UNL     1      10.645  -0.057  23.701  0.00  0.00    +0.002 C 
ATOM     30  C   UNL     1      10.096   0.070  25.115  0.00  0.00    +0.004 C 
ENDBRANCH  26  29
ENDBRANCH  20  26
ENDBRANCH   1  20
TORSDOF 9
ENDMDL
MODEL 3
REMARK VINA RESULT:      -5.4      1.388      3.097
REMARK  Name = 
REMARK  12 active torsions:
REMARK  status: ('A' for Active; 'I' for Inactive)
REMARK    1  A    between atoms: C_1  and  C_2
REMARK    2  A    between atoms: C_2  and  C_3
REMARK    3  A    between atoms: C_3  and  C_4
REMARK    4  A    between atoms: C_3  and  C_6
REMARK    5  A    between atoms: C_4  and  C_5
REMARK    6  A    between atoms: C_6  and  C_7
REMARK    7  A    between atoms: C_6  and  N_24
REMARK    8  A    between atoms: C_9  and  N_20
REMARK    9  A    between atoms: C_12  and  C_17
REMARK   10  A    between atoms: C_14  and  O_16
REMARK   11  A    between atoms: C_17  and  O_19
REMARK   12  A    between atoms: C_25  and  C_27
REMARK                            x       y       z     vdW  Elec       q    Type
REMARK                         _______ _______ _______ _____ _____    ______ ____
ROOT
ATOM      1  C   UNL     1       8.099  -2.703  22.958  0.00  0.00    +0.079 C 
ATOM      2  C   UNL     1       9.160  -1.691  22.471  0.00  0.00    +0.137 C 
ATOM      3  C   UNL     1      10.106  -1.373  23.636  0.00  0.00    +0.130 C 
ATOM      4  C   UNL     1       9.861  -2.486  24.661  0.00  0.00    +0.062 C 
ATOM      5  C   UNL     1       8.912  -3.494  24.004  0.00  0.00    +0.196 C 
ENDROOT
BRANCH   5   6
ATOM      6  N   UNL     1       8.140  -4.149  25.050  0.00  0.00    -0.110 NA
ATOM      7  C   UNL     1       8.612  -5.171  25.657  0.00  0.00    +0.377 C 
ATOM      8  N   UNL     1       7.955  -5.648  26.735  0.00  0.00    -0.289 N 
ATOM      9  H   UNL     1       7.882  -6.648  26.835  0.00  0.00    +0.255 HD
ATOM     10  H   UNL     1       7.073  -5.170  26.881  0.00  0.00    +0.255 HD
ATOM     11  N   UNL     1       9.744  -5.860  25.419  0.00  0.00    -0.289 N 
ATOM     12  H   UNL     1       9.806  -6.805  25.769  0.00  0.00    +0.255 HD
ATOM     13  H   UNL     1      10.213  -5.712  24.538  0.00  0.00    +0.255 HD
ENDBRANCH   5   6
BRANCH   2  14
ATOM     14  O   UNL     1       8.729  -0.559  21.747  0.00  0.00    -0.391 OA
ATOM     15  H   UNL     1       9.117   0.246  22.168  0.00  0.00    +0.210 HD
ENDBRANCH   2  14
BRANCH   3  16
ATOM     16  C   UNL     1      10.026   0.010  24.251  0.00  0.00    +0.310 C 
ATOM     17  O   UNL     1      10.020   1.057  23.619  0.00  0.00    -0.251 OA
BRANCH  16  18
ATOM     18  O   UNL     1       9.827  -0.009  25.589  0.00  0.00    -0.480 OA
ATOM     19  H   UNL     1      10.032   0.858  26.005  0.00  0.00    +0.295 HD
ENDBRANCH  16  18
ENDBRANCH   3  16
BRANCH   1  20
ATOM     20  C   UNL     1       6.659  -2.254  23.345  0.00  0.00    +0.085 C 
BRANCH  20  21
ATOM     21  N   UNL     1       5.743  -3.371  23.564  0.00  0.00    -0.312 N 
ATOM     22  H   UNL     1       5.441  -3.524  24.520  0.00  0.00    +0.149 HD
ATOM     23  C   UNL     1       5.183  -4.138  22.574  0.00  0.00    +0.210 C 
ATOM     24  C   UNL     1       4.319  -5.265  23.063  0.00  0.00    +0.109 C 
ATOM     25  O   UNL     1       5.396  -3.943  21.380  0.00  0.00    -0.276 OA
ENDBRANCH  20  21
BRANCH  20  26
ATOM     26  C   UNL     1       6.547  -1.149  24.467  0.00  0.00    +0.009 C 
BRANCH  26  28
ATOM     27  C   UNL     1       6.600   1.391  24.885  0.00  0.00    +0.004 C 
ATOM     28  C   UNL     1       6.303   0.269  23.895  0.00  0.00    +0.002 C 
ENDBRANCH  26  28
BRANCH  26  29
ATOM     29  C   UNL     1       5.515  -1.526  25.568  0.00  0.00    +0.002 C 
ATOM     30  C   UNL     1       6.095  -1.910  26.922  0.00  0.00    +0.004 C 
ENDBRANCH  26  29
ENDBRANCH  20  26
ENDBRANCH   1  20
TORSDOF 9
ENDMDL
MODEL 4
REMARK VINA RESULT:      -5.4      3.074      5.103
REMARK  Name = 
REMARK  12 active torsions:
REMARK  status: ('A' for Active; 'I' for Inactive)
REMARK    1  A    between atoms: C_1  and  C_2
REMARK    2  A    between atoms: C_2  and  C_3
REMARK    3  A    between atoms: C_3  and  C_4
REMARK    4  A    between atoms: C_3  and  C_6
REMARK    5  A    between atoms: C_4  and  C_5
REMARK    6  A    between atoms: C_6  and  C_7
REMARK    7  A    between atoms: C_6  and  N_24
REMARK    8  A    between atoms: C_9  and  N_20
REMARK    9  A    between atoms: C_12  and  C_17
REMARK   10  A    between atoms: C_14  and  O_16
REMARK   11  A    between atoms: C_17  and  O_19
REMARK   12  A    between atoms: C_25  and  C_27
REMARK                            x       y       z     vdW  Elec       q    Type
REMARK                         _______ _______ _______ _____ _____    ______ ____
ROOT
ATOM      1  C   UNL     1       6.131  -3.682  25.783  0.00  0.00    +0.079 C 
ATOM      2  C   UNL     1       7.190  -4.497  26.559  0.00  0.00    +0.137 C 
ATOM      3  C   UNL     1       8.579  -4.141  26.016  0.00  0.00    +0.130 C 
ATOM      4  C   UNL     1       8.376  -2.842  25.227  0.00  0.00    +0.062 C 
ATOM      5  C   UNL     1       6.928  -2.399  25.467  0.00  0.00    +0.196 C 
ENDROOT
BRANCH   5   6
ATOM      6  N   UNL     1       6.482  -1.640  24.307  0.00  0.00    -0.110 NA
ATOM      7  C   UNL     1       6.560  -0.363  24.302  0.00  0.00    +0.377 C 
ATOM      8  N   UNL     1       6.305   0.300  23.155  0.00  0.00    -0.289 N 
ATOM      9  H   UNL     1       5.772   1.153  23.215  0.00  0.00    +0.255 HD
ATOM     10  H   UNL     1       5.974  -0.322  22.426  0.00  0.00    +0.255 HD
ATOM     11  N   UNL     1       6.922   0.475  25.292  0.00  0.00    -0.289 N 
ATOM     12  H   UNL     1       6.628   1.438  25.228  0.00  0.00    +0.255 HD
ATOM     13  H   UNL     1       6.955   0.112  26.233  0.00  0.00    +0.255 HD
ENDBRANCH   5   6
BRANCH   2  14
ATOM     14  O   UNL     1       6.974  -5.879  26.742  0.00  0.00    -0.391 OA
ATOM     15  H   UNL     1       6.919  -6.306  25.853  0.00  0.00    +0.210 HD
ENDBRANCH   2  14
BRANCH   3  16
ATOM     16  C   UNL     1       9.313  -5.197  25.213  0.00  0.00    +0.310 C 
ATOM     17  O   UNL     1       8.939  -5.644  24.138  0.00  0.00    -0.251 OA
BRANCH  16  18
ATOM     18  O   UNL     1      10.517  -5.525  25.734  0.00  0.00    -0.480 OA
ATOM     19  H   UNL     1      10.432  -6.098  26.530  0.00  0.00    +0.295 HD
ENDBRANCH  16  18
ENDBRANCH   3  16
BRANCH   1  20
ATOM     20  C   UNL     1       5.292  -4.317  24.635  0.00  0.00    +0.085 C 
BRANCH  20  21
ATOM     21  N   UNL     1       6.102  -5.053  23.665  0.00  0.00    -0.312 N 
ATOM     22  H   UNL     1       6.657  -5.818  24.032  0.00  0.00    +0.149 HD
ATOM     23  C   UNL     1       6.074  -4.861  22.307  0.00  0.00    +0.210 C 
ATOM     24  C   UNL     1       7.046  -5.705  21.532  0.00  0.00    +0.109 C 
ATOM     25  O   UNL     1       5.337  -4.041  21.765  0.00  0.00    -0.276 OA
ENDBRANCH  20  21
BRANCH  20  26
ATOM     26  C   UNL     1       3.996  -5.108  25.067  0.00  0.00    +0.009 C 
BRANCH  26  28
ATOM     27  C   UNL     1       2.125  -5.192  26.833  0.00  0.00    +0.004 C 
ATOM     28  C   UNL     1       3.572  -4.818  26.527  0.00  0.00    +0.002 C 
ENDBRANCH  26  28
BRANCH  26  29
ATOM     29  C   UNL     1       2.824  -4.916  24.063  0.00  0.00    +0.002 C 
ATOM     30  C   UNL     1       2.586  -6.061  23.089  0.00  0.00    +0.004 C 
ENDBRANCH  26  29
ENDBRANCH  20  26
ENDBRANCH   1  20
TORSDOF 9
ENDMDL
MODEL 5
REMARK VINA RESULT:      -5.4      1.848      3.796
REMARK  Name = 
REMARK  12 active torsions:
REMARK  status: ('A' for Active; 'I' for Inactive)
REMARK    1  A    between atoms: C_1  and  C_2
REMARK    2  A    between atoms: C_2  and  C_3
REMARK    3  A    between atoms: C_3  and  C_4
REMARK    4  A    between atoms: C_3  and  C_6
REMARK    5  A    between atoms: C_4  and  C_5
REMARK    6  A    between atoms: C_6  and  C_7
REMARK    7  A    between atoms: C_6  and  N_24
REMARK    8  A    between atoms: C_9  and  N_20
REMARK    9  A    between atoms: C_12  and  C_17
REMARK   10  A    between atoms: C_14  and  O_16
REMARK   11  A    between atoms: C_17  and  O_19
REMARK   12  A    between atoms: C_25  and  C_27
REMARK                            x       y       z     vdW  Elec       q    Type
REMARK                         _______ _______ _______ _____ _____    ______ ____
ROOT
ATOM      1  C   UNL     1       8.379  -1.147  22.530  0.00  0.00    +0.079 C 
ATOM      2  C   UNL     1       9.383  -0.281  21.737  0.00  0.00    +0.137 C 
ATOM      3  C   UNL     1      10.370   0.354  22.724  0.00  0.00    +0.130 C 
ATOM      4  C   UNL     1      10.207  -0.449  24.021  0.00  0.00    +0.062 C 
ATOM      5  C   UNL     1       9.263  -1.614  23.705  0.00  0.00    +0.196 C 
ENDROOT
BRANCH   5   6
ATOM      6  N   UNL     1       8.560  -1.980  24.927  0.00  0.00    -0.110 NA
ATOM      7  C   UNL     1       8.642  -3.171  25.387  0.00  0.00    +0.377 C 
ATOM      8  N   UNL     1       8.128  -3.433  26.606  0.00  0.00    -0.289 N 
ATOM      9  H   UNL     1       7.629  -4.301  26.728  0.00  0.00    +0.255 HD
ATOM     10  H   UNL     1       7.631  -2.635  26.986  0.00  0.00    +0.255 HD
ATOM     11  N   UNL     1       9.232  -4.255  24.851  0.00  0.00    -0.289 N 
ATOM     12  H   UNL     1       8.937  -5.164  25.176  0.00  0.00    +0.255 HD
ATOM     13  H   UNL     1       9.484  -4.225  23.874  0.00  0.00    +0.255 HD
ENDBRANCH   5   6
BRANCH   2  14
ATOM     14  O   UNL     1       8.884   0.607  20.762  0.00  0.00    -0.391 OA
ATOM     15  H   UNL     1       7.897   0.564  20.778  0.00  0.00    +0.210 HD
ENDBRANCH   2  14
BRANCH   3  16
ATOM     16  C   UNL     1      10.273   1.849  22.953  0.00  0.00    +0.310 C 
ATOM     17  O   UNL     1      10.196   2.385  24.051  0.00  0.00    -0.251 OA
BRANCH  16  18
ATOM     18  O   UNL     1      10.411   2.575  21.820  0.00  0.00    -0.480 OA
ATOM     19  H   UNL     1       9.722   2.354  21.154  0.00  0.00    +0.295 HD
ENDBRANCH  16  18
ENDBRANCH   3  16
BRANCH   1  20
ATOM     20  C   UNL     1       6.944  -0.638  22.858  0.00  0.00    +0.085 C 
BRANCH  20  21
ATOM     21  N   UNL     1       6.102  -1.649  23.495  0.00  0.00    -0.312 N 
ATOM     22  H   UNL     1       5.804  -1.452  24.444  0.00  0.00    +0.149 HD
ATOM     23  C   UNL     1       5.602  -2.765  22.873  0.00  0.00    +0.210 C 
ATOM     24  C   UNL     1       4.811  -3.680  23.763  0.00  0.00    +0.109 C 
ATOM     25  O   UNL     1       5.810  -3.017  21.689  0.00  0.00    -0.276 OA
ENDBRANCH  20  21
BRANCH  20  26
ATOM     26  C   UNL     1       6.844   0.769  23.567  0.00  0.00    +0.009 C 
BRANCH  26  28
ATOM     27  C   UNL     1       6.924   3.245  22.869  0.00  0.00    +0.004 C 
ATOM     28  C   UNL     1       6.294   1.876  22.636  0.00  0.00    +0.002 C 
ENDBRANCH  26  28
BRANCH  26  29
ATOM     29  C   UNL     1       6.074   0.698  24.917  0.00  0.00    +0.002 C 
ATOM     30  C   UNL     1       6.822   1.214  26.139  0.00  0.00    +0.004 C 
ENDBRANCH  26  29
ENDBRANCH  20  26
ENDBRANCH   1  20
TORSDOF 9
ENDMDL
MODEL 6
REMARK VINA RESULT:      -5.3      3.947      6.802
REMARK  Name = 
REMARK  12 active torsions:
REMARK  status: ('A' for Active; 'I' for Inactive)
REMARK    1  A    between atoms: C_1  and  C_2
REMARK    2  A    between atoms: C_2  and  C_3
REMARK    3  A    between atoms: C_3  and  C_4
REMARK    4  A    between atoms: C_3  and  C_6
REMARK    5  A    between atoms: C_4  and  C_5
REMARK    6  A    between atoms: C_6  and  C_7
REMARK    7  A    between atoms: C_6  and  N_24
REMARK    8  A    between atoms: C_9  and  N_20
REMARK    9  A    between atoms: C_12  and  C_17
REMARK   10  A    between atoms: C_14  and  O_16
REMARK   11  A    between atoms: C_17  and  O_19
REMARK   12  A    between atoms: C_25  and  C_27
REMARK                            x       y       z     vdW  Elec       q    Type
REMARK                         _______ _______ _______ _____ _____    ______ ____
ROOT
ATOM      1  C   UNL     1       9.144   2.348  23.812  0.00  0.00    +0.079 C 
ATOM      2  C   UNL     1      10.432   1.561  23.480  0.00  0.00    +0.137 C 
ATOM      3  C   UNL     1      10.146   0.634  22.291  0.00  0.00    +0.130 C 
ATOM      4  C   UNL     1       8.847   1.166  21.675  0.00  0.00    +0.062 C 
ATOM      5  C   UNL     1       8.507   2.466  22.412  0.00  0.00    +0.196 C 
ENDROOT
BRANCH   5   6
ATOM      6  N   UNL     1       7.062   2.647  22.381  0.00  0.00    -0.110 NA
ATOM      7  C   UNL     1       6.560   3.788  22.097  0.00  0.00    +0.377 C 
ATOM      8  N   UNL     1       5.228   3.883  21.905  0.00  0.00    -0.289 N 
ATOM      9  H   UNL     1       4.756   4.688  22.284  0.00  0.00    +0.255 HD
ATOM     10  H   UNL     1       4.754   3.011  22.113  0.00  0.00    +0.255 HD
ATOM     11  N   UNL     1       7.178   4.967  21.896  0.00  0.00    -0.289 N 
ATOM     12  H   UNL     1       6.632   5.811  21.998  0.00  0.00    +0.255 HD
ATOM     13  H   UNL     1       8.138   5.056  22.191  0.00  0.00    +0.255 HD
ENDBRANCH   5   6
BRANCH   2  14
ATOM     14  O   UNL     1      11.140   0.951  24.536  0.00  0.00    -0.391 OA
ATOM     15  H   UNL     1      11.908   1.527  24.770  0.00  0.00    +0.210 HD
ENDBRANCH   2  14
BRANCH   3  16
ATOM     16  C   UNL     1      10.092  -0.857  22.559  0.00  0.00    +0.310 C 
ATOM     17  O   UNL     1      10.061  -1.368  23.671  0.00  0.00    -0.251 OA
BRANCH  16  18
ATOM     18  O   UNL     1       9.950  -1.598  21.437  0.00  0.00    -0.480 OA
ATOM     19  H   UNL     1       9.028  -1.577  21.094  0.00  0.00    +0.295 HD
ENDBRANCH  16  18
ENDBRANCH   3  16
BRANCH   1  20
ATOM     20  C   UNL     1       8.222   1.940  24.999  0.00  0.00    +0.085 C 
BRANCH  20  21
ATOM     21  N   UNL     1       8.642   0.707  25.662  0.00  0.00    -0.312 N 
ATOM     22  H   UNL     1       9.586   0.696  26.033  0.00  0.00    +0.149 HD
ATOM     23  C   UNL     1       7.830  -0.369  25.915  0.00  0.00    +0.210 C 
ATOM     24  C   UNL     1       8.518  -1.540  26.557  0.00  0.00    +0.109 C 
ATOM     25  O   UNL     1       6.640  -0.391  25.611  0.00  0.00    -0.276 OA
ENDBRANCH  20  21
BRANCH  20  26
ATOM     26  C   UNL     1       7.847   3.082  26.022  0.00  0.00    +0.009 C 
BRANCH  26  28
ATOM     27  C   UNL     1       7.774   5.620  26.445  0.00  0.00    +0.004 C 
ATOM     28  C   UNL     1       8.168   4.499  25.489  0.00  0.00    +0.002 C 
ENDBRANCH  26  28
BRANCH  26  29
ATOM     29  C   UNL     1       6.383   2.961  26.534  0.00  0.00    +0.002 C 
ATOM     30  C   UNL     1       5.309   2.849  25.460  0.00  0.00    +0.004 C 
ENDBRANCH  26  29
ENDBRANCH  20  26
ENDBRANCH   1  20
TORSDOF 9
ENDMDL
MODEL 7
REMARK VINA RESULT:      -5.3      2.704      5.034
REMARK  Name = 
REMARK  12 active torsions:
REMARK  status: ('A' for Active; 'I' for Inactive)
REMARK    1  A    between atoms: C_1  and  C_2
REMARK    2  A    between atoms: C_2  and  C_3
REMARK    3  A    between atoms: C_3  and  C_4
REMARK    4  A    between atoms: C_3  and  C_6
REMARK    5  A    between atoms: C_4  and  C_5
REMARK    6  A    between atoms: C_6  and  C_7
REMARK    7  A    between atoms: C_6  and  N_24
REMARK    8  A    between atoms: C_9  and  N_20
REMARK    9  A    between atoms: C_12  and  C_17
REMARK   10  A    between atoms: C_14  and  O_16
REMARK   11  A    between atoms: C_17  and  O_19
REMARK   12  A    between atoms: C_25  and  C_27
REMARK                            x       y       z     vdW  Elec       q    Type
REMARK                         _______ _______ _______ _____ _____    ______ ____
ROOT
ATOM      1  C   UNL     1       9.035  -4.109  24.441  0.00  0.00    +0.079 C 
ATOM      2  C   UNL     1       9.137  -5.107  25.616  0.00  0.00    +0.137 C 
ATOM      3  C   UNL     1       7.735  -5.652  25.920  0.00  0.00    +0.130 C 
ATOM      4  C   UNL     1       6.896  -5.301  24.685  0.00  0.00    +0.062 C 
ATOM      5  C   UNL     1       7.859  -4.715  23.647  0.00  0.00    +0.196 C 
ENDROOT
BRANCH   5   6
ATOM      6  N   UNL     1       7.116  -3.792  22.801  0.00  0.00    -0.110 NA
ATOM      7  C   UNL     1       6.486  -4.222  21.774  0.00  0.00    +0.377 C 
ATOM      8  N   UNL     1       5.668  -3.377  21.113  0.00  0.00    -0.289 N 
ATOM      9  H   UNL     1       5.670  -3.414  20.106  0.00  0.00    +0.255 HD
ATOM     10  H   UNL     1       5.729  -2.432  21.475  0.00  0.00    +0.255 HD
ATOM     11  N   UNL     1       6.461  -5.458  21.242  0.00  0.00    -0.289 N 
ATOM     12  H   UNL     1       6.182  -5.552  20.276  0.00  0.00    +0.255 HD
ATOM     13  H   UNL     1       7.167  -6.116  21.536  0.00  0.00    +0.255 HD
ENDBRANCH   5   6
BRANCH   2  14
ATOM     14  O   UNL     1       9.874  -4.729  26.759  0.00  0.00    -0.391 OA
ATOM     15  H   UNL     1      10.719  -5.241  26.766  0.00  0.00    +0.210 HD
ENDBRANCH   2  14
BRANCH   3  16
ATOM     16  C   UNL     1       7.075  -5.215  27.213  0.00  0.00    +0.310 C 
ATOM     17  O   UNL     1       6.275  -4.295  27.313  0.00  0.00    -0.251 OA
BRANCH  16  18
ATOM     18  O   UNL     1       7.351  -6.028  28.257  0.00  0.00    -0.480 OA
ATOM     19  H   UNL     1       7.945  -5.599  28.913  0.00  0.00    +0.295 HD
ENDBRANCH  16  18
ENDBRANCH   3  16
BRANCH   1  20
ATOM     20  C   UNL     1       9.035  -2.569  24.676  0.00  0.00    +0.085 C 
BRANCH  20  21
ATOM     21  N   UNL     1       9.111  -1.794  23.439  0.00  0.00    -0.312 N 
ATOM     22  H   UNL     1       8.468  -2.061  22.702  0.00  0.00    +0.149 HD
ATOM     23  C   UNL     1       9.892  -0.682  23.251  0.00  0.00    +0.210 C 
ATOM     24  C   UNL     1       9.837  -0.100  21.867  0.00  0.00    +0.109 C 
ATOM     25  O   UNL     1      10.608  -0.215  24.133  0.00  0.00    -0.276 OA
ENDBRANCH  20  21
BRANCH  20  26
ATOM     26  C   UNL     1       7.947  -2.011  25.674  0.00  0.00    +0.009 C 
BRANCH  26  28
ATOM     27  C   UNL     1       7.726  -0.039  27.314  0.00  0.00    +0.004 C 
ATOM     28  C   UNL     1       8.561  -1.233  26.863  0.00  0.00    +0.002 C 
ENDBRANCH  26  28
BRANCH  26  29
ATOM     29  C   UNL     1       6.838  -1.198  24.947  0.00  0.00    +0.002 C 
ATOM     30  C   UNL     1       5.432  -1.779  25.014  0.00  0.00    +0.004 C 
ENDBRANCH  26  29
ENDBRANCH  20  26
ENDBRANCH   1  20
TORSDOF 9
ENDMDL
MODEL 8
REMARK VINA RESULT:      -5.2      2.891      5.513
REMARK  Name = 
REMARK  12 active torsions:
REMARK  status: ('A' for Active; 'I' for Inactive)
REMARK    1  A    between atoms: C_1  and  C_2
REMARK    2  A    between atoms: C_2  and  C_3
REMARK    3  A    between atoms: C_3  and  C_4
REMARK    4  A    between atoms: C_3  and  C_6
REMARK    5  A    between atoms: C_4  and  C_5
REMARK    6  A    between atoms: C_6  and  C_7
REMARK    7  A    between atoms: C_6  and  N_24
REMARK    8  A    between atoms: C_9  and  N_20
REMARK    9  A    between atoms: C_12  and  C_17
REMARK   10  A    between atoms: C_14  and  O_16
REMARK   11  A    between atoms: C_17  and  O_19
REMARK   12  A    between atoms: C_25  and  C_27
REMARK                            x       y       z     vdW  Elec       q    Type
REMARK                         _______ _______ _______ _____ _____    ______ ____
ROOT
ATOM      1  C   UNL     1       5.003  -4.102  24.685  0.00  0.00    +0.079 C 
ATOM      2  C   UNL     1       4.758  -4.159  23.161  0.00  0.00    +0.137 C 
ATOM      3  C   UNL     1       5.082  -5.574  22.664  0.00  0.00    +0.130 C 
ATOM      4  C   UNL     1       5.117  -6.440  23.929  0.00  0.00    +0.062 C 
ATOM      5  C   UNL     1       4.658  -5.550  25.089  0.00  0.00    +0.196 C 
ENDROOT
BRANCH   5   6
ATOM      6  N   UNL     1       5.276  -6.036  26.314  0.00  0.00    -0.110 NA
ATOM      7  C   UNL     1       4.632  -6.815  27.098  0.00  0.00    +0.377 C 
ATOM      8  N   UNL     1       5.288  -7.387  28.129  0.00  0.00    -0.289 N 
ATOM      9  H   UNL     1       4.809  -7.446  29.014  0.00  0.00    +0.255 HD
ATOM     10  H   UNL     1       6.235  -7.036  28.216  0.00  0.00    +0.255 HD
ATOM     11  N   UNL     1       3.351  -7.223  27.034  0.00  0.00    -0.289 N 
ATOM     12  H   UNL     1       2.921  -7.566  27.881  0.00  0.00    +0.255 HD
ATOM     13  H   UNL     1       2.724  -6.723  26.423  0.00  0.00    +0.255 HD
ENDBRANCH   5   6
BRANCH   2  14
ATOM     14  O   UNL     1       5.281  -3.126  22.355  0.00  0.00    -0.391 OA
ATOM     15  H   UNL     1       5.958  -2.635  22.880  0.00  0.00    +0.210 HD
ENDBRANCH   2  14
BRANCH   3  16
ATOM     16  C   UNL     1       6.319  -5.753  21.806  0.00  0.00    +0.310 C 
ATOM     17  O   UNL     1       7.419  -6.087  22.225  0.00  0.00    -0.251 OA
BRANCH  16  18
ATOM     18  O   UNL     1       6.074  -5.633  20.481  0.00  0.00    -0.480 OA
ATOM     19  H   UNL     1       6.722  -5.040  20.038  0.00  0.00    +0.295 HD
ENDBRANCH  16  18
ENDBRANCH   3  16
BRANCH   1  20
ATOM     20  C   UNL     1       6.297  -3.471  25.280  0.00  0.00    +0.085 C 
BRANCH  20  21
ATOM     21  N   UNL     1       7.514  -4.191  24.912  0.00  0.00    -0.312 N 
ATOM     22  H   UNL     1       7.714  -4.258  23.921  0.00  0.00    +0.149 HD
ATOM     23  C   UNL     1       8.446  -4.671  25.798  0.00  0.00    +0.210 C 
ATOM     24  C   UNL     1       9.581  -5.428  25.170  0.00  0.00    +0.109 C 
ATOM     25  O   UNL     1       8.346  -4.523  27.013  0.00  0.00    -0.276 OA
ENDBRANCH  20  21
BRANCH  20  26
ATOM     26  C   UNL     1       6.448  -1.907  25.130  0.00  0.00    +0.009 C 
BRANCH  26  28
ATOM     27  C   UNL     1       5.424   0.066  26.428  0.00  0.00    +0.004 C 
ATOM     28  C   UNL     1       6.334  -1.157  26.479  0.00  0.00    +0.002 C 
ENDBRANCH  26  28
BRANCH  26  29
ATOM     29  C   UNL     1       7.729  -1.510  24.341  0.00  0.00    +0.002 C 
ATOM     30  C   UNL     1       8.864  -0.919  25.167  0.00  0.00    +0.004 C 
ENDBRANCH  26  29
ENDBRANCH  20  26
ENDBRANCH   1  20
TORSDOF 9
ENDMDL
MODEL 9
REMARK VINA RESULT:      -5.2      3.066      5.254
REMARK  Name = 
REMARK  12 active torsions:
REMARK  status: ('A' for Active; 'I' for Inactive)
REMARK    1  A    between atoms: C_1  and  C_2
REMARK    2  A    between atoms: C_2  and  C_3
REMARK    3  A    between atoms: C_3  and  C_4
REMARK    4  A    between atoms: C_3  and  C_6
REMARK    5  A    between atoms: C_4  and  C_5
REMARK    6  A    between atoms: C_6  and  C_7
REMARK    7  A    between atoms: C_6  and  N_24
REMARK    8  A    between atoms: C_9  and  N_20
REMARK    9  A    between atoms: C_12  and  C_17
REMARK   10  A    between atoms: C_14  and  O_16
REMARK   11  A    between atoms: C_17  and  O_19
REMARK   12  A    between atoms: C_25  and  C_27
REMARK                            x       y       z     vdW  Elec       q    Type
REMARK                         _______ _______ _______ _____ _____    ______ ____
ROOT
ATOM      1  C   UNL     1       4.930  -4.287  24.639  0.00  0.00    +0.079 C 
ATOM      2  C   UNL     1       4.559  -4.351  23.140  0.00  0.00    +0.137 C 
ATOM      3  C   UNL     1       4.901  -5.749  22.610  0.00  0.00    +0.130 C 
ATOM      4  C   UNL     1       5.078  -6.616  23.862  0.00  0.00    +0.062 C 
ATOM      5  C   UNL     1       4.681  -5.750  25.062  0.00  0.00    +0.196 C 
ENDROOT
BRANCH   5   6
ATOM      6  N   UNL     1       5.421  -6.212  26.228  0.00  0.00    -0.110 NA
ATOM      7  C   UNL     1       4.818  -6.828  27.173  0.00  0.00    +0.377 C 
ATOM      8  N   UNL     1       5.553  -7.396  28.151  0.00  0.00    -0.289 N 
ATOM      9  H   UNL     1       5.215  -7.316  29.098  0.00  0.00    +0.255 HD
ATOM     10  H   UNL     1       6.538  -7.171  28.062  0.00  0.00    +0.255 HD
ATOM     11  N   UNL     1       3.503  -7.062  27.338  0.00  0.00    -0.289 N 
ATOM     12  H   UNL     1       3.172  -7.271  28.269  0.00  0.00    +0.255 HD
ATOM     13  H   UNL     1       2.852  -6.534  26.775  0.00  0.00    +0.255 HD
ENDBRANCH   5   6
BRANCH   2  14
ATOM     14  O   UNL     1       4.969  -3.294  22.300  0.00  0.00    -0.391 OA
ATOM     15  H   UNL     1       4.610  -2.450  22.665  0.00  0.00    +0.210 HD
ENDBRANCH   2  14
BRANCH   3  16
ATOM     16  C   UNL     1       6.067  -5.873  21.650  0.00  0.00    +0.310 C 
ATOM     17  O   UNL     1       6.050  -5.516  20.480  0.00  0.00    -0.251 OA
BRANCH  16  18
ATOM     18  O   UNL     1       7.204  -6.306  22.240  0.00  0.00    -0.480 OA
ATOM     19  H   UNL     1       7.024  -6.806  23.067  0.00  0.00    +0.295 HD
ENDBRANCH  16  18
ENDBRANCH   3  16
BRANCH   1  20
ATOM     20  C   UNL     1       6.241  -3.602  25.127  0.00  0.00    +0.085 C 
BRANCH  20  21
ATOM     21  N   UNL     1       6.979  -2.935  24.056  0.00  0.00    -0.312 N 
ATOM     22  H   UNL     1       6.602  -2.051  23.734  0.00  0.00    +0.149 HD
ATOM     23  C   UNL     1       8.183  -3.353  23.549  0.00  0.00    +0.210 C 
ATOM     24  C   UNL     1       8.708  -2.526  22.410  0.00  0.00    +0.109 C 
ATOM     25  O   UNL     1       8.774  -4.345  23.968  0.00  0.00    -0.276 OA
ENDBRANCH  20  21
BRANCH  20  26
ATOM     26  C   UNL     1       6.128  -2.717  26.429  0.00  0.00    +0.009 C 
BRANCH  26  28
ATOM     27  C   UNL     1       8.062  -1.071  26.846  0.00  0.00    +0.004 C 
ATOM     28  C   UNL     1       6.682  -1.285  26.235  0.00  0.00    +0.002 C 
ENDBRANCH  26  28
BRANCH  26  29
ATOM     29  C   UNL     1       4.690  -2.717  27.022  0.00  0.00    +0.002 C 
ATOM     30  C   UNL     1       4.529  -3.383  28.382  0.00  0.00    +0.004 C 
ENDBRANCH  26  29
ENDBRANCH  20  26
ENDBRANCH   1  20
TORSDOF 9
ENDMDL
