MODEL 1
REMARK VINA RESULT:      -6.7      0.000      0.000
REMARK  Name = 
REMARK  5 active torsions:
REMARK  status: ('A' for Active; 'I' for Inactive)
REMARK    1  A    between atoms: C_1  and  C_2
REMARK    2  A    between atoms: N_4  and  C_10
REMARK    3  A    between atoms: C_13  and  N_19
REMARK    4  A    between atoms: C_14  and  C_17
REMARK    5  A    between atoms: C_17  and  O_18
REMARK                            x       y       z     vdW  Elec       q    Type
REMARK                         _______ _______ _______ _____ _____    ______ ____
ROOT
ATOM      1  C   UNL     1       8.970  -2.865  25.127  0.00  0.00    +0.226 C 
ATOM      2  O   UNL     1       9.099  -3.719  23.977  0.00  0.00    -0.349 OA
ATOM      3  C   UNL     1       8.391  -4.947  24.271  0.00  0.00    +0.177 C 
ATOM      4  C   UNL     1       7.544  -4.700  25.529  0.00  0.00    +0.226 C 
ATOM      5  C   UNL     1       7.600  -3.192  25.697  0.00  0.00    +0.091 C 
ENDROOT
BRANCH   1  14
ATOM      6  C   UNL     1       9.520   0.717  21.691  0.00  0.00    +0.051 C 
ATOM      7  C   UNL     1       9.426   0.225  23.099  0.00  0.00    +0.030 A 
ATOM      8  C   UNL     1       9.557   1.227  24.181  0.00  0.00    +0.257 A 
ATOM      9  O   UNL     1       9.729   2.418  23.945  0.00  0.00    -0.267 OA
ATOM     10  N   UNL     1       9.467   0.745  25.454  0.00  0.00    -0.275 N 
ATOM     11  H   UNL     1       9.542   1.415  26.202  0.00  0.00    +0.173 HD
ATOM     12  C   UNL     1       9.226  -0.554  25.810  0.00  0.00    +0.331 A 
ATOM     13  O   UNL     1       9.089  -0.852  26.998  0.00  0.00    -0.246 OA
ATOM     14  N   UNL     1       9.154  -1.465  24.766  0.00  0.00    -0.274 N 
ATOM     15  C   UNL     1       9.241  -1.055  23.448  0.00  0.00    +0.101 A 
ENDBRANCH   1  14
BRANCH   4  16
ATOM     16  N   UNL     1       8.187  -5.324  26.703  0.00  0.00    +0.082 NA
ATOM     17  N   UNL     1       7.417  -5.718  27.603  0.00  0.00    -0.014 NA
ATOM     18  N   UNL     1       6.706  -6.085  28.412  0.00  0.00    -0.328 NA
ENDBRANCH   4  16
BRANCH   3  19
ATOM     19  C   UNL     1       7.553  -5.312  23.046  0.00  0.00    +0.189 C 
BRANCH  19  20
ATOM     20  O   UNL     1       7.338  -4.168  22.223  0.00  0.00    -0.392 OA
ATOM     21  H   UNL     1       7.046  -3.457  22.820  0.00  0.00    +0.210 HD
ENDBRANCH  19  20
ENDBRANCH   3  19
TORSDOF 4
ENDMDL
MODEL 2
REMARK VINA RESULT:      -6.7      1.981      2.256
REMARK  Name = 
REMARK  5 active torsions:
REMARK  status: ('A' for Active; 'I' for Inactive)
REMARK    1  A    between atoms: C_1  and  C_2
REMARK    2  A    between atoms: N_4  and  C_10
REMARK    3  A    between atoms: C_13  and  N_19
REMARK    4  A    between atoms: C_14  and  C_17
REMARK    5  A    between atoms: C_17  and  O_18
REMARK                            x       y       z     vdW  Elec       q    Type
REMARK                         _______ _______ _______ _____ _____    ______ ____
ROOT
ATOM      1  C   UNL     1       8.253  -3.116  23.685  0.00  0.00    +0.226 C 
ATOM      2  O   UNL     1       7.625  -3.945  22.690  0.00  0.00    -0.349 OA
ATOM      3  C   UNL     1       6.913  -4.993  23.391  0.00  0.00    +0.177 C 
ATOM      4  C   UNL     1       6.858  -4.599  24.875  0.00  0.00    +0.226 C 
ATOM      5  C   UNL     1       7.301  -3.147  24.868  0.00  0.00    +0.091 C 
ENDROOT
BRANCH   1  14
ATOM      6  C   UNL     1       6.760   1.516  22.566  0.00  0.00    +0.051 C 
ATOM      7  C   UNL     1       7.777   0.423  22.629  0.00  0.00    +0.030 A 
ATOM      8  C   UNL     1       9.128   0.719  22.101  0.00  0.00    +0.257 A 
ATOM      9  O   UNL     1       9.417   1.816  21.634  0.00  0.00    -0.267 OA
ATOM     10  N   UNL     1      10.032  -0.299  22.173  0.00  0.00    -0.275 N 
ATOM     11  H   UNL     1      10.960  -0.111  21.829  0.00  0.00    +0.173 HD
ATOM     12  C   UNL     1       9.816  -1.535  22.721  0.00  0.00    +0.331 A 
ATOM     13  O   UNL     1      10.740  -2.346  22.797  0.00  0.00    -0.246 OA
ATOM     14  N   UNL     1       8.524  -1.782  23.163  0.00  0.00    -0.274 N 
ATOM     15  C   UNL     1       7.549  -0.803  23.119  0.00  0.00    +0.101 A 
ENDBRANCH   1  14
BRANCH   4  16
ATOM     16  N   UNL     1       7.846  -5.384  25.643  0.00  0.00    +0.082 NA
ATOM     17  N   UNL     1       7.529  -5.662  26.819  0.00  0.00    -0.014 NA
ATOM     18  N   UNL     1       7.225  -5.920  27.884  0.00  0.00    -0.328 NA
ENDBRANCH   4  16
BRANCH   3  19
ATOM     19  C   UNL     1       5.529  -5.127  22.755  0.00  0.00    +0.189 C 
BRANCH  19  20
ATOM     20  O   UNL     1       5.220  -3.977  21.972  0.00  0.00    -0.392 OA
ATOM     21  H   UNL     1       4.460  -4.226  21.416  0.00  0.00    +0.210 HD
ENDBRANCH  19  20
ENDBRANCH   3  19
TORSDOF 4
ENDMDL
MODEL 3
REMARK VINA RESULT:      -6.5      2.163      2.492
REMARK  Name = 
REMARK  5 active torsions:
REMARK  status: ('A' for Active; 'I' for Inactive)
REMARK    1  A    between atoms: C_1  and  C_2
REMARK    2  A    between atoms: N_4  and  C_10
REMARK    3  A    between atoms: C_13  and  N_19
REMARK    4  A    between atoms: C_14  and  C_17
REMARK    5  A    between atoms: C_17  and  O_18
REMARK                            x       y       z     vdW  Elec       q    Type
REMARK                         _______ _______ _______ _____ _____    ______ ____
ROOT
ATOM      1  C   UNL     1       7.174  -2.777  25.146  0.00  0.00    +0.226 C 
ATOM      2  O   UNL     1       8.465  -3.005  25.739  0.00  0.00    -0.349 OA
ATOM      3  C   UNL     1       8.526  -4.403  26.111  0.00  0.00    +0.177 C 
ATOM      4  C   UNL     1       7.342  -5.112  25.435  0.00  0.00    +0.226 C 
ATOM      5  C   UNL     1       6.839  -4.080  24.441  0.00  0.00    +0.091 C 
ENDROOT
BRANCH   1  14
ATOM      6  C   UNL     1       9.353  -0.018  21.599  0.00  0.00    +0.051 C 
ATOM      7  C   UNL     1       8.266  -0.305  22.584  0.00  0.00    +0.030 A 
ATOM      8  C   UNL     1       7.166   0.680  22.690  0.00  0.00    +0.257 A 
ATOM      9  O   UNL     1       7.131   1.692  21.998  0.00  0.00    -0.267 OA
ATOM     10  N   UNL     1       6.191   0.389  23.598  0.00  0.00    -0.275 N 
ATOM     11  H   UNL     1       5.428   1.043  23.675  0.00  0.00    +0.173 HD
ATOM     12  C   UNL     1       6.120  -0.735  24.375  0.00  0.00    +0.331 A 
ATOM     13  O   UNL     1       5.145  -0.921  25.104  0.00  0.00    -0.246 OA
ATOM     14  N   UNL     1       7.194  -1.609  24.275  0.00  0.00    -0.274 N 
ATOM     15  C   UNL     1       8.224  -1.381  23.380  0.00  0.00    +0.101 A 
ENDBRANCH   1  14
BRANCH   4  16
ATOM     16  N   UNL     1       6.274  -5.366  26.424  0.00  0.00    +0.082 NA
ATOM     17  N   UNL     1       6.633  -5.910  27.489  0.00  0.00    -0.014 NA
ATOM     18  N   UNL     1       6.974  -6.395  28.460  0.00  0.00    -0.328 NA
ENDBRANCH   4  16
BRANCH   3  19
ATOM     19  C   UNL     1       9.883  -4.948  25.666  0.00  0.00    +0.189 C 
BRANCH  19  20
ATOM     20  O   UNL     1       9.723  -5.930  24.645  0.00  0.00    -0.392 OA
ATOM     21  H   UNL     1       9.828  -6.794  25.083  0.00  0.00    +0.210 HD
ENDBRANCH  19  20
ENDBRANCH   3  19
TORSDOF 4
ENDMDL
MODEL 4
REMARK VINA RESULT:      -6.4      2.067      2.607
REMARK  Name = 
REMARK  5 active torsions:
REMARK  status: ('A' for Active; 'I' for Inactive)
REMARK    1  A    between atoms: C_1  and  C_2
REMARK    2  A    between atoms: N_4  and  C_10
REMARK    3  A    between atoms: C_13  and  N_19
REMARK    4  A    between atoms: C_14  and  C_17
REMARK    5  A    between atoms: C_17  and  O_18
REMARK                            x       y       z     vdW  Elec       q    Type
REMARK                         _______ _______ _______ _____ _____    ______ ____
ROOT
ATOM      1  C   UNL     1       7.833  -3.092  24.852  0.00  0.00    +0.226 C 
ATOM      2  O   UNL     1       6.502  -3.520  24.515  0.00  0.00    -0.349 OA
ATOM      3  C   UNL     1       5.938  -4.140  25.696  0.00  0.00    +0.177 C 
ATOM      4  C   UNL     1       6.855  -3.796  26.879  0.00  0.00    +0.226 C 
ATOM      5  C   UNL     1       7.754  -2.708  26.320  0.00  0.00    +0.091 C 
ENDROOT
BRANCH   1  14
ATOM      6  C   UNL     1       7.024   1.232  22.488  0.00  0.00    +0.051 C 
ATOM      7  C   UNL     1       7.859   0.045  22.845  0.00  0.00    +0.030 A 
ATOM      8  C   UNL     1       9.206  -0.048  22.238  0.00  0.00    +0.257 A 
ATOM      9  O   UNL     1       9.636   0.812  21.477  0.00  0.00    -0.267 OA
ATOM     10  N   UNL     1       9.941  -1.143  22.584  0.00  0.00    -0.275 N 
ATOM     11  H   UNL     1      10.865  -1.216  22.190  0.00  0.00    +0.173 HD
ATOM     12  C   UNL     1       9.566  -2.124  23.461  0.00  0.00    +0.331 A 
ATOM     13  O   UNL     1      10.353  -3.025  23.752  0.00  0.00    -0.246 OA
ATOM     14  N   UNL     1       8.279  -2.019  23.971  0.00  0.00    -0.274 N 
ATOM     15  C   UNL     1       7.470  -0.941  23.665  0.00  0.00    +0.101 A 
ENDBRANCH   1  14
BRANCH   4  16
ATOM     16  N   UNL     1       7.694  -4.963  27.224  0.00  0.00    +0.082 NA
ATOM     17  N   UNL     1       7.184  -5.791  28.006  0.00  0.00    -0.014 NA
ATOM     18  N   UNL     1       6.704  -6.546  28.710  0.00  0.00    -0.328 NA
ENDBRANCH   4  16
BRANCH   3  19
ATOM     19  C   UNL     1       4.513  -3.613  25.869  0.00  0.00    +0.189 C 
BRANCH  19  20
ATOM     20  O   UNL     1       4.358  -2.354  25.218  0.00  0.00    -0.392 OA
ATOM     21  H   UNL     1       3.733  -1.844  25.763  0.00  0.00    +0.210 HD
ENDBRANCH  19  20
ENDBRANCH   3  19
TORSDOF 4
ENDMDL
MODEL 5
REMARK VINA RESULT:      -6.3      2.455      3.124
REMARK  Name = 
REMARK  5 active torsions:
REMARK  status: ('A' for Active; 'I' for Inactive)
REMARK    1  A    between atoms: C_1  and  C_2
REMARK    2  A    between atoms: N_4  and  C_10
REMARK    3  A    between atoms: C_13  and  N_19
REMARK    4  A    between atoms: C_14  and  C_17
REMARK    5  A    between atoms: C_17  and  O_18
REMARK                            x       y       z     vdW  Elec       q    Type
REMARK                         _______ _______ _______ _____ _____    ______ ____
ROOT
ATOM      1  C   UNL     1       9.314  -0.644  23.343  0.00  0.00    +0.226 C 
ATOM      2  O   UNL     1       8.555  -1.196  22.254  0.00  0.00    -0.349 OA
ATOM      3  C   UNL     1       8.254  -2.572  22.594  0.00  0.00    +0.177 C 
ATOM      4  C   UNL     1       8.583  -2.761  24.083  0.00  0.00    +0.226 C 
ATOM      5  C   UNL     1       8.774  -1.339  24.581  0.00  0.00    +0.091 C 
ENDROOT
BRANCH   1  14
ATOM      6  C   UNL     1       6.821   3.569  22.355  0.00  0.00    +0.051 C 
ATOM      7  C   UNL     1       7.996   2.808  22.879  0.00  0.00    +0.030 A 
ATOM      8  C   UNL     1       9.124   3.592  23.432  0.00  0.00    +0.257 A 
ATOM      9  O   UNL     1       9.104   4.818  23.472  0.00  0.00    -0.267 OA
ATOM     10  N   UNL     1      10.180   2.867  23.901  0.00  0.00    -0.275 N 
ATOM     11  H   UNL     1      10.951   3.384  24.292  0.00  0.00    +0.173 HD
ATOM     12  C   UNL     1      10.268   1.502  23.942  0.00  0.00    +0.331 A 
ATOM     13  O   UNL     1      11.245   0.963  24.463  0.00  0.00    -0.246 OA
ATOM     14  N   UNL     1       9.208   0.810  23.374  0.00  0.00    -0.274 N 
ATOM     15  C   UNL     1       8.103   1.473  22.872  0.00  0.00    +0.101 A 
ENDBRANCH   1  14
BRANCH   4  16
ATOM     16  N   UNL     1       9.864  -3.482  24.230  0.00  0.00    +0.082 NA
ATOM     17  N   UNL     1       9.791  -4.636  24.701  0.00  0.00    -0.014 NA
ATOM     18  N   UNL     1       9.711  -5.691  25.119  0.00  0.00    -0.328 NA
ENDBRANCH   4  16
BRANCH   3  19
ATOM     19  C   UNL     1       6.782  -2.826  22.269  0.00  0.00    +0.189 C 
BRANCH  19  20
ATOM     20  O   UNL     1       5.975  -1.732  22.697  0.00  0.00    -0.392 OA
ATOM     21  H   UNL     1       6.092  -1.673  23.662  0.00  0.00    +0.210 HD
ENDBRANCH  19  20
ENDBRANCH   3  19
TORSDOF 4
ENDMDL
MODEL 6
REMARK VINA RESULT:      -6.3      2.419      2.801
REMARK  Name = 
REMARK  5 active torsions:
REMARK  status: ('A' for Active; 'I' for Inactive)
REMARK    1  A    between atoms: C_1  and  C_2
REMARK    2  A    between atoms: N_4  and  C_10
REMARK    3  A    between atoms: C_13  and  N_19
REMARK    4  A    between atoms: C_14  and  C_17
REMARK    5  A    between atoms: C_17  and  O_18
REMARK                            x       y       z     vdW  Elec       q    Type
REMARK                         _______ _______ _______ _____ _____    ______ ____
ROOT
ATOM      1  C   UNL     1       7.349  -4.304  23.911  0.00  0.00    +0.226 C 
ATOM      2  O   UNL     1       7.581  -5.098  22.734  0.00  0.00    -0.349 OA
ATOM      3  C   UNL     1       6.421  -5.946  22.553  0.00  0.00    +0.177 C 
ATOM      4  C   UNL     1       5.317  -5.421  23.485  0.00  0.00    +0.226 C 
ATOM      5  C   UNL     1       5.849  -4.071  23.929  0.00  0.00    +0.091 C 
ENDROOT
BRANCH   1  14
ATOM      6  C   UNL     1       9.431  -0.500  21.435  0.00  0.00    +0.051 C 
ATOM      7  C   UNL     1       9.141  -1.283  22.674  0.00  0.00    +0.030 A 
ATOM      8  C   UNL     1       9.731  -0.795  23.941  0.00  0.00    +0.257 A 
ATOM      9  O   UNL     1      10.426   0.214  23.988  0.00  0.00    -0.267 OA
ATOM     10  N   UNL     1       9.447  -1.532  25.053  0.00  0.00    -0.275 N 
ATOM     11  H   UNL     1       9.831  -1.208  25.926  0.00  0.00    +0.173 HD
ATOM     12  C   UNL     1       8.644  -2.639  25.105  0.00  0.00    +0.331 A 
ATOM     13  O   UNL     1       8.401  -3.174  26.187  0.00  0.00    -0.246 OA
ATOM     14  N   UNL     1       8.149  -3.085  23.888  0.00  0.00    -0.274 N 
ATOM     15  C   UNL     1       8.396  -2.395  22.715  0.00  0.00    +0.101 A 
ENDBRANCH   1  14
BRANCH   4  16
ATOM     16  N   UNL     1       5.202  -6.291  24.673  0.00  0.00    +0.082 NA
ATOM     17  N   UNL     1       4.328  -7.181  24.616  0.00  0.00    -0.014 NA
ATOM     18  N   UNL     1       3.536  -7.996  24.549  0.00  0.00    -0.328 NA
ENDBRANCH   4  16
BRANCH   3  19
ATOM     19  C   UNL     1       6.031  -5.901  21.076  0.00  0.00    +0.189 C 
BRANCH  19  20
ATOM     20  O   UNL     1       5.866  -4.554  20.639  0.00  0.00    -0.392 OA
ATOM     21  H   UNL     1       6.508  -4.425  19.917  0.00  0.00    +0.210 HD
ENDBRANCH  19  20
ENDBRANCH   3  19
TORSDOF 4
ENDMDL
MODEL 7
REMARK VINA RESULT:      -6.2      3.203      6.821
REMARK  Name = 
REMARK  5 active torsions:
REMARK  status: ('A' for Active; 'I' for Inactive)
REMARK    1  A    between atoms: C_1  and  C_2
REMARK    2  A    between atoms: N_4  and  C_10
REMARK    3  A    between atoms: C_13  and  N_19
REMARK    4  A    between atoms: C_14  and  C_17
REMARK    5  A    between atoms: C_17  and  O_18
REMARK                            x       y       z     vdW  Elec       q    Type
REMARK                         _______ _______ _______ _____ _____    ______ ____
ROOT
ATOM      1  C   UNL     1       6.636  -2.849  23.056  0.00  0.00    +0.226 C 
ATOM      2  O   UNL     1       7.985  -3.057  22.600  0.00  0.00    -0.349 OA
ATOM      3  C   UNL     1       8.695  -1.807  22.774  0.00  0.00    +0.177 C 
ATOM      4  C   UNL     1       7.821  -0.900  23.654  0.00  0.00    +0.226 C 
ATOM      5  C   UNL     1       6.763  -1.848  24.190  0.00  0.00    +0.091 C 
ENDROOT
BRANCH   1  14
ATOM      6  C   UNL     1       5.181  -6.134  26.525  0.00  0.00    +0.051 C 
ATOM      7  C   UNL     1       5.333  -5.666  25.113  0.00  0.00    +0.030 A 
ATOM      8  C   UNL     1       4.837  -6.560  24.043  0.00  0.00    +0.257 A 
ATOM      9  O   UNL     1       4.313  -7.641  24.290  0.00  0.00    -0.267 OA
ATOM     10  N   UNL     1       4.991  -6.104  22.767  0.00  0.00    -0.275 N 
ATOM     11  H   UNL     1       4.648  -6.695  22.026  0.00  0.00    +0.173 HD
ATOM     12  C   UNL     1       5.516  -4.895  22.399  0.00  0.00    +0.331 A 
ATOM     13  O   UNL     1       5.530  -4.565  21.212  0.00  0.00    -0.246 OA
ATOM     14  N   UNL     1       6.008  -4.110  23.431  0.00  0.00    -0.274 N 
ATOM     15  C   UNL     1       5.894  -4.504  24.752  0.00  0.00    +0.101 A 
ENDBRANCH   1  14
BRANCH   4  16
ATOM     16  N   UNL     1       7.153   0.121  22.820  0.00  0.00    +0.082 NA
ATOM     17  N   UNL     1       7.906   0.873  22.169  0.00  0.00    -0.014 NA
ATOM     18  N   UNL     1       8.602   1.546  21.570  0.00  0.00    -0.328 NA
ENDBRANCH   4  16
BRANCH   3  19
ATOM     19  C   UNL     1      10.054  -2.121  23.400  0.00  0.00    +0.189 C 
BRANCH  19  20
ATOM     20  O   UNL     1      10.001  -3.342  24.135  0.00  0.00    -0.392 OA
ATOM     21  H   UNL     1       9.594  -3.997  23.540  0.00  0.00    +0.210 HD
ENDBRANCH  19  20
ENDBRANCH   3  19
TORSDOF 4
ENDMDL
MODEL 8
REMARK VINA RESULT:      -6.2      2.103      3.076
REMARK  Name = 
REMARK  5 active torsions:
REMARK  status: ('A' for Active; 'I' for Inactive)
REMARK    1  A    between atoms: C_1  and  C_2
REMARK    2  A    between atoms: N_4  and  C_10
REMARK    3  A    between atoms: C_13  and  N_19
REMARK    4  A    between atoms: C_14  and  C_17
REMARK    5  A    between atoms: C_17  and  O_18
REMARK                            x       y       z     vdW  Elec       q    Type
REMARK                         _______ _______ _______ _____ _____    ______ ____
ROOT
ATOM      1  C   UNL     1       7.704  -3.680  25.037  0.00  0.00    +0.226 C 
ATOM      2  O   UNL     1       6.274  -3.619  24.902  0.00  0.00    -0.349 OA
ATOM      3  C   UNL     1       5.703  -4.189  26.104  0.00  0.00    +0.177 C 
ATOM      4  C   UNL     1       6.835  -4.318  27.135  0.00  0.00    +0.226 C 
ATOM      5  C   UNL     1       7.959  -3.500  26.524  0.00  0.00    +0.091 C 
ENDROOT
BRANCH   1  14
ATOM      6  C   UNL     1      10.509   0.413  24.476  0.00  0.00    +0.051 C 
ATOM      7  C   UNL     1       9.692  -0.723  23.953  0.00  0.00    +0.030 A 
ATOM      8  C   UNL     1       9.520  -0.820  22.486  0.00  0.00    +0.257 A 
ATOM      9  O   UNL     1      10.028  -0.010  21.718  0.00  0.00    -0.267 OA
ATOM     10  N   UNL     1       8.768  -1.868  22.042  0.00  0.00    -0.275 N 
ATOM     11  H   UNL     1       8.651  -1.956  21.046  0.00  0.00    +0.173 HD
ATOM     12  C   UNL     1       8.206  -2.845  22.818  0.00  0.00    +0.331 A 
ATOM     13  O   UNL     1       7.613  -3.786  22.290  0.00  0.00    -0.246 OA
ATOM     14  N   UNL     1       8.356  -2.690  24.189  0.00  0.00    -0.274 N 
ATOM     15  C   UNL     1       9.099  -1.651  24.718  0.00  0.00    +0.101 A 
ENDBRANCH   1  14
BRANCH   4  16
ATOM     16  N   UNL     1       7.279  -5.725  27.225  0.00  0.00    +0.082 NA
ATOM     17  N   UNL     1       6.899  -6.354  28.233  0.00  0.00    -0.014 NA
ATOM     18  N   UNL     1       6.536  -6.922  29.150  0.00  0.00    -0.328 NA
ENDBRANCH   4  16
BRANCH   3  19
ATOM     19  C   UNL     1       4.572  -3.272  26.569  0.00  0.00    +0.189 C 
BRANCH  19  20
ATOM     20  O   UNL     1       4.241  -2.325  25.555  0.00  0.00    -0.392 OA
ATOM     21  H   UNL     1       4.554  -2.708  24.716  0.00  0.00    +0.210 HD
ENDBRANCH  19  20
ENDBRANCH   3  19
TORSDOF 4
ENDMDL
MODEL 9
REMARK VINA RESULT:      -6.2      2.744      3.290
REMARK  Name = 
REMARK  5 active torsions:
REMARK  status: ('A' for Active; 'I' for Inactive)
REMARK    1  A    between atoms: C_1  and  C_2
REMARK    2  A    between atoms: N_4  and  C_10
REMARK    3  A    between atoms: C_13  and  N_19
REMARK    4  A    between atoms: C_14  and  C_17
REMARK    5  A    between atoms: C_17  and  O_18
REMARK                            x       y       z     vdW  Elec       q    Type
REMARK                         _______ _______ _______ _____ _____    ______ ____
ROOT
ATOM      1  C   UNL     1       7.348  -2.703  24.315  0.00  0.00    +0.226 C 
ATOM      2  O   UNL     1       7.762  -3.500  25.439  0.00  0.00    -0.349 OA
ATOM      3  C   UNL     1       7.807  -4.878  24.996  0.00  0.00    +0.177 C 
ATOM      4  C   UNL     1       7.712  -4.872  23.462  0.00  0.00    +0.226 C 
ATOM      5  C   UNL     1       7.930  -3.413  23.104  0.00  0.00    +0.091 C 
ENDROOT
BRANCH   1  14
ATOM      6  C   UNL     1      10.949   0.749  24.542  0.00  0.00    +0.051 C 
ATOM      7  C   UNL     1       9.521   0.309  24.580  0.00  0.00    +0.030 A 
ATOM      8  C   UNL     1       8.494   1.349  24.815  0.00  0.00    +0.257 A 
ATOM      9  O   UNL     1       8.788   2.530  24.966  0.00  0.00    -0.267 OA
ATOM     10  N   UNL     1       7.202   0.914  24.845  0.00  0.00    -0.275 N 
ATOM     11  H   UNL     1       6.489   1.610  24.992  0.00  0.00    +0.173 HD
ATOM     12  C   UNL     1       6.777  -0.370  24.638  0.00  0.00    +0.331 A 
ATOM     13  O   UNL     1       5.572  -0.624  24.613  0.00  0.00    -0.246 OA
ATOM     14  N   UNL     1       7.776  -1.318  24.466  0.00  0.00    -0.274 N 
ATOM     15  C   UNL     1       9.110  -0.957  24.428  0.00  0.00    +0.101 A 
ENDBRANCH   1  14
BRANCH   4  16
ATOM     16  N   UNL     1       6.349  -5.257  23.039  0.00  0.00    +0.082 NA
ATOM     17  N   UNL     1       6.180  -5.403  21.810  0.00  0.00    -0.014 NA
ATOM     18  N   UNL     1       6.039  -5.545  20.690  0.00  0.00    -0.328 NA
ENDBRANCH   4  16
BRANCH   3  19
ATOM     19  C   UNL     1       9.105  -5.496  25.513  0.00  0.00    +0.189 C 
BRANCH  19  20
ATOM     20  O   UNL     1      10.224  -5.016  24.771  0.00  0.00    -0.392 OA
ATOM     21  H   UNL     1      10.094  -4.055  24.680  0.00  0.00    +0.210 HD
ENDBRANCH  19  20
ENDBRANCH   3  19
TORSDOF 4
ENDMDL
