MODEL 1
REMARK VINA RESULT:      -6.5      0.000      0.000
REMARK  Name = 
REMARK  8 active torsions:
REMARK  status: ('A' for Active; 'I' for Inactive)
REMARK    1  A    between atoms: C_1  and  C_2
REMARK    2  A    between atoms: C_2  and  C_3
REMARK    3  A    between atoms: C_2  and  N_4
REMARK    4  A    between atoms: N_13  and  C1*_14
REMARK    5  A    between atoms: C2*_16  and  O2*_26
REMARK    6  A    between atoms: C3*_18  and  O3*_25
REMARK    7  A    between atoms: C4*_20  and  C5*_23
REMARK    8  A    between atoms: C5*_23  and  O5*_24
REMARK                            x       y       z     vdW  Elec       q    Type
REMARK                         _______ _______ _______ _____ _____    ______ ____
ROOT
ATOM      1  N   UNL     1       5.651  -4.075  24.079  0.00  0.00    -0.312 N 
ATOM      2  H   UNL     1       5.038  -4.241  24.884  0.00  0.00    +0.149 HD
ATOM      3  C   UNL     1       6.282  -2.885  23.999  0.00  0.00    +0.199 A 
ATOM      4  N   UNL     1       7.026  -2.404  25.077  0.00  0.00    -0.283 N 
ATOM      5  C   UNL     1       7.878  -1.435  24.576  0.00  0.00    +0.074 A 
ATOM      6  C   UNL     1       7.429  -1.243  23.262  0.00  0.00    +0.092 A 
ATOM      7  C   UNL     1       8.074  -0.322  22.418  0.00  0.00    +0.051 A 
ATOM      8  C   UNL     1       9.224   0.322  22.880  0.00  0.00    +0.061 A 
ATOM      9 CL   UNL     1      10.061   1.348  21.763  0.00  0.00    -0.082 Cl
ATOM     10  C   UNL     1       9.688   0.097  24.183  0.00  0.00    +0.061 A 
ATOM     11 CL   UNL     1      11.159   0.803  24.762  0.00  0.00    -0.082 Cl
ATOM     12  C   UNL     1       8.999  -0.757  25.064  0.00  0.00    +0.049 A 
ATOM     13  N   UNL     1       6.414  -2.096  22.961  0.00  0.00    -0.214 NA
ENDROOT
BRANCH   4  14
ATOM     14  C1* UNL     1       7.040  -3.089  26.377  0.00  0.00    +0.254 C 
ATOM     15  O4* UNL     1       5.715  -3.407  26.833  0.00  0.00    -0.346 OA
ATOM     16  C4* UNL     1       5.674  -4.758  27.330  0.00  0.00    +0.177 C 
ATOM     17  C3* UNL     1       6.973  -5.460  26.939  0.00  0.00    +0.178 C 
ATOM     18  C2* UNL     1       7.893  -4.372  26.390  0.00  0.00    +0.195 C 
BRANCH  17  19
ATOM     19  O3* UNL     1       7.545  -6.289  27.941  0.00  0.00    -0.386 OA
ATOM     20  H3* UNL     1       8.251  -5.781  28.389  0.00  0.00    +0.210 HD
ENDBRANCH  17  19
BRANCH  18  21
ATOM     21  O2* UNL     1       9.123  -4.221  27.113  0.00  0.00    -0.385 OA
ATOM     22  H2* UNL     1       9.002  -3.616  27.865  0.00  0.00    +0.210 HD
ENDBRANCH  18  21
BRANCH  16  23
ATOM     23  C5* UNL     1       5.346  -4.777  28.827  0.00  0.00    +0.190 C 
BRANCH  23  24
ATOM     24  O5* UNL     1       4.985  -6.095  29.243  0.00  0.00    -0.392 OA
ATOM     25  H5* UNL     1       5.483  -6.709  28.673  0.00  0.00    +0.210 HD
ENDBRANCH  23  24
ENDBRANCH  16  23
ENDBRANCH   4  14
BRANCH   1  27
ATOM     26  C   UNL     1       6.340  -5.704  22.383  0.00  0.00    +0.027 C 
ATOM     27  C   UNL     1       5.205  -4.832  22.903  0.00  0.00    +0.067 C 
ATOM     28  C   UNL     1       3.886  -5.582  23.066  0.00  0.00    +0.027 C 
ENDBRANCH   1  27
TORSDOF 6
ENDMDL
MODEL 2
REMARK VINA RESULT:      -6.2      4.309      6.712
REMARK  Name = 
REMARK  8 active torsions:
REMARK  status: ('A' for Active; 'I' for Inactive)
REMARK    1  A    between atoms: C_1  and  C_2
REMARK    2  A    between atoms: C_2  and  C_3
REMARK    3  A    between atoms: C_2  and  N_4
REMARK    4  A    between atoms: N_13  and  C1*_14
REMARK    5  A    between atoms: C2*_16  and  O2*_26
REMARK    6  A    between atoms: C3*_18  and  O3*_25
REMARK    7  A    between atoms: C4*_20  and  C5*_23
REMARK    8  A    between atoms: C5*_23  and  O5*_24
REMARK                            x       y       z     vdW  Elec       q    Type
REMARK                         _______ _______ _______ _____ _____    ______ ____
ROOT
ATOM      1  N   UNL     1       6.617   0.404  25.541  0.00  0.00    -0.312 N 
ATOM      2  H   UNL     1       6.882   1.301  25.121  0.00  0.00    +0.149 HD
ATOM      3  C   UNL     1       6.196  -0.580  24.719  0.00  0.00    +0.199 A 
ATOM      4  N   UNL     1       6.960  -0.954  23.613  0.00  0.00    -0.283 N 
ATOM      5  C   UNL     1       6.531  -2.215  23.235  0.00  0.00    +0.074 A 
ATOM      6  C   UNL     1       5.380  -2.420  24.010  0.00  0.00    +0.092 A 
ATOM      7  C   UNL     1       4.661  -3.624  23.908  0.00  0.00    +0.051 A 
ATOM      8  C   UNL     1       5.167  -4.643  23.098  0.00  0.00    +0.061 A 
ATOM      9 CL   UNL     1       4.321  -6.154  23.104  0.00  0.00    -0.082 Cl
ATOM     10  C   UNL     1       6.339  -4.444  22.356  0.00  0.00    +0.061 A 
ATOM     11 CL   UNL     1       7.050  -5.710  21.413  0.00  0.00    -0.082 Cl
ATOM     12  C   UNL     1       7.018  -3.211  22.384  0.00  0.00    +0.049 A 
ATOM     13  N   UNL     1       5.167  -1.379  24.857  0.00  0.00    -0.214 NA
ENDROOT
BRANCH   4  14
ATOM     14  C1* UNL     1       8.165  -0.212  23.215  0.00  0.00    +0.254 C 
ATOM     15  O4* UNL     1       7.985   1.209  23.329  0.00  0.00    -0.346 OA
ATOM     16  C4* UNL     1       9.132   1.804  23.964  0.00  0.00    +0.177 C 
ATOM     17  C3* UNL     1      10.001   0.689  24.542  0.00  0.00    +0.178 C 
ATOM     18  C2* UNL     1       9.427  -0.618  24.000  0.00  0.00    +0.195 C 
BRANCH  17  19
ATOM     19  O3* UNL     1      11.401   0.854  24.369  0.00  0.00    -0.386 OA
ATOM     20  H3* UNL     1      11.616   1.797  24.516  0.00  0.00    +0.210 HD
ENDBRANCH  17  19
BRANCH  18  21
ATOM     21  O2* UNL     1      10.351  -1.388  23.218  0.00  0.00    -0.385 OA
ATOM     22  H2* UNL     1      10.747  -0.835  22.521  0.00  0.00    +0.210 HD
ENDBRANCH  18  21
BRANCH  16  23
ATOM     23  C5* UNL     1       9.848   2.762  23.007  0.00  0.00    +0.190 C 
BRANCH  23  24
ATOM     24  O5* UNL     1      10.179   2.096  21.787  0.00  0.00    -0.392 OA
ATOM     25  H5* UNL     1      11.149   2.152  21.698  0.00  0.00    +0.210 HD
ENDBRANCH  23  24
ENDBRANCH  16  23
ENDBRANCH   4  14
BRANCH   1  27
ATOM     26  C   UNL     1       7.271   0.545  27.898  0.00  0.00    +0.027 C 
ATOM     27  C   UNL     1       6.114   0.582  26.908  0.00  0.00    +0.067 C 
ATOM     28  C   UNL     1       5.174   1.767  27.114  0.00  0.00    +0.027 C 
ENDBRANCH   1  27
TORSDOF 6
ENDMDL
MODEL 3
REMARK VINA RESULT:      -6.0      2.429      4.167
REMARK  Name = 
REMARK  8 active torsions:
REMARK  status: ('A' for Active; 'I' for Inactive)
REMARK    1  A    between atoms: C_1  and  C_2
REMARK    2  A    between atoms: C_2  and  C_3
REMARK    3  A    between atoms: C_2  and  N_4
REMARK    4  A    between atoms: N_13  and  C1*_14
REMARK    5  A    between atoms: C2*_16  and  O2*_26
REMARK    6  A    between atoms: C3*_18  and  O3*_25
REMARK    7  A    between atoms: C4*_20  and  C5*_23
REMARK    8  A    between atoms: C5*_23  and  O5*_24
REMARK                            x       y       z     vdW  Elec       q    Type
REMARK                         _______ _______ _______ _____ _____    ______ ____
ROOT
ATOM      1  N   UNL     1       5.970  -3.877  26.904  0.00  0.00    -0.312 N 
ATOM      2  H   UNL     1       5.932  -4.902  26.892  0.00  0.00    +0.149 HD
ATOM      3  C   UNL     1       7.024  -3.276  26.312  0.00  0.00    +0.199 A 
ATOM      4  N   UNL     1       7.378  -3.598  25.001  0.00  0.00    -0.283 N 
ATOM      5  C   UNL     1       8.168  -2.561  24.533  0.00  0.00    +0.074 A 
ATOM      6  C   UNL     1       8.415  -1.789  25.677  0.00  0.00    +0.092 A 
ATOM      7  C   UNL     1       9.189  -0.618  25.589  0.00  0.00    +0.051 A 
ATOM      8  C   UNL     1       9.620  -0.190  24.331  0.00  0.00    +0.061 A 
ATOM      9 CL   UNL     1      10.457   1.324  24.253  0.00  0.00    -0.082 Cl
ATOM     10  C   UNL     1       9.337  -0.948  23.188  0.00  0.00    +0.061 A 
ATOM     11 CL   UNL     1       9.772  -0.407  21.602  0.00  0.00    -0.082 Cl
ATOM     12  C   UNL     1       8.637  -2.167  23.277  0.00  0.00    +0.049 A 
ATOM     13  N   UNL     1       7.757  -2.286  26.757  0.00  0.00    -0.214 NA
ENDROOT
BRANCH   4  14
ATOM     14  C1* UNL     1       6.725  -4.689  24.266  0.00  0.00    +0.254 C 
ATOM     15  O4* UNL     1       5.293  -4.572  24.287  0.00  0.00    -0.346 OA
ATOM     16  C4* UNL     1       4.758  -4.803  22.970  0.00  0.00    +0.177 C 
ATOM     17  C3* UNL     1       5.913  -4.811  21.970  0.00  0.00    +0.178 C 
ATOM     18  C2* UNL     1       7.192  -4.815  22.803  0.00  0.00    +0.195 C 
BRANCH  17  19
ATOM     19  O3* UNL     1       5.842  -5.812  20.964  0.00  0.00    -0.386 OA
ATOM     20  H3* UNL     1       6.645  -5.742  20.409  0.00  0.00    +0.210 HD
ENDBRANCH  17  19
BRANCH  18  21
ATOM     21  O2* UNL     1       8.038  -5.952  22.580  0.00  0.00    -0.385 OA
ATOM     22  H2* UNL     1       8.678  -6.046  23.308  0.00  0.00    +0.210 HD
ENDBRANCH  18  21
BRANCH  16  23
ATOM     23  C5* UNL     1       3.871  -6.052  22.955  0.00  0.00    +0.190 C 
BRANCH  23  24
ATOM     24  O5* UNL     1       4.589  -7.183  23.451  0.00  0.00    -0.392 OA
ATOM     25  H5* UNL     1       4.325  -7.941  22.898  0.00  0.00    +0.210 HD
ENDBRANCH  23  24
ENDBRANCH  16  23
ENDBRANCH   4  14
BRANCH   1  27
ATOM     26  C   UNL     1       4.325  -2.228  27.663  0.00  0.00    +0.027 C 
ATOM     27  C   UNL     1       5.287  -3.331  28.083  0.00  0.00    +0.067 C 
ATOM     28  C   UNL     1       4.662  -4.364  29.017  0.00  0.00    +0.027 C 
ENDBRANCH   1  27
TORSDOF 6
ENDMDL
MODEL 4
REMARK VINA RESULT:      -6.0      5.471      8.190
REMARK  Name = 
REMARK  8 active torsions:
REMARK  status: ('A' for Active; 'I' for Inactive)
REMARK    1  A    between atoms: C_1  and  C_2
REMARK    2  A    between atoms: C_2  and  C_3
REMARK    3  A    between atoms: C_2  and  N_4
REMARK    4  A    between atoms: N_13  and  C1*_14
REMARK    5  A    between atoms: C2*_16  and  O2*_26
REMARK    6  A    between atoms: C3*_18  and  O3*_25
REMARK    7  A    between atoms: C4*_20  and  C5*_23
REMARK    8  A    between atoms: C5*_23  and  O5*_24
REMARK                            x       y       z     vdW  Elec       q    Type
REMARK                         _______ _______ _______ _____ _____    ______ ____
ROOT
ATOM      1  N   UNL     1      11.583   4.089  23.073  0.00  0.00    -0.312 N 
ATOM      2  H   UNL     1      11.617   3.671  22.138  0.00  0.00    +0.149 HD
ATOM      3  C   UNL     1      10.378   4.205  23.671  0.00  0.00    +0.199 A 
ATOM      4  N   UNL     1       9.532   3.100  23.779  0.00  0.00    -0.283 N 
ATOM      5  C   UNL     1       8.617   3.391  24.777  0.00  0.00    +0.074 A 
ATOM      6  C   UNL     1       8.842   4.748  25.049  0.00  0.00    +0.092 A 
ATOM      7  C   UNL     1       8.093   5.407  26.040  0.00  0.00    +0.051 A 
ATOM      8  C   UNL     1       7.195   4.664  26.809  0.00  0.00    +0.061 A 
ATOM      9 CL   UNL     1       6.390   5.487  28.103  0.00  0.00    -0.082 Cl
ATOM     10  C   UNL     1       7.003   3.299  26.555  0.00  0.00    +0.061 A 
ATOM     11 CL   UNL     1       5.970   2.323  27.544  0.00  0.00    -0.082 Cl
ATOM     12  C   UNL     1       7.685   2.651  25.509  0.00  0.00    +0.049 A 
ATOM     13  N   UNL     1       9.878   5.231  24.313  0.00  0.00    -0.214 NA
ENDROOT
BRANCH   4  14
ATOM     14  C1* UNL     1       9.843   1.819  23.133  0.00  0.00    +0.254 C 
ATOM     15  O4* UNL     1      10.292   0.833  24.077  0.00  0.00    -0.346 OA
ATOM     16  C4* UNL     1       9.637  -0.426  23.828  0.00  0.00    +0.177 C 
ATOM     17  C3* UNL     1       8.498  -0.194  22.837  0.00  0.00    +0.178 C 
ATOM     18  C2* UNL     1       8.670   1.234  22.324  0.00  0.00    +0.195 C 
BRANCH  17  19
ATOM     19  O3* UNL     1       8.353  -1.187  21.831  0.00  0.00    -0.386 OA
ATOM     20  H3* UNL     1       7.431  -1.515  21.860  0.00  0.00    +0.210 HD
ENDBRANCH  17  19
BRANCH  18  21
ATOM     21  O2* UNL     1       8.862   1.331  20.905  0.00  0.00    -0.385 OA
ATOM     22  H2* UNL     1       8.473   0.559  20.457  0.00  0.00    +0.210 HD
ENDBRANCH  18  21
BRANCH  16  23
ATOM     23  C5* UNL     1      10.653  -1.496  23.418  0.00  0.00    +0.190 C 
BRANCH  23  24
ATOM     24  O5* UNL     1      10.141  -2.802  23.687  0.00  0.00    -0.392 OA
ATOM     25  H5* UNL     1       9.374  -2.923  23.097  0.00  0.00    +0.210 HD
ENDBRANCH  23  24
ENDBRANCH  16  23
ENDBRANCH   4  14
BRANCH   1  27
ATOM     26  C   UNL     1      13.194   5.531  21.921  0.00  0.00    +0.027 C 
ATOM     27  C   UNL     1      12.676   5.048  23.270  0.00  0.00    +0.067 C 
ATOM     28  C   UNL     1      12.390   6.180  24.253  0.00  0.00    +0.027 C 
ENDBRANCH   1  27
TORSDOF 6
ENDMDL
MODEL 5
REMARK VINA RESULT:      -5.8      6.217      8.905
REMARK  Name = 
REMARK  8 active torsions:
REMARK  status: ('A' for Active; 'I' for Inactive)
REMARK    1  A    between atoms: C_1  and  C_2
REMARK    2  A    between atoms: C_2  and  C_3
REMARK    3  A    between atoms: C_2  and  N_4
REMARK    4  A    between atoms: N_13  and  C1*_14
REMARK    5  A    between atoms: C2*_16  and  O2*_26
REMARK    6  A    between atoms: C3*_18  and  O3*_25
REMARK    7  A    between atoms: C4*_20  and  C5*_23
REMARK    8  A    between atoms: C5*_23  and  O5*_24
REMARK                            x       y       z     vdW  Elec       q    Type
REMARK                         _______ _______ _______ _____ _____    ______ ____
ROOT
ATOM      1  N   UNL     1      10.202   5.661  24.334  0.00  0.00    -0.312 N 
ATOM      2  H   UNL     1      11.001   5.155  23.936  0.00  0.00    +0.149 HD
ATOM      3  C   UNL     1       9.026   5.605  23.674  0.00  0.00    +0.199 A 
ATOM      4  N   UNL     1       8.479   4.376  23.304  0.00  0.00    -0.283 N 
ATOM      5  C   UNL     1       7.133   4.593  23.059  0.00  0.00    +0.074 A 
ATOM      6  C   UNL     1       7.011   5.990  23.086  0.00  0.00    +0.092 A 
ATOM      7  C   UNL     1       5.759   6.596  22.887  0.00  0.00    +0.051 A 
ATOM      8  C   UNL     1       4.630   5.784  22.761  0.00  0.00    +0.061 A 
ATOM      9 CL   UNL     1       3.093   6.573  22.649  0.00  0.00    -0.082 Cl
ATOM     10  C   UNL     1       4.755   4.388  22.773  0.00  0.00    +0.061 A 
ATOM     11 CL   UNL     1       3.374   3.346  22.713  0.00  0.00    -0.082 Cl
ATOM     12  C   UNL     1       6.016   3.772  22.884  0.00  0.00    +0.049 A 
ATOM     13  N   UNL     1       8.195   6.580  23.399  0.00  0.00    -0.214 NA
ENDROOT
BRANCH   4  14
ATOM     14  C1* UNL     1       9.211   3.116  23.483  0.00  0.00    +0.254 C 
ATOM     15  O4* UNL     1       8.814   2.425  24.679  0.00  0.00    -0.346 OA
ATOM     16  C4* UNL     1       8.617   1.026  24.402  0.00  0.00    +0.177 C 
ATOM     17  C3* UNL     1       8.625   0.825  22.888  0.00  0.00    +0.178 C 
ATOM     18  C2* UNL     1       9.083   2.152  22.288  0.00  0.00    +0.195 C 
BRANCH  17  19
ATOM     19  O3* UNL     1       9.325  -0.323  22.428  0.00  0.00    -0.386 OA
ATOM     20  H3* UNL     1      10.283  -0.124  22.453  0.00  0.00    +0.210 HD
ENDBRANCH  17  19
BRANCH  18  21
ATOM     21  O2* UNL     1      10.283   2.062  21.507  0.00  0.00    -0.385 OA
ATOM     22  H2* UNL     1      10.329   2.797  20.870  0.00  0.00    +0.210 HD
ENDBRANCH  18  21
BRANCH  16  23
ATOM     23  C5* UNL     1       9.621   0.170  25.181  0.00  0.00    +0.190 C 
BRANCH  23  24
ATOM     24  O5* UNL     1      10.958   0.484  24.787  0.00  0.00    -0.392 OA
ATOM     25  H5* UNL     1      11.229  -0.211  24.160  0.00  0.00    +0.210 HD
ENDBRANCH  23  24
ENDBRANCH  16  23
ENDBRANCH   4  14
BRANCH   1  27
ATOM     26  C   UNL     1       9.850   6.929  26.400  0.00  0.00    +0.027 C 
ATOM     27  C   UNL     1      10.641   6.831  25.103  0.00  0.00    +0.067 C 
ATOM     28  C   UNL     1      12.149   6.962  25.297  0.00  0.00    +0.027 C 
ENDBRANCH   1  27
TORSDOF 6
ENDMDL
MODEL 6
REMARK VINA RESULT:      -5.8      2.751      4.036
REMARK  Name = 
REMARK  8 active torsions:
REMARK  status: ('A' for Active; 'I' for Inactive)
REMARK    1  A    between atoms: C_1  and  C_2
REMARK    2  A    between atoms: C_2  and  C_3
REMARK    3  A    between atoms: C_2  and  N_4
REMARK    4  A    between atoms: N_13  and  C1*_14
REMARK    5  A    between atoms: C2*_16  and  O2*_26
REMARK    6  A    between atoms: C3*_18  and  O3*_25
REMARK    7  A    between atoms: C4*_20  and  C5*_23
REMARK    8  A    between atoms: C5*_23  and  O5*_24
REMARK                            x       y       z     vdW  Elec       q    Type
REMARK                         _______ _______ _______ _____ _____    ______ ____
ROOT
ATOM      1  N   UNL     1       6.197  -1.722  26.243  0.00  0.00    -0.312 N 
ATOM      2  H   UNL     1       6.589  -2.567  26.671  0.00  0.00    +0.149 HD
ATOM      3  C   UNL     1       6.986  -0.630  26.158  0.00  0.00    +0.199 A 
ATOM      4  N   UNL     1       8.258  -0.719  25.591  0.00  0.00    -0.283 N 
ATOM      5  C   UNL     1       8.635   0.568  25.248  0.00  0.00    +0.074 A 
ATOM      6  C   UNL     1       7.649   1.372  25.838  0.00  0.00    +0.092 A 
ATOM      7  C   UNL     1       7.691   2.770  25.690  0.00  0.00    +0.051 A 
ATOM      8  C   UNL     1       8.672   3.330  24.869  0.00  0.00    +0.061 A 
ATOM      9 CL   UNL     1       8.607   5.042  24.610  0.00  0.00    -0.082 Cl
ATOM     10  C   UNL     1       9.632   2.516  24.252  0.00  0.00    +0.061 A 
ATOM     11 CL   UNL     1      10.806   3.159  23.155  0.00  0.00    -0.082 Cl
ATOM     12  C   UNL     1       9.650   1.125  24.464  0.00  0.00    +0.049 A 
ATOM     13  N   UNL     1       6.694   0.615  26.439  0.00  0.00    -0.214 NA
ENDROOT
BRANCH   4  14
ATOM     14  C1* UNL     1       8.845  -2.007  25.199  0.00  0.00    +0.254 C 
ATOM     15  O4* UNL     1       8.680  -3.007  26.218  0.00  0.00    -0.346 OA
ATOM     16  C4* UNL     1       8.242  -4.247  25.629  0.00  0.00    +0.177 C 
ATOM     17  C3* UNL     1       7.839  -3.981  24.180  0.00  0.00    +0.178 C 
ATOM     18  C2* UNL     1       8.295  -2.558  23.869  0.00  0.00    +0.195 C 
BRANCH  17  19
ATOM     19  O3* UNL     1       8.248  -4.967  23.242  0.00  0.00    -0.386 OA
ATOM     20  H3* UNL     1       8.430  -4.520  22.391  0.00  0.00    +0.210 HD
ENDBRANCH  17  19
BRANCH  18  21
ATOM     21  O2* UNL     1       9.236  -2.463  22.790  0.00  0.00    -0.385 OA
ATOM     22  H2* UNL     1      10.133  -2.676  23.104  0.00  0.00    +0.210 HD
ENDBRANCH  18  21
BRANCH  16  23
ATOM     23  C5* UNL     1       9.294  -5.344  25.825  0.00  0.00    +0.190 C 
BRANCH  23  24
ATOM     24  O5* UNL     1      10.389  -5.153  24.928  0.00  0.00    -0.392 OA
ATOM     25  H5* UNL     1      10.356  -4.220  24.649  0.00  0.00    +0.210 HD
ENDBRANCH  23  24
ENDBRANCH  16  23
ENDBRANCH   4  14
BRANCH   1  27
ATOM     26  C   UNL     1       4.058  -2.739  25.615  0.00  0.00    +0.027 C 
ATOM     27  C   UNL     1       4.743  -1.653  26.433  0.00  0.00    +0.067 C 
ATOM     28  C   UNL     1       4.272  -1.594  27.884  0.00  0.00    +0.027 C 
ENDBRANCH   1  27
TORSDOF 6
ENDMDL
MODEL 7
REMARK VINA RESULT:      -5.7      4.725      7.137
REMARK  Name = 
REMARK  8 active torsions:
REMARK  status: ('A' for Active; 'I' for Inactive)
REMARK    1  A    between atoms: C_1  and  C_2
REMARK    2  A    between atoms: C_2  and  C_3
REMARK    3  A    between atoms: C_2  and  N_4
REMARK    4  A    between atoms: N_13  and  C1*_14
REMARK    5  A    between atoms: C2*_16  and  O2*_26
REMARK    6  A    between atoms: C3*_18  and  O3*_25
REMARK    7  A    between atoms: C4*_20  and  C5*_23
REMARK    8  A    between atoms: C5*_23  and  O5*_24
REMARK                            x       y       z     vdW  Elec       q    Type
REMARK                         _______ _______ _______ _____ _____    ______ ____
ROOT
ATOM      1  N   UNL     1       5.206   1.873  25.259  0.00  0.00    -0.312 N 
ATOM      2  H   UNL     1       5.160   2.558  24.498  0.00  0.00    +0.149 HD
ATOM      3  C   UNL     1       5.612   0.621  24.960  0.00  0.00    +0.199 A 
ATOM      4  N   UNL     1       6.803   0.411  24.264  0.00  0.00    -0.283 N 
ATOM      5  C   UNL     1       7.169  -0.906  24.483  0.00  0.00    +0.074 A 
ATOM      6  C   UNL     1       6.050  -1.461  25.121  0.00  0.00    +0.092 A 
ATOM      7  C   UNL     1       6.057  -2.809  25.520  0.00  0.00    +0.051 A 
ATOM      8  C   UNL     1       7.227  -3.553  25.358  0.00  0.00    +0.061 A 
ATOM      9 CL   UNL     1       7.233  -5.169  25.982  0.00  0.00    -0.082 Cl
ATOM     10  C   UNL     1       8.354  -2.980  24.753  0.00  0.00    +0.061 A 
ATOM     11 CL   UNL     1       9.852  -3.837  24.616  0.00  0.00    -0.082 Cl
ATOM     12  C   UNL     1       8.329  -1.658  24.271  0.00  0.00    +0.049 A 
ATOM     13  N   UNL     1       5.094  -0.520  25.340  0.00  0.00    -0.214 NA
ENDROOT
BRANCH   4  14
ATOM     14  C1* UNL     1       7.583   1.523  23.706  0.00  0.00    +0.254 C 
ATOM     15  O4* UNL     1       8.556   2.021  24.638  0.00  0.00    -0.346 OA
ATOM     16  C4* UNL     1       9.821   2.215  23.978  0.00  0.00    +0.177 C 
ATOM     17  C3* UNL     1       9.756   1.560  22.600  0.00  0.00    +0.178 C 
ATOM     18  C2* UNL     1       8.294   1.178  22.383  0.00  0.00    +0.195 C 
BRANCH  17  19
ATOM     19  O3* UNL     1      10.352   2.300  21.544  0.00  0.00    -0.386 OA
ATOM     20  H3* UNL     1      10.663   3.153  21.908  0.00  0.00    +0.210 HD
ENDBRANCH  17  19
BRANCH  18  21
ATOM     21  O2* UNL     1       7.686   1.797  21.240  0.00  0.00    -0.385 OA
ATOM     22  H2* UNL     1       7.649   2.763  21.358  0.00  0.00    +0.210 HD
ENDBRANCH  18  21
BRANCH  16  23
ATOM     23  C5* UNL     1      10.216   3.695  23.981  0.00  0.00    +0.190 C 
BRANCH  23  24
ATOM     24  O5* UNL     1       9.377   4.438  23.094  0.00  0.00    -0.392 OA
ATOM     25  H5* UNL     1       9.810   4.410  22.221  0.00  0.00    +0.210 HD
ENDBRANCH  23  24
ENDBRANCH  16  23
ENDBRANCH   4  14
BRANCH   1  27
ATOM     26  C   UNL     1       4.932   2.694  27.551  0.00  0.00    +0.027 C 
ATOM     27  C   UNL     1       4.224   2.173  26.308  0.00  0.00    +0.067 C 
ATOM     28  C   UNL     1       3.042   3.035  25.874  0.00  0.00    +0.027 C 
ENDBRANCH   1  27
TORSDOF 6
ENDMDL
MODEL 8
REMARK VINA RESULT:      -5.6      2.684      4.194
REMARK  Name = 
REMARK  8 active torsions:
REMARK  status: ('A' for Active; 'I' for Inactive)
REMARK    1  A    between atoms: C_1  and  C_2
REMARK    2  A    between atoms: C_2  and  C_3
REMARK    3  A    between atoms: C_2  and  N_4
REMARK    4  A    between atoms: N_13  and  C1*_14
REMARK    5  A    between atoms: C2*_16  and  O2*_26
REMARK    6  A    between atoms: C3*_18  and  O3*_25
REMARK    7  A    between atoms: C4*_20  and  C5*_23
REMARK    8  A    between atoms: C5*_23  and  O5*_24
REMARK                            x       y       z     vdW  Elec       q    Type
REMARK                         _______ _______ _______ _____ _____    ______ ____
ROOT
ATOM      1  N   UNL     1       5.521  -1.318  27.189  0.00  0.00    -0.312 N 
ATOM      2  H   UNL     1       5.745  -2.210  27.641  0.00  0.00    +0.149 HD
ATOM      3  C   UNL     1       6.539  -0.598  26.672  0.00  0.00    +0.199 A 
ATOM      4  N   UNL     1       7.448  -1.187  25.792  0.00  0.00    -0.283 N 
ATOM      5  C   UNL     1       8.076  -0.156  25.113  0.00  0.00    +0.074 A 
ATOM      6  C   UNL     1       7.655   0.995  25.794  0.00  0.00    +0.092 A 
ATOM      7  C   UNL     1       8.086   2.266  25.373  0.00  0.00    +0.051 A 
ATOM      8  C   UNL     1       8.857   2.365  24.213  0.00  0.00    +0.061 A 
ATOM      9 CL   UNL     1       9.255   3.956  23.659  0.00  0.00    -0.082 Cl
ATOM     10  C   UNL     1       9.243   1.211  23.517  0.00  0.00    +0.061 A 
ATOM     11 CL   UNL     1      10.119   1.294  22.027  0.00  0.00    -0.082 Cl
ATOM     12  C   UNL     1       8.889  -0.070  23.980  0.00  0.00    +0.049 A 
ATOM     13  N   UNL     1       6.769   0.688  26.779  0.00  0.00    -0.214 NA
ENDROOT
BRANCH   4  14
ATOM     14  C1* UNL     1       7.428  -2.627  25.505  0.00  0.00    +0.254 C 
ATOM     15  O4* UNL     1       7.063  -2.900  24.142  0.00  0.00    -0.346 OA
ATOM     16  C4* UNL     1       7.946  -3.891  23.582  0.00  0.00    +0.177 C 
ATOM     17  C3* UNL     1       9.121  -4.091  24.538  0.00  0.00    +0.178 C 
ATOM     18  C2* UNL     1       8.759  -3.338  25.815  0.00  0.00    +0.195 C 
BRANCH  17  19
ATOM     19  O3* UNL     1       9.535  -5.437  24.724  0.00  0.00    -0.386 OA
ATOM     20  H3* UNL     1       9.395  -5.917  23.882  0.00  0.00    +0.210 HD
ENDBRANCH  17  19
BRANCH  18  21
ATOM     21  O2* UNL     1       8.695  -4.163  26.987  0.00  0.00    -0.385 OA
ATOM     22  H2* UNL     1       7.769  -4.300  27.254  0.00  0.00    +0.210 HD
ENDBRANCH  18  21
BRANCH  16  23
ATOM     23  C5* UNL     1       7.175  -5.164  23.219  0.00  0.00    +0.190 C 
BRANCH  23  24
ATOM     24  O5* UNL     1       7.981  -6.025  22.414  0.00  0.00    -0.392 OA
ATOM     25  H5* UNL     1       7.547  -6.072  21.542  0.00  0.00    +0.210 HD
ENDBRANCH  23  24
ENDBRANCH  16  23
ENDBRANCH   4  14
BRANCH   1  27
ATOM     26  C   UNL     1       3.076  -1.443  27.280  0.00  0.00    +0.027 C 
ATOM     27  C   UNL     1       4.318  -0.711  27.771  0.00  0.00    +0.067 C 
ATOM     28  C   UNL     1       4.350  -0.510  29.283  0.00  0.00    +0.027 C 
ENDBRANCH   1  27
TORSDOF 6
ENDMDL
MODEL 9
REMARK VINA RESULT:      -5.5      3.851      5.762
REMARK  Name = 
REMARK  8 active torsions:
REMARK  status: ('A' for Active; 'I' for Inactive)
REMARK    1  A    between atoms: C_1  and  C_2
REMARK    2  A    between atoms: C_2  and  C_3
REMARK    3  A    between atoms: C_2  and  N_4
REMARK    4  A    between atoms: N_13  and  C1*_14
REMARK    5  A    between atoms: C2*_16  and  O2*_26
REMARK    6  A    between atoms: C3*_18  and  O3*_25
REMARK    7  A    between atoms: C4*_20  and  C5*_23
REMARK    8  A    between atoms: C5*_23  and  O5*_24
REMARK                            x       y       z     vdW  Elec       q    Type
REMARK                         _______ _______ _______ _____ _____    ______ ____
ROOT
ATOM      1  N   UNL     1       6.431  -4.139  22.917  0.00  0.00    -0.312 N 
ATOM      2  H   UNL     1       7.426  -4.319  22.746  0.00  0.00    +0.149 HD
ATOM      3  C   UNL     1       6.097  -3.417  24.008  0.00  0.00    +0.199 A 
ATOM      4  N   UNL     1       6.695  -2.179  24.247  0.00  0.00    -0.283 N 
ATOM      5  C   UNL     1       5.878  -1.505  25.139  0.00  0.00    +0.074 A 
ATOM      6  C   UNL     1       4.955  -2.479  25.546  0.00  0.00    +0.092 A 
ATOM      7  C   UNL     1       3.937  -2.153  26.460  0.00  0.00    +0.051 A 
ATOM      8  C   UNL     1       3.806  -0.827  26.876  0.00  0.00    +0.061 A 
ATOM      9 CL   UNL     1       2.460  -0.446  27.898  0.00  0.00    -0.082 Cl
ATOM     10  C   UNL     1       4.710   0.148  26.436  0.00  0.00    +0.061 A 
ATOM     11 CL   UNL     1       4.529   1.819  26.853  0.00  0.00    -0.082 Cl
ATOM     12  C   UNL     1       5.785  -0.185  25.589  0.00  0.00    +0.049 A 
ATOM     13  N   UNL     1       5.154  -3.650  24.886  0.00  0.00    -0.214 NA
ENDROOT
BRANCH   4  14
ATOM     14  C1* UNL     1       7.800  -1.678  23.419  0.00  0.00    +0.254 C 
ATOM     15  O4* UNL     1       7.451  -0.464  22.732  0.00  0.00    -0.346 OA
ATOM     16  C4* UNL     1       8.522   0.492  22.844  0.00  0.00    +0.177 C 
ATOM     17  C3* UNL     1       9.521  -0.014  23.883  0.00  0.00    +0.178 C 
ATOM     18  C2* UNL     1       9.105  -1.447  24.204  0.00  0.00    +0.195 C 
BRANCH  17  19
ATOM     19  O3* UNL     1      10.890   0.160  23.548  0.00  0.00    -0.386 OA
ATOM     20  H3* UNL     1      10.983   1.016  23.084  0.00  0.00    +0.210 HD
ENDBRANCH  17  19
BRANCH  18  21
ATOM     21  O2* UNL     1      10.111  -2.430  23.921  0.00  0.00    -0.385 OA
ATOM     22  H2* UNL     1       9.880  -2.930  23.119  0.00  0.00    +0.210 HD
ENDBRANCH  18  21
BRANCH  16  23
ATOM     23  C5* UNL     1       9.114   0.809  21.467  0.00  0.00    +0.190 C 
BRANCH  23  24
ATOM     24  O5* UNL     1       9.834   2.043  21.504  0.00  0.00    -0.392 OA
ATOM     25  H5* UNL     1       9.465   2.597  20.791  0.00  0.00    +0.210 HD
ENDBRANCH  23  24
ENDBRANCH  16  23
ENDBRANCH   4  14
BRANCH   1  27
ATOM     26  C   UNL     1       6.149  -5.686  21.038  0.00  0.00    +0.027 C 
ATOM     27  C   UNL     1       5.593  -5.216  22.375  0.00  0.00    +0.067 C 
ATOM     28  C   UNL     1       5.282  -6.356  23.340  0.00  0.00    +0.027 C 
ENDBRANCH   1  27
TORSDOF 6
ENDMDL
