MODEL 1
REMARK VINA RESULT:      -4.9      0.000      0.000
REMARK  Name = 
REMARK  21 active torsions:
REMARK  status: ('A' for Active; 'I' for Inactive)
REMARK    1  A    between atoms: C_1  and  C_2
REMARK    2  A    between atoms: C_2  and  C_3
REMARK    3  A    between atoms: C_2  and  C_4
REMARK    4  A    between atoms: C_4  and  C_6
REMARK    5  A    between atoms: C_4  and  N_65
REMARK    6  A    between atoms: C_12  and  C_14
REMARK    7  A    between atoms: C_17  and  C_19
REMARK    8  A    between atoms: C_28  and  C_59
REMARK    9  A    between atoms: C_35  and  C_37
REMARK   10  A    between atoms: C_40  and  C_42
REMARK   11  A    between atoms: C_47  and  C_49
REMARK   12  A    between atoms: C_49  and  C_51
REMARK   13  A    between atoms: C_49  and  N_54
REMARK   14  A    between atoms: C_51  and  C_52
REMARK   15  A    between atoms: C_51  and  C_53
REMARK   16  A    between atoms: N_54  and  C_55
REMARK   17  A    between atoms: C_55  and  C_56
REMARK   18  A    between atoms: C_56  and  O_58
REMARK   19  A    between atoms: N_65  and  C_66
REMARK   20  A    between atoms: C_66  and  C_67
REMARK   21  A    between atoms: C_67  and  O_69
REMARK                            x       y       z     vdW  Elec       q    Type
REMARK                         _______ _______ _______ _____ _____    ______ ____
ROOT
ATOM      1  C   UNL     1       2.291  -3.404  28.252  0.00  0.00    +0.002 A 
ATOM      2  C   UNL     1       2.361  -3.508  29.647  0.00  0.00    +0.011 A 
ATOM      3  C   UNL     1       2.773  -2.451  30.457  0.00  0.00    +0.010 A 
ATOM      4  C   UNL     1       3.285  -1.306  29.843  0.00  0.00    +0.001 A 
ATOM      5  C   UNL     1       3.900  -0.142  30.361  0.00  0.00    +0.036 A 
ATOM      6  C   UNL     1       4.295   0.619  29.286  0.00  0.00    +0.057 A 
ATOM      7  C   UNL     1       5.032   1.855  29.158  0.00  0.00    +0.040 A 
ATOM      8  C   UNL     1       5.872   2.307  30.164  0.00  0.00    +0.014 A 
ATOM      9  C   UNL     1       6.691   3.414  29.935  0.00  0.00    +0.011 A 
ATOM     10  C   UNL     1       6.648   4.142  28.727  0.00  0.00    +0.003 A 
ATOM     11  C   UNL     1       5.787   3.678  27.711  0.00  0.00    +0.056 A 
ATOM     12  C   UNL     1       5.026   2.510  27.917  0.00  0.00    +0.133 A 
ATOM     13  O   UNL     1       4.427   1.913  26.813  0.00  0.00    -0.464 OA
ATOM     14  C   UNL     1       4.433   0.437  26.834  0.00  0.00    +0.308 C 
ATOM     15  N   UNL     1       3.957  -0.053  28.139  0.00  0.00    -0.300 N 
ATOM     16  C   UNL     1       3.277  -1.211  28.447  0.00  0.00    +0.054 A 
ATOM     17  C   UNL     1       2.708  -2.210  27.642  0.00  0.00    +0.036 A 
ENDROOT
BRANCH  10  18
ATOM     18  C   UNL     1       7.483   5.361  28.608  0.00  0.00    +0.066 A 
ATOM     19  N   UNL     1       7.737   5.945  27.384  0.00  0.00    -0.340 N 
ATOM     20  H   UNL     1       7.395   5.547  26.525  0.00  0.00    +0.167 HD
ATOM     21  C   UNL     1       8.772   6.871  27.474  0.00  0.00    +0.128 A 
ATOM     22  N   UNL     1       8.979   7.105  28.760  0.00  0.00    -0.238 NA
ATOM     23  C   UNL     1       8.183   6.194  29.461  0.00  0.00    +0.139 A 
BRANCH  21  24
ATOM     24  C   UNL     1       9.698   7.103  26.280  0.00  0.00    +0.142 C 
ATOM     25  N   UNL     1       9.842   6.182  25.114  0.00  0.00    -0.290 N 
ATOM     26  C   UNL     1       9.051   5.750  24.067  0.00  0.00    +0.233 C 
ATOM     27  O   UNL     1       9.687   5.421  23.041  0.00  0.00    -0.274 OA
ATOM     28  C   UNL     1      11.268   6.168  24.705  0.00  0.00    +0.108 C 
ATOM     29  C   UNL     1      12.030   7.108  25.593  0.00  0.00    +0.021 C 
ATOM     30  C   UNL     1      11.169   7.108  26.817  0.00  0.00    +0.032 C 
BRANCH  26  31
ATOM     31  C   UNL     1       7.508   5.476  24.019  0.00  0.00    +0.144 C 
BRANCH  31  32
ATOM     32  C   UNL     1       7.345   3.914  24.360  0.00  0.00    +0.009 C 
ATOM     33  C   UNL     1       8.566   3.362  25.121  0.00  0.00    +0.009 C 
ATOM     34  C   UNL     1       6.943   3.060  23.121  0.00  0.00    +0.009 C 
ENDBRANCH  31  32
BRANCH  31  35
ATOM     35  N   UNL     1       6.864   5.791  22.693  0.00  0.00    -0.296 NA
ATOM     36  H   UNL     1       6.463   4.913  22.347  0.00  0.00    +0.123 HD
BRANCH  35  37
ATOM     37  C   UNL     1       5.718   6.752  22.903  0.00  0.00    +0.203 C 
BRANCH  37  38
ATOM     38  C   UNL     1       4.364   6.109  22.663  0.00  0.00    +0.319 C 
ATOM     39  O   UNL     1       3.746   5.415  23.472  0.00  0.00    -0.250 OA
BRANCH  38  40
ATOM     40  O   UNL     1       3.885   6.408  21.433  0.00  0.00    -0.480 OA
ATOM     41  H   UNL     1       4.628   6.798  20.907  0.00  0.00    +0.295 HD
ENDBRANCH  38  40
ENDBRANCH  37  38
ENDBRANCH  35  37
ENDBRANCH  31  35
ENDBRANCH  26  31
ENDBRANCH  21  24
ENDBRANCH  10  18
BRANCH  14  42
ATOM     42  C   UNL     1       5.797  -0.157  26.455  0.00  0.00    +0.014 A 
ATOM     43  C   UNL     1       6.240  -0.222  25.112  0.00  0.00    +0.009 A 
ATOM     44  C   UNL     1       7.476  -0.743  24.741  0.00  0.00    +0.000 A 
ATOM     45  C   UNL     1       8.333  -1.219  25.712  0.00  0.00    +0.000 A 
ATOM     46  C   UNL     1       7.944  -1.171  27.054  0.00  0.00    +0.000 A 
ATOM     47  C   UNL     1       6.695  -0.649  27.422  0.00  0.00    +0.009 A 
ENDBRANCH  14  42
BRANCH   1  51
ATOM     48  C   UNL     1       1.602  -5.856  25.632  0.00  0.00    +0.128 A 
ATOM     49  N   UNL     1       2.124  -4.660  26.060  0.00  0.00    -0.340 N 
ATOM     50  H   UNL     1       2.744  -4.068  25.519  0.00  0.00    +0.167 HD
ATOM     51  C   UNL     1       1.838  -4.511  27.403  0.00  0.00    +0.066 A 
ATOM     52  C   UNL     1       1.021  -5.595  27.674  0.00  0.00    +0.139 A 
ATOM     53  N   UNL     1       0.855  -6.391  26.577  0.00  0.00    -0.238 NA
BRANCH  48  56
ATOM     54  C   UNL     1       4.355  -6.985  23.956  0.00  0.00    +0.233 C 
ATOM     55  N   UNL     1       3.045  -7.271  24.293  0.00  0.00    -0.290 N 
ATOM     56  C   UNL     1       1.864  -6.411  24.261  0.00  0.00    +0.142 C 
ATOM     57  C   UNL     1       0.713  -7.362  23.852  0.00  0.00    +0.032 C 
ATOM     58  C   UNL     1       1.303  -8.775  23.856  0.00  0.00    +0.021 C 
ATOM     59  C   UNL     1       2.635  -8.639  24.561  0.00  0.00    +0.108 C 
ATOM     60  O   UNL     1       5.111  -7.912  23.648  0.00  0.00    -0.274 OA
BRANCH  54  61
ATOM     61  C   UNL     1       4.888  -5.503  23.987  0.00  0.00    +0.144 C 
BRANCH  61  63
ATOM     62  C   UNL     1       5.129  -3.324  22.594  0.00  0.00    +0.009 C 
ATOM     63  C   UNL     1       4.980  -4.853  22.560  0.00  0.00    +0.009 C 
ATOM     64  C   UNL     1       6.015  -5.490  21.633  0.00  0.00    +0.009 C 
ENDBRANCH  61  63
BRANCH  61  65
ATOM     65  N   UNL     1       6.235  -5.486  24.659  0.00  0.00    -0.296 NA
ATOM     66  H   UNL     1       6.920  -5.182  23.959  0.00  0.00    +0.123 HD
BRANCH  65  67
ATOM     67  C   UNL     1       6.296  -4.569  25.822  0.00  0.00    +0.203 C 
BRANCH  67  68
ATOM     68  C   UNL     1       7.220  -5.189  26.861  0.00  0.00    +0.319 C 
ATOM     69  O   UNL     1       6.930  -6.011  27.710  0.00  0.00    -0.250 OA
BRANCH  68  70
ATOM     70  O   UNL     1       8.483  -4.778  26.626  0.00  0.00    -0.480 OA
ATOM     71  H   UNL     1       8.584  -4.853  25.647  0.00  0.00    +0.295 HD
ENDBRANCH  68  70
ENDBRANCH  67  68
ENDBRANCH  65  67
ENDBRANCH  61  65
ENDBRANCH  54  61
ENDBRANCH  48  56
ENDBRANCH   1  51
TORSDOF 17
ENDMDL
MODEL 2
REMARK VINA RESULT:      -4.3      2.301     11.292
REMARK  Name = 
REMARK  21 active torsions:
REMARK  status: ('A' for Active; 'I' for Inactive)
REMARK    1  A    between atoms: C_1  and  C_2
REMARK    2  A    between atoms: C_2  and  C_3
REMARK    3  A    between atoms: C_2  and  C_4
REMARK    4  A    between atoms: C_4  and  C_6
REMARK    5  A    between atoms: C_4  and  N_65
REMARK    6  A    between atoms: C_12  and  C_14
REMARK    7  A    between atoms: C_17  and  C_19
REMARK    8  A    between atoms: C_28  and  C_59
REMARK    9  A    between atoms: C_35  and  C_37
REMARK   10  A    between atoms: C_40  and  C_42
REMARK   11  A    between atoms: C_47  and  C_49
REMARK   12  A    between atoms: C_49  and  C_51
REMARK   13  A    between atoms: C_49  and  N_54
REMARK   14  A    between atoms: C_51  and  C_52
REMARK   15  A    between atoms: C_51  and  C_53
REMARK   16  A    between atoms: N_54  and  C_55
REMARK   17  A    between atoms: C_55  and  C_56
REMARK   18  A    between atoms: C_56  and  O_58
REMARK   19  A    between atoms: N_65  and  C_66
REMARK   20  A    between atoms: C_66  and  C_67
REMARK   21  A    between atoms: C_67  and  O_69
REMARK                            x       y       z     vdW  Elec       q    Type
REMARK                         _______ _______ _______ _____ _____    ______ ____
ROOT
ATOM      1  C   UNL     1       5.005   4.070  26.328  0.00  0.00    +0.002 A 
ATOM      2  C   UNL     1       3.724   4.419  25.881  0.00  0.00    +0.011 A 
ATOM      3  C   UNL     1       2.585   3.695  26.234  0.00  0.00    +0.010 A 
ATOM      4  C   UNL     1       2.752   2.492  26.923  0.00  0.00    +0.001 A 
ATOM      5  C   UNL     1       1.842   1.477  27.299  0.00  0.00    +0.036 A 
ATOM      6  C   UNL     1       2.576   0.469  27.879  0.00  0.00    +0.057 A 
ATOM      7  C   UNL     1       2.243  -0.843  28.384  0.00  0.00    +0.040 A 
ATOM      8  C   UNL     1       1.100  -1.510  27.972  0.00  0.00    +0.014 A 
ATOM      9  C   UNL     1       0.899  -2.838  28.353  0.00  0.00    +0.011 A 
ATOM     10  C   UNL     1       1.794  -3.516  29.209  0.00  0.00    +0.003 A 
ATOM     11  C   UNL     1       2.951  -2.827  29.627  0.00  0.00    +0.056 A 
ATOM     12  C   UNL     1       3.191  -1.516  29.169  0.00  0.00    +0.133 A 
ATOM     13  O   UNL     1       4.461  -0.980  29.346  0.00  0.00    -0.464 OA
ATOM     14  C   UNL     1       4.935  -0.143  28.227  0.00  0.00    +0.308 C 
ATOM     15  N   UNL     1       3.898   0.832  27.848  0.00  0.00    -0.300 N 
ATOM     16  C   UNL     1       4.033   2.099  27.325  0.00  0.00    +0.054 A 
ATOM     17  C   UNL     1       5.157   2.914  27.111  0.00  0.00    +0.036 A 
ENDROOT
BRANCH  10  18
ATOM     18  C   UNL     1       1.452  -4.893  29.639  0.00  0.00    +0.066 A 
ATOM     19  N   UNL     1       2.131  -5.991  29.151  0.00  0.00    -0.340 N 
ATOM     20  H   UNL     1       2.857  -5.901  28.460  0.00  0.00    +0.167 HD
ATOM     21  C   UNL     1       1.454  -7.171  29.443  0.00  0.00    +0.128 A 
ATOM     22  N   UNL     1       0.533  -6.881  30.348  0.00  0.00    -0.238 NA
ATOM     23  C   UNL     1       0.535  -5.489  30.484  0.00  0.00    +0.139 A 
BRANCH  21  24
ATOM     24  C   UNL     1       1.540  -8.361  28.487  0.00  0.00    +0.142 C 
ATOM     25  N   UNL     1       1.258  -8.308  27.022  0.00  0.00    -0.290 N 
ATOM     26  C   UNL     1       1.825  -7.721  25.907  0.00  0.00    +0.233 C 
ATOM     27  O   UNL     1       1.619  -8.338  24.839  0.00  0.00    -0.274 OA
ATOM     28  C   UNL     1       0.570  -9.563  26.634  0.00  0.00    +0.108 C 
ATOM     29  C   UNL     1       0.443 -10.434  27.850  0.00  0.00    +0.021 C 
ATOM     30  C   UNL     1       0.470  -9.410  28.941  0.00  0.00    +0.032 C 
BRANCH  26  31
ATOM     31  C   UNL     1       2.556  -6.342  25.759  0.00  0.00    +0.144 C 
BRANCH  31  32
ATOM     32  C   UNL     1       1.882  -5.641  24.478  0.00  0.00    +0.009 C 
ATOM     33  C   UNL     1       2.326  -6.307  23.160  0.00  0.00    +0.009 C 
ATOM     34  C   UNL     1       2.039  -4.092  24.479  0.00  0.00    +0.009 C 
ENDBRANCH  31  32
BRANCH  31  35
ATOM     35  N   UNL     1       4.047  -6.449  25.569  0.00  0.00    -0.296 NA
ATOM     36  H   UNL     1       4.388  -5.500  25.382  0.00  0.00    +0.123 HD
BRANCH  35  37
ATOM     37  C   UNL     1       4.689  -6.905  26.859  0.00  0.00    +0.203 C 
BRANCH  37  38
ATOM     38  C   UNL     1       5.646  -5.875  27.432  0.00  0.00    +0.319 C 
ATOM     39  O   UNL     1       6.587  -5.356  26.829  0.00  0.00    -0.250 OA
BRANCH  38  40
ATOM     40  O   UNL     1       5.329  -5.562  28.710  0.00  0.00    -0.480 OA
ATOM     41  H   UNL     1       5.652  -4.643  28.883  0.00  0.00    +0.295 HD
ENDBRANCH  38  40
ENDBRANCH  37  38
ENDBRANCH  35  37
ENDBRANCH  31  35
ENDBRANCH  26  31
ENDBRANCH  21  24
ENDBRANCH  10  18
BRANCH  14  42
ATOM     42  C   UNL     1       5.418  -0.971  27.028  0.00  0.00    +0.014 A 
ATOM     43  C   UNL     1       4.667  -2.055  26.514  0.00  0.00    +0.009 A 
ATOM     44  C   UNL     1       5.074  -2.813  25.419  0.00  0.00    +0.000 A 
ATOM     45  C   UNL     1       6.259  -2.509  24.784  0.00  0.00    +0.000 A 
ATOM     46  C   UNL     1       7.034  -1.443  25.250  0.00  0.00    +0.000 A 
ATOM     47  C   UNL     1       6.622  -0.684  26.356  0.00  0.00    +0.009 A 
ENDBRANCH  14  42
BRANCH   1  51
ATOM     48  C   UNL     1       8.332   5.358  25.538  0.00  0.00    +0.128 A 
ATOM     49  N   UNL     1       7.499   4.381  26.026  0.00  0.00    -0.340 N 
ATOM     50  H   UNL     1       7.780   3.432  26.242  0.00  0.00    +0.167 HD
ATOM     51  C   UNL     1       6.199   4.843  25.971  0.00  0.00    +0.066 A 
ATOM     52  C   UNL     1       6.348   6.159  25.568  0.00  0.00    +0.139 A 
ATOM     53  N   UNL     1       7.658   6.473  25.339  0.00  0.00    -0.238 NA
BRANCH  48  56
ATOM     54  C   UNL     1      10.184   3.313  23.526  0.00  0.00    +0.233 C 
ATOM     55  N   UNL     1      10.012   4.615  23.955  0.00  0.00    -0.290 N 
ATOM     56  C   UNL     1       9.798   5.133  25.305  0.00  0.00    +0.142 C 
ATOM     57  C   UNL     1      10.545   6.488  25.314  0.00  0.00    +0.032 C 
ATOM     58  C   UNL     1      10.991   6.741  23.871  0.00  0.00    +0.021 C 
ATOM     59  C   UNL     1      10.231   5.726  23.045  0.00  0.00    +0.108 C 
ATOM     60  O   UNL     1      10.756   3.106  22.451  0.00  0.00    -0.274 OA
BRANCH  54  61
ATOM     61  C   UNL     1       9.639   2.106  24.380  0.00  0.00    +0.144 C 
BRANCH  61  63
ATOM     62  C   UNL     1      10.323  -0.273  25.165  0.00  0.00    +0.009 C 
ATOM     63  C   UNL     1      10.310   0.736  24.007  0.00  0.00    +0.009 C 
ATOM     64  C   UNL     1       9.786   0.097  22.721  0.00  0.00    +0.009 C 
ENDBRANCH  61  63
BRANCH  61  65
ATOM     65  N   UNL     1       8.146   2.023  24.205  0.00  0.00    -0.296 NA
ATOM     66  H   UNL     1       7.718   2.430  25.043  0.00  0.00    +0.123 HD
BRANCH  65  67
ATOM     67  C   UNL     1       7.657   2.754  23.011  0.00  0.00    +0.203 C 
BRANCH  67  68
ATOM     68  C   UNL     1       6.179   2.434  22.837  0.00  0.00    +0.319 C 
ATOM     69  O   UNL     1       5.298   3.191  22.477  0.00  0.00    -0.250 OA
BRANCH  68  70
ATOM     70  O   UNL     1       5.990   1.112  23.026  0.00  0.00    -0.480 OA
ATOM     71  H   UNL     1       6.413   0.692  22.239  0.00  0.00    +0.295 HD
ENDBRANCH  68  70
ENDBRANCH  67  68
ENDBRANCH  65  67
ENDBRANCH  61  65
ENDBRANCH  54  61
ENDBRANCH  48  56
ENDBRANCH   1  51
TORSDOF 17
ENDMDL
MODEL 3
REMARK VINA RESULT:      -3.5      1.755      2.263
REMARK  Name = 
REMARK  21 active torsions:
REMARK  status: ('A' for Active; 'I' for Inactive)
REMARK    1  A    between atoms: C_1  and  C_2
REMARK    2  A    between atoms: C_2  and  C_3
REMARK    3  A    between atoms: C_2  and  C_4
REMARK    4  A    between atoms: C_4  and  C_6
REMARK    5  A    between atoms: C_4  and  N_65
REMARK    6  A    between atoms: C_12  and  C_14
REMARK    7  A    between atoms: C_17  and  C_19
REMARK    8  A    between atoms: C_28  and  C_59
REMARK    9  A    between atoms: C_35  and  C_37
REMARK   10  A    between atoms: C_40  and  C_42
REMARK   11  A    between atoms: C_47  and  C_49
REMARK   12  A    between atoms: C_49  and  C_51
REMARK   13  A    between atoms: C_49  and  N_54
REMARK   14  A    between atoms: C_51  and  C_52
REMARK   15  A    between atoms: C_51  and  C_53
REMARK   16  A    between atoms: N_54  and  C_55
REMARK   17  A    between atoms: C_55  and  C_56
REMARK   18  A    between atoms: C_56  and  O_58
REMARK   19  A    between atoms: N_65  and  C_66
REMARK   20  A    between atoms: C_66  and  C_67
REMARK   21  A    between atoms: C_67  and  O_69
REMARK                            x       y       z     vdW  Elec       q    Type
REMARK                         _______ _______ _______ _____ _____    ______ ____
ROOT
ATOM      1  C   UNL     1       2.109  -3.594  28.517  0.00  0.00    +0.002 A 
ATOM      2  C   UNL     1       2.288  -3.465  29.900  0.00  0.00    +0.011 A 
ATOM      3  C   UNL     1       2.793  -2.304  30.484  0.00  0.00    +0.010 A 
ATOM      4  C   UNL     1       3.285  -1.300  29.646  0.00  0.00    +0.001 A 
ATOM      5  C   UNL     1       3.971  -0.092  29.910  0.00  0.00    +0.036 A 
ATOM      6  C   UNL     1       4.299   0.461  28.695  0.00  0.00    +0.057 A 
ATOM      7  C   UNL     1       5.057   1.627  28.303  0.00  0.00    +0.040 A 
ATOM      8  C   UNL     1       5.987   2.207  29.151  0.00  0.00    +0.014 A 
ATOM      9  C   UNL     1       6.815   3.225  28.677  0.00  0.00    +0.011 A 
ATOM     10  C   UNL     1       6.695   3.741  27.368  0.00  0.00    +0.003 A 
ATOM     11  C   UNL     1       5.743   3.148  26.514  0.00  0.00    +0.056 A 
ATOM     12  C   UNL     1       4.969   2.063  26.972  0.00  0.00    +0.133 A 
ATOM     13  O   UNL     1       4.267   1.313  26.034  0.00  0.00    -0.464 OA
ATOM     14  C   UNL     1       4.235  -0.136  26.307  0.00  0.00    +0.308 C 
ATOM     15  N   UNL     1       3.852  -0.380  27.708  0.00  0.00    -0.300 N 
ATOM     16  C   UNL     1       3.167  -1.441  28.259  0.00  0.00    +0.054 A 
ATOM     17  C   UNL     1       2.508  -2.538  27.682  0.00  0.00    +0.036 A 
ENDROOT
BRANCH  10  18
ATOM     18  C   UNL     1       7.551   4.887  26.981  0.00  0.00    +0.066 A 
ATOM     19  N   UNL     1       7.885   5.126  25.663  0.00  0.00    -0.340 N 
ATOM     20  H   UNL     1       7.591   4.512  24.922  0.00  0.00    +0.167 HD
ATOM     21  C   UNL     1       8.925   6.046  25.567  0.00  0.00    +0.128 A 
ATOM     22  N   UNL     1       9.056   6.615  26.755  0.00  0.00    -0.238 NA
ATOM     23  C   UNL     1       8.208   5.920  27.623  0.00  0.00    +0.139 A 
BRANCH  21  24
ATOM     24  C   UNL     1       9.925   5.955  24.414  0.00  0.00    +0.142 C 
ATOM     25  N   UNL     1      10.497   4.687  23.872  0.00  0.00    -0.290 N 
ATOM     26  C   UNL     1      10.028   3.579  23.192  0.00  0.00    +0.233 C 
ATOM     27  O   UNL     1      10.882   3.019  22.469  0.00  0.00    -0.274 OA
ATOM     28  C   UNL     1      11.916   4.931  23.518  0.00  0.00    +0.108 C 
ATOM     29  C   UNL     1      12.240   6.368  23.804  0.00  0.00    +0.021 C 
ATOM     30  C   UNL     1      11.235   6.684  24.866  0.00  0.00    +0.032 C 
BRANCH  26  31
ATOM     31  C   UNL     1       8.648   2.844  23.299  0.00  0.00    +0.144 C 
BRANCH  31  32
ATOM     32  C   UNL     1       9.008   1.279  23.386  0.00  0.00    +0.009 C 
ATOM     33  C   UNL     1       9.923   0.967  24.587  0.00  0.00    +0.009 C 
ATOM     34  C   UNL     1       9.529   0.699  22.038  0.00  0.00    +0.009 C 
ENDBRANCH  31  32
BRANCH  31  35
ATOM     35  N   UNL     1       7.719   3.101  22.141  0.00  0.00    -0.296 NA
ATOM     36  H   UNL     1       6.917   2.474  22.263  0.00  0.00    +0.123 HD
BRANCH  35  37
ATOM     37  C   UNL     1       7.193   4.515  22.219  0.00  0.00    +0.203 C 
BRANCH  37  38
ATOM     38  C   UNL     1       5.682   4.571  22.350  0.00  0.00    +0.319 C 
ATOM     39  O   UNL     1       4.917   3.609  22.253  0.00  0.00    -0.250 OA
BRANCH  38  40
ATOM     40  O   UNL     1       5.254   5.827  22.617  0.00  0.00    -0.480 OA
ATOM     41  H   UNL     1       6.037   6.430  22.556  0.00  0.00    +0.295 HD
ENDBRANCH  38  40
ENDBRANCH  37  38
ENDBRANCH  35  37
ENDBRANCH  31  35
ENDBRANCH  26  31
ENDBRANCH  21  24
ENDBRANCH  10  18
BRANCH  14  42
ATOM     42  C   UNL     1       5.547  -0.841  25.935  0.00  0.00    +0.014 A 
ATOM     43  C   UNL     1       6.229  -0.567  24.725  0.00  0.00    +0.009 A 
ATOM     44  C   UNL     1       7.427  -1.181  24.369  0.00  0.00    +0.000 A 
ATOM     45  C   UNL     1       8.000  -2.099  25.222  0.00  0.00    +0.000 A 
ATOM     46  C   UNL     1       7.368  -2.401  26.432  0.00  0.00    +0.000 A 
ATOM     47  C   UNL     1       6.159  -1.782  26.785  0.00  0.00    +0.009 A 
ENDBRANCH  14  42
BRANCH   1  51
ATOM     48  C   UNL     1       1.163  -6.434  26.422  0.00  0.00    +0.128 A 
ATOM     49  N   UNL     1       1.762  -5.211  26.600  0.00  0.00    -0.340 N 
ATOM     50  H   UNL     1       2.375  -4.760  25.931  0.00  0.00    +0.167 HD
ATOM     51  C   UNL     1       1.560  -4.809  27.906  0.00  0.00    +0.066 A 
ATOM     52  C   UNL     1       0.712  -5.781  28.408  0.00  0.00    +0.139 A 
ATOM     53  N   UNL     1       0.448  -6.750  27.482  0.00  0.00    -0.238 NA
BRANCH  48  56
ATOM     54  C   UNL     1       3.770  -7.246  24.371  0.00  0.00    +0.233 C 
ATOM     55  N   UNL     1       2.688  -7.747  25.069  0.00  0.00    -0.290 N 
ATOM     56  C   UNL     1       1.321  -7.240  25.163  0.00  0.00    +0.142 C 
ATOM     57  C   UNL     1       0.447  -8.514  25.243  0.00  0.00    +0.032 C 
ATOM     58  C   UNL     1       1.417  -9.691  25.377  0.00  0.00    +0.021 C 
ATOM     59  C   UNL     1       2.756  -9.059  25.691  0.00  0.00    +0.108 C 
ATOM     60  O   UNL     1       4.696  -8.007  24.072  0.00  0.00    -0.274 OA
BRANCH  54  61
ATOM     61  C   UNL     1       3.838  -5.721  23.981  0.00  0.00    +0.144 C 
BRANCH  61  63
ATOM     62  C   UNL     1       2.026  -6.487  22.286  0.00  0.00    +0.009 C 
ATOM     63  C   UNL     1       2.719  -5.296  22.965  0.00  0.00    +0.009 C 
ATOM     64  C   UNL     1       1.697  -4.303  23.518  0.00  0.00    +0.009 C 
ENDBRANCH  61  63
BRANCH  61  65
ATOM     65  N   UNL     1       5.201  -5.427  23.412  0.00  0.00    -0.296 NA
ATOM     66  H   UNL     1       5.205  -5.762  22.443  0.00  0.00    +0.123 HD
BRANCH  65  67
ATOM     67  C   UNL     1       5.540  -3.984  23.424  0.00  0.00    +0.203 C 
BRANCH  67  68
ATOM     68  C   UNL     1       5.616  -3.506  21.980  0.00  0.00    +0.319 C 
ATOM     69  O   UNL     1       5.553  -4.187  20.974  0.00  0.00    -0.250 OA
BRANCH  68  70
ATOM     70  O   UNL     1       5.641  -2.158  21.964  0.00  0.00    -0.480 OA
ATOM     71  H   UNL     1       6.492  -1.936  21.518  0.00  0.00    +0.295 HD
ENDBRANCH  68  70
ENDBRANCH  67  68
ENDBRANCH  65  67
ENDBRANCH  61  65
ENDBRANCH  54  61
ENDBRANCH  48  56
ENDBRANCH   1  51
TORSDOF 17
ENDMDL
MODEL 4
REMARK VINA RESULT:      -2.0      2.579     11.221
REMARK  Name = 
REMARK  21 active torsions:
REMARK  status: ('A' for Active; 'I' for Inactive)
REMARK    1  A    between atoms: C_1  and  C_2
REMARK    2  A    between atoms: C_2  and  C_3
REMARK    3  A    between atoms: C_2  and  C_4
REMARK    4  A    between atoms: C_4  and  C_6
REMARK    5  A    between atoms: C_4  and  N_65
REMARK    6  A    between atoms: C_12  and  C_14
REMARK    7  A    between atoms: C_17  and  C_19
REMARK    8  A    between atoms: C_28  and  C_59
REMARK    9  A    between atoms: C_35  and  C_37
REMARK   10  A    between atoms: C_40  and  C_42
REMARK   11  A    between atoms: C_47  and  C_49
REMARK   12  A    between atoms: C_49  and  C_51
REMARK   13  A    between atoms: C_49  and  N_54
REMARK   14  A    between atoms: C_51  and  C_52
REMARK   15  A    between atoms: C_51  and  C_53
REMARK   16  A    between atoms: N_54  and  C_55
REMARK   17  A    between atoms: C_55  and  C_56
REMARK   18  A    between atoms: C_56  and  O_58
REMARK   19  A    between atoms: N_65  and  C_66
REMARK   20  A    between atoms: C_66  and  C_67
REMARK   21  A    between atoms: C_67  and  O_69
REMARK                            x       y       z     vdW  Elec       q    Type
REMARK                         _______ _______ _______ _____ _____    ______ ____
ROOT
ATOM      1  C   UNL     1       5.897   4.463  25.994  0.00  0.00    +0.002 A 
ATOM      2  C   UNL     1       4.655   4.906  25.521  0.00  0.00    +0.011 A 
ATOM      3  C   UNL     1       3.455   4.296  25.882  0.00  0.00    +0.010 A 
ATOM      4  C   UNL     1       3.510   3.106  26.612  0.00  0.00    +0.001 A 
ATOM      5  C   UNL     1       2.511   2.187  27.009  0.00  0.00    +0.036 A 
ATOM      6  C   UNL     1       3.150   1.139  27.630  0.00  0.00    +0.057 A 
ATOM      7  C   UNL     1       2.699  -0.122  28.173  0.00  0.00    +0.040 A 
ATOM      8  C   UNL     1       1.507  -0.701  27.769  0.00  0.00    +0.014 A 
ATOM      9  C   UNL     1       1.188  -1.993  28.190  0.00  0.00    +0.011 A 
ATOM     10  C   UNL     1       2.013  -2.718  29.078  0.00  0.00    +0.003 A 
ATOM     11  C   UNL     1       3.222  -2.118  29.488  0.00  0.00    +0.056 A 
ATOM     12  C   UNL     1       3.578  -0.848  28.991  0.00  0.00    +0.133 A 
ATOM     13  O   UNL     1       4.889  -0.418  29.166  0.00  0.00    -0.464 OA
ATOM     14  C   UNL     1       5.444   0.337  28.027  0.00  0.00    +0.308 C 
ATOM     15  N   UNL     1       4.499   1.385  27.604  0.00  0.00    -0.300 N 
ATOM     16  C   UNL     1       4.749   2.618  27.042  0.00  0.00    +0.054 A 
ATOM     17  C   UNL     1       5.941   3.325  26.816  0.00  0.00    +0.036 A 
ENDROOT
BRANCH  10  18
ATOM     18  C   UNL     1       1.549  -4.044  29.548  0.00  0.00    +0.066 A 
ATOM     19  N   UNL     1       2.257  -5.196  29.271  0.00  0.00    -0.340 N 
ATOM     20  H   UNL     1       3.093  -5.182  28.712  0.00  0.00    +0.167 HD
ATOM     21  C   UNL     1       1.494  -6.330  29.532  0.00  0.00    +0.128 A 
ATOM     22  N   UNL     1       0.444  -5.943  30.239  0.00  0.00    -0.238 NA
ATOM     23  C   UNL     1       0.478  -4.545  30.265  0.00  0.00    +0.139 A 
BRANCH  21  24
ATOM     24  C   UNL     1       1.696  -7.598  28.701  0.00  0.00    +0.142 C 
ATOM     25  N   UNL     1       1.787  -7.642  27.213  0.00  0.00    -0.290 N 
ATOM     26  C   UNL     1       2.665  -7.195  26.243  0.00  0.00    +0.233 C 
ATOM     27  O   UNL     1       2.667  -7.879  25.195  0.00  0.00    -0.274 OA
ATOM     28  C   UNL     1       1.096  -8.866  26.740  0.00  0.00    +0.108 C 
ATOM     29  C   UNL     1       0.592  -9.622  27.934  0.00  0.00    +0.021 C 
ATOM     30  C   UNL     1       0.451  -8.518  28.934  0.00  0.00    +0.032 C 
BRANCH  26  31
ATOM     31  C   UNL     1       3.539  -5.895  26.200  0.00  0.00    +0.144 C 
BRANCH  31  32
ATOM     32  C   UNL     1       3.345  -5.302  24.719  0.00  0.00    +0.009 C 
ATOM     33  C   UNL     1       4.589  -5.537  23.839  0.00  0.00    +0.009 C 
ATOM     34  C   UNL     1       2.848  -3.827  24.715  0.00  0.00    +0.009 C 
ENDBRANCH  31  32
BRANCH  31  35
ATOM     35  N   UNL     1       5.002  -6.125  26.482  0.00  0.00    -0.296 NA
ATOM     36  H   UNL     1       5.400  -5.212  26.728  0.00  0.00    +0.123 HD
BRANCH  35  37
ATOM     37  C   UNL     1       5.150  -7.016  27.694  0.00  0.00    +0.203 C 
BRANCH  37  38
ATOM     38  C   UNL     1       5.680  -6.271  28.906  0.00  0.00    +0.319 C 
ATOM     39  O   UNL     1       5.120  -6.192  30.001  0.00  0.00    -0.250 OA
BRANCH  38  40
ATOM     40  O   UNL     1       6.882  -5.703  28.652  0.00  0.00    -0.480 OA
ATOM     41  H   UNL     1       7.275  -5.430  29.518  0.00  0.00    +0.295 HD
ENDBRANCH  38  40
ENDBRANCH  37  38
ENDBRANCH  35  37
ENDBRANCH  31  35
ENDBRANCH  26  31
ENDBRANCH  21  24
ENDBRANCH  10  18
BRANCH  14  42
ATOM     42  C   UNL     1       5.865  -0.568  26.861  0.00  0.00    +0.014 A 
ATOM     43  C   UNL     1       5.662  -1.969  26.888  0.00  0.00    +0.009 A 
ATOM     44  C   UNL     1       6.021  -2.811  25.839  0.00  0.00    +0.000 A 
ATOM     45  C   UNL     1       6.597  -2.279  24.706  0.00  0.00    +0.000 A 
ATOM     46  C   UNL     1       6.813  -0.900  24.628  0.00  0.00    +0.000 A 
ATOM     47  C   UNL     1       6.453  -0.056  25.689  0.00  0.00    +0.009 A 
ENDBRANCH  14  42
BRANCH   1  51
ATOM     48  C   UNL     1       9.331   5.434  25.209  0.00  0.00    +0.128 A 
ATOM     49  N   UNL     1       8.412   4.550  25.721  0.00  0.00    -0.340 N 
ATOM     50  H   UNL     1       8.609   3.590  25.977  0.00  0.00    +0.167 HD
ATOM     51  C   UNL     1       7.157   5.118  25.628  0.00  0.00    +0.066 A 
ATOM     52  C   UNL     1       7.423   6.400  25.177  0.00  0.00    +0.139 A 
ATOM     53  N   UNL     1       8.757   6.593  24.958  0.00  0.00    -0.238 NA
BRANCH  48  56
ATOM     54  C   UNL     1      11.127   3.867  22.763  0.00  0.00    +0.233 C 
ATOM     55  N   UNL     1      11.069   4.980  23.580  0.00  0.00    -0.290 N 
ATOM     56  C   UNL     1      10.776   5.076  25.008  0.00  0.00    +0.142 C 
ATOM     57  C   UNL     1      11.676   6.233  25.504  0.00  0.00    +0.032 C 
ATOM     58  C   UNL     1      12.302   6.855  24.252  0.00  0.00    +0.021 C 
ATOM     59  C   UNL     1      11.518   6.274  23.095  0.00  0.00    +0.108 C 
ATOM     60  O   UNL     1      11.782   3.924  21.717  0.00  0.00    -0.274 OA
BRANCH  54  61
ATOM     61  C   UNL     1      10.351   2.549  23.144  0.00  0.00    +0.144 C 
BRANCH  61  63
ATOM     62  C   UNL     1       8.358   4.008  22.341  0.00  0.00    +0.009 C 
ATOM     63  C   UNL     1       8.820   2.617  22.802  0.00  0.00    +0.009 C 
ATOM     64  C   UNL     1       8.328   1.527  21.851  0.00  0.00    +0.009 C 
ENDBRANCH  61  63
BRANCH  61  65
ATOM     65  N   UNL     1      10.549   2.278  24.612  0.00  0.00    -0.296 NA
ATOM     66  H   UNL     1      10.310   3.137  25.115  0.00  0.00    +0.123 HD
BRANCH  65  67
ATOM     67  C   UNL     1       9.703   1.170  25.119  0.00  0.00    +0.203 C 
BRANCH  67  68
ATOM     68  C   UNL     1      10.315  -0.142  24.648  0.00  0.00    +0.319 C 
ATOM     69  O   UNL     1      10.295  -1.214  25.224  0.00  0.00    -0.250 OA
BRANCH  68  70
ATOM     70  O   UNL     1      10.795   0.021  23.398  0.00  0.00    -0.480 OA
ATOM     71  H   UNL     1      10.799   0.999  23.266  0.00  0.00    +0.295 HD
ENDBRANCH  68  70
ENDBRANCH  67  68
ENDBRANCH  65  67
ENDBRANCH  61  65
ENDBRANCH  54  61
ENDBRANCH  48  56
ENDBRANCH   1  51
TORSDOF 17
ENDMDL
