MODEL 1
REMARK VINA RESULT:      -4.8      0.000      0.000
REMARK  Name = 
REMARK  1 active torsions:
REMARK  status: ('A' for Active; 'I' for Inactive)
REMARK    1  A    between atoms: C_4  and  C_8
REMARK                            x       y       z     vdW  Elec       q    Type
REMARK                         _______ _______ _______ _____ _____    ______ ____
ROOT
ATOM      1  C   UNL     1       5.375  -5.765  24.761  0.00  0.00    +0.145 A 
ATOM      2  N   UNL     1       5.914  -5.763  26.018  0.00  0.00    -0.323 N 
ATOM      3  H   UNL     1       5.363  -6.010  26.832  0.00  0.00    +0.169 HD
ATOM      4  C   UNL     1       7.245  -5.471  26.225  0.00  0.00    +0.280 A 
ATOM      5  O   UNL     1       7.775  -5.539  27.320  0.00  0.00    -0.265 OA
ATOM      6  C   UNL     1       8.013  -5.094  24.952  0.00  0.00    +0.192 A 
ATOM      7  N   UNL     1       7.460  -5.123  23.761  0.00  0.00    -0.208 NA
ATOM      8  C   UNL     1       6.135  -5.468  23.700  0.00  0.00    +0.230 A 
ATOM      9  F   UNL     1       5.565  -5.498  22.478  0.00  0.00    -0.182 F 
ENDROOT
BRANCH   6  10
ATOM     10  C   UNL     1       9.475  -4.668  25.001  0.00  0.00    +0.265 C 
ATOM     11  N   UNL     1      10.285  -5.489  25.741  0.00  0.00    -0.324 N 
ATOM     12  H   UNL     1      11.283  -5.352  25.669  0.00  0.00    +0.145 HD
ATOM     13  H   UNL     1       9.933  -6.400  26.017  0.00  0.00    +0.145 HD
ATOM     14  O   UNL     1       9.892  -3.706  24.379  0.00  0.00    -0.269 OA
ENDBRANCH   6  10
TORSDOF 1
ENDMDL
MODEL 2
REMARK VINA RESULT:      -4.7      2.994      3.763
REMARK  Name = 
REMARK  1 active torsions:
REMARK  status: ('A' for Active; 'I' for Inactive)
REMARK    1  A    between atoms: C_4  and  C_8
REMARK                            x       y       z     vdW  Elec       q    Type
REMARK                         _______ _______ _______ _____ _____    ______ ____
ROOT
ATOM      1  C   UNL     1       8.522  -2.258  22.375  0.00  0.00    +0.145 A 
ATOM      2  N   UNL     1       7.501  -3.084  22.758  0.00  0.00    -0.323 N 
ATOM      3  H   UNL     1       6.622  -3.108  22.255  0.00  0.00    +0.169 HD
ATOM      4  C   UNL     1       7.645  -3.957  23.815  0.00  0.00    +0.280 A 
ATOM      5  O   UNL     1       6.786  -4.762  24.130  0.00  0.00    -0.265 OA
ATOM      6  C   UNL     1       8.995  -3.857  24.536  0.00  0.00    +0.192 A 
ATOM      7  N   UNL     1       9.955  -3.059  24.126  0.00  0.00    -0.208 NA
ATOM      8  C   UNL     1       9.686  -2.273  23.037  0.00  0.00    +0.230 A 
ATOM      9  F   UNL     1      10.670  -1.451  22.615  0.00  0.00    -0.182 F 
ENDROOT
BRANCH   6  10
ATOM     10  C   UNL     1       9.301  -4.692  25.773  0.00  0.00    +0.265 C 
ATOM     11  N   UNL     1      10.180  -5.722  25.564  0.00  0.00    -0.324 N 
ATOM     12  H   UNL     1      10.547  -6.198  26.376  0.00  0.00    +0.145 HD
ATOM     13  H   UNL     1      10.716  -5.738  24.702  0.00  0.00    +0.145 HD
ATOM     14  O   UNL     1       8.842  -4.420  26.869  0.00  0.00    -0.269 OA
ENDBRANCH   6  10
TORSDOF 1
ENDMDL
MODEL 3
REMARK VINA RESULT:      -4.7      5.275      6.262
REMARK  Name = 
REMARK  1 active torsions:
REMARK  status: ('A' for Active; 'I' for Inactive)
REMARK    1  A    between atoms: C_4  and  C_8
REMARK                            x       y       z     vdW  Elec       q    Type
REMARK                         _______ _______ _______ _____ _____    ______ ____
ROOT
ATOM      1  C   UNL     1      10.114   1.854  23.959  0.00  0.00    +0.145 A 
ATOM      2  N   UNL     1       9.808   1.171  25.104  0.00  0.00    -0.323 N 
ATOM      3  H   UNL     1       9.746   1.639  26.000  0.00  0.00    +0.169 HD
ATOM      4  C   UNL     1       9.521  -0.178  25.078  0.00  0.00    +0.280 A 
ATOM      5  O   UNL     1       9.167  -0.798  26.064  0.00  0.00    -0.265 OA
ATOM      6  C   UNL     1       9.648  -0.822  23.692  0.00  0.00    +0.192 A 
ATOM      7  N   UNL     1       9.930  -0.126  22.615  0.00  0.00    -0.208 NA
ATOM      8  C   UNL     1      10.155   1.215  22.783  0.00  0.00    +0.230 A 
ATOM      9  F   UNL     1      10.447   1.932  21.678  0.00  0.00    -0.182 F 
ENDROOT
BRANCH   6  10
ATOM     10  C   UNL     1       9.442  -2.318  23.487  0.00  0.00    +0.265 C 
ATOM     11  N   UNL     1       8.364  -2.645  22.708  0.00  0.00    -0.324 N 
ATOM     12  H   UNL     1       8.281  -3.604  22.402  0.00  0.00    +0.145 HD
ATOM     13  H   UNL     1       7.918  -1.915  22.162  0.00  0.00    +0.145 HD
ATOM     14  O   UNL     1      10.216  -3.146  23.935  0.00  0.00    -0.269 OA
ENDBRANCH   6  10
TORSDOF 1
ENDMDL
MODEL 4
REMARK VINA RESULT:      -4.6      1.890      2.043
REMARK  Name = 
REMARK  1 active torsions:
REMARK  status: ('A' for Active; 'I' for Inactive)
REMARK    1  A    between atoms: C_4  and  C_8
REMARK                            x       y       z     vdW  Elec       q    Type
REMARK                         _______ _______ _______ _____ _____    ______ ____
ROOT
ATOM      1  C   UNL     1       5.999  -4.558  22.351  0.00  0.00    +0.145 A 
ATOM      2  N   UNL     1       5.790  -3.940  23.553  0.00  0.00    -0.323 N 
ATOM      3  H   UNL     1       4.970  -3.371  23.721  0.00  0.00    +0.169 HD
ATOM      4  C   UNL     1       6.666  -4.107  24.605  0.00  0.00    +0.280 A 
ATOM      5  O   UNL     1       6.468  -3.637  25.711  0.00  0.00    -0.265 OA
ATOM      6  C   UNL     1       7.891  -4.968  24.274  0.00  0.00    +0.192 A 
ATOM      7  N   UNL     1       8.046  -5.555  23.110  0.00  0.00    -0.208 NA
ATOM      8  C   UNL     1       7.077  -5.332  22.168  0.00  0.00    +0.230 A 
ATOM      9  F   UNL     1       7.234  -5.934  20.970  0.00  0.00    -0.182 F 
ENDROOT
BRANCH   6  10
ATOM     10  C   UNL     1       9.002  -5.197  25.293  0.00  0.00    +0.265 C 
ATOM     11  N   UNL     1       8.586  -5.746  26.477  0.00  0.00    -0.324 N 
ATOM     12  H   UNL     1       9.296  -6.073  27.117  0.00  0.00    +0.145 HD
ATOM     13  H   UNL     1       7.656  -6.148  26.528  0.00  0.00    +0.145 HD
ATOM     14  O   UNL     1      10.171  -4.963  25.040  0.00  0.00    -0.269 OA
ENDBRANCH   6  10
TORSDOF 1
ENDMDL
MODEL 5
REMARK VINA RESULT:      -4.6      5.425      6.283
REMARK  Name = 
REMARK  1 active torsions:
REMARK  status: ('A' for Active; 'I' for Inactive)
REMARK    1  A    between atoms: C_4  and  C_8
REMARK                            x       y       z     vdW  Elec       q    Type
REMARK                         _______ _______ _______ _____ _____    ______ ____
ROOT
ATOM      1  C   UNL     1       8.360  -2.302  23.225  0.00  0.00    +0.145 A 
ATOM      2  N   UNL     1       7.524  -1.302  22.811  0.00  0.00    -0.323 N 
ATOM      3  H   UNL     1       6.548  -1.477  22.607  0.00  0.00    +0.169 HD
ATOM      4  C   UNL     1       7.965   0.000  22.702  0.00  0.00    +0.280 A 
ATOM      5  O   UNL     1       7.228   0.926  22.414  0.00  0.00    -0.265 OA
ATOM      6  C   UNL     1       9.455   0.189  23.012  0.00  0.00    +0.192 A 
ATOM      7  N   UNL     1      10.220  -0.797  23.421  0.00  0.00    -0.208 NA
ATOM      8  C   UNL     1       9.639  -2.034  23.520  0.00  0.00    +0.230 A 
ATOM      9  F   UNL     1      10.423  -3.049  23.939  0.00  0.00    -0.182 F 
ENDROOT
BRANCH   6  10
ATOM     10  C   UNL     1      10.132   1.547  22.869  0.00  0.00    +0.265 C 
ATOM     11  N   UNL     1       9.967   2.140  21.645  0.00  0.00    -0.324 N 
ATOM     12  H   UNL     1      10.247   3.106  21.551  0.00  0.00    +0.145 HD
ATOM     13  H   UNL     1       9.264   1.769  21.014  0.00  0.00    +0.145 HD
ATOM     14  O   UNL     1      10.719   2.079  23.794  0.00  0.00    -0.269 OA
ENDBRANCH   6  10
TORSDOF 1
ENDMDL
MODEL 6
REMARK VINA RESULT:      -4.6      5.364      6.337
REMARK  Name = 
REMARK  1 active torsions:
REMARK  status: ('A' for Active; 'I' for Inactive)
REMARK    1  A    between atoms: C_4  and  C_8
REMARK                            x       y       z     vdW  Elec       q    Type
REMARK                         _______ _______ _______ _____ _____    ______ ____
ROOT
ATOM      1  C   UNL     1       9.487  -2.176  23.812  0.00  0.00    +0.145 A 
ATOM      2  N   UNL     1      10.095  -1.111  24.417  0.00  0.00    -0.323 N 
ATOM      3  H   UNL     1      10.615  -1.216  25.280  0.00  0.00    +0.169 HD
ATOM      4  C   UNL     1      10.068   0.146  23.849  0.00  0.00    +0.280 A 
ATOM      5  O   UNL     1      10.666   1.097  24.319  0.00  0.00    -0.265 OA
ATOM      6  C   UNL     1       9.253   0.233  22.552  0.00  0.00    +0.192 A 
ATOM      7  N   UNL     1       8.696  -0.819  21.998  0.00  0.00    -0.208 NA
ATOM      8  C   UNL     1       8.836  -2.014  22.653  0.00  0.00    +0.230 A 
ATOM      9  F   UNL     1       8.265  -3.096  22.086  0.00  0.00    -0.182 F 
ENDROOT
BRANCH   6  10
ATOM     10  C   UNL     1       9.050   1.559  21.828  0.00  0.00    +0.265 C 
ATOM     11  N   UNL     1      10.191   2.299  21.662  0.00  0.00    -0.324 N 
ATOM     12  H   UNL     1      10.145   3.098  21.046  0.00  0.00    +0.145 HD
ATOM     13  H   UNL     1      11.088   1.854  21.825  0.00  0.00    +0.145 HD
ATOM     14  O   UNL     1       7.966   1.895  21.383  0.00  0.00    -0.269 OA
ENDBRANCH   6  10
TORSDOF 1
ENDMDL
MODEL 7
REMARK VINA RESULT:      -4.6      3.356      4.107
REMARK  Name = 
REMARK  1 active torsions:
REMARK  status: ('A' for Active; 'I' for Inactive)
REMARK    1  A    between atoms: C_4  and  C_8
REMARK                            x       y       z     vdW  Elec       q    Type
REMARK                         _______ _______ _______ _____ _____    ______ ____
ROOT
ATOM      1  C   UNL     1       9.309  -0.780  23.956  0.00  0.00    +0.145 A 
ATOM      2  N   UNL     1       8.573  -1.041  25.079  0.00  0.00    -0.323 N 
ATOM      3  H   UNL     1       8.036  -0.318  25.541  0.00  0.00    +0.169 HD
ATOM      4  C   UNL     1       8.493  -2.315  25.602  0.00  0.00    +0.280 A 
ATOM      5  O   UNL     1       7.784  -2.596  26.552  0.00  0.00    -0.265 OA
ATOM      6  C   UNL     1       9.341  -3.355  24.860  0.00  0.00    +0.192 A 
ATOM      7  N   UNL     1      10.023  -3.064  23.776  0.00  0.00    -0.208 NA
ATOM      8  C   UNL     1       9.982  -1.764  23.346  0.00  0.00    +0.230 A 
ATOM      9  F   UNL     1      10.682  -1.463  22.233  0.00  0.00    -0.182 F 
ENDROOT
BRANCH   6  10
ATOM     10  C   UNL     1       9.434  -4.797  25.343  0.00  0.00    +0.265 C 
ATOM     11  N   UNL     1       9.545  -4.938  26.702  0.00  0.00    -0.324 N 
ATOM     12  H   UNL     1       9.440  -5.866  27.087  0.00  0.00    +0.145 HD
ATOM     13  H   UNL     1       9.351  -4.136  27.292  0.00  0.00    +0.145 HD
ATOM     14  O   UNL     1       9.354  -5.743  24.579  0.00  0.00    -0.269 OA
ENDBRANCH   6  10
TORSDOF 1
ENDMDL
MODEL 8
REMARK VINA RESULT:      -4.6      3.328      4.253
REMARK  Name = 
REMARK  1 active torsions:
REMARK  status: ('A' for Active; 'I' for Inactive)
REMARK    1  A    between atoms: C_4  and  C_8
REMARK                            x       y       z     vdW  Elec       q    Type
REMARK                         _______ _______ _______ _____ _____    ______ ____
ROOT
ATOM      1  C   UNL     1       8.150  -4.826  24.515  0.00  0.00    +0.145 A 
ATOM      2  N   UNL     1       7.344  -4.106  23.676  0.00  0.00    -0.323 N 
ATOM      3  H   UNL     1       6.388  -4.384  23.490  0.00  0.00    +0.169 HD
ATOM      4  C   UNL     1       7.785  -2.940  23.086  0.00  0.00    +0.280 A 
ATOM      5  O   UNL     1       7.069  -2.234  22.400  0.00  0.00    -0.265 OA
ATOM      6  C   UNL     1       9.244  -2.588  23.401  0.00  0.00    +0.192 A 
ATOM      7  N   UNL     1       9.979  -3.300  24.224  0.00  0.00    -0.208 NA
ATOM      8  C   UNL     1       9.399  -4.415  24.769  0.00  0.00    +0.230 A 
ATOM      9  F   UNL     1      10.152  -5.149  25.614  0.00  0.00    -0.182 F 
ENDROOT
BRANCH   6  10
ATOM     10  C   UNL     1       9.924  -1.376  22.775  0.00  0.00    +0.265 C 
ATOM     11  N   UNL     1       9.823  -1.307  21.410  0.00  0.00    -0.324 N 
ATOM     12  H   UNL     1      10.104  -0.446  20.962  0.00  0.00    +0.145 HD
ATOM     13  H   UNL     1       9.156  -1.910  20.939  0.00  0.00    +0.145 HD
ATOM     14  O   UNL     1      10.459  -0.513  23.448  0.00  0.00    -0.269 OA
ENDBRANCH   6  10
TORSDOF 1
ENDMDL
MODEL 9
REMARK VINA RESULT:      -4.5      1.346      2.762
REMARK  Name = 
REMARK  1 active torsions:
REMARK  status: ('A' for Active; 'I' for Inactive)
REMARK    1  A    between atoms: C_4  and  C_8
REMARK                            x       y       z     vdW  Elec       q    Type
REMARK                         _______ _______ _______ _____ _____    ______ ____
ROOT
ATOM      1  C   UNL     1       6.860  -3.731  22.155  0.00  0.00    +0.145 A 
ATOM      2  N   UNL     1       7.960  -3.071  22.631  0.00  0.00    -0.323 N 
ATOM      3  H   UNL     1       8.325  -2.247  22.169  0.00  0.00    +0.169 HD
ATOM      4  C   UNL     1       8.589  -3.474  23.790  0.00  0.00    +0.280 A 
ATOM      5  O   UNL     1       9.520  -2.863  24.283  0.00  0.00    -0.265 OA
ATOM      6  C   UNL     1       7.992  -4.735  24.426  0.00  0.00    +0.192 A 
ATOM      7  N   UNL     1       6.925  -5.330  23.944  0.00  0.00    -0.208 NA
ATOM      8  C   UNL     1       6.379  -4.798  22.805  0.00  0.00    +0.230 A 
ATOM      9  F   UNL     1       5.283  -5.407  22.308  0.00  0.00    -0.182 F 
ENDROOT
BRANCH   6  10
ATOM     10  C   UNL     1       8.607  -5.368  25.669  0.00  0.00    +0.265 C 
ATOM     11  N   UNL     1       9.965  -5.537  25.610  0.00  0.00    -0.324 N 
ATOM     12  H   UNL     1      10.443  -5.792  26.463  0.00  0.00    +0.145 HD
ATOM     13  H   UNL     1      10.485  -5.062  24.879  0.00  0.00    +0.145 HD
ATOM     14  O   UNL     1       7.943  -5.641  26.653  0.00  0.00    -0.269 OA
ENDBRANCH   6  10
TORSDOF 1
ENDMDL
