MODEL 1
REMARK VINA RESULT:      -5.3      0.000      0.000
REMARK  Name = 
REMARK  3 active torsions:
REMARK  status: ('A' for Active; 'I' for Inactive)
REMARK    1  A    between atoms: C_2  and  N_10
REMARK    2  A    between atoms: C_5  and  C_8
REMARK    3  A    between atoms: C_8  and  O_9
REMARK                            x       y       z     vdW  Elec       q    Type
REMARK                         _______ _______ _______ _____ _____    ______ ____
ROOT
ATOM      1  N   UNL     1       9.652  -1.238  23.549  0.00  0.00    -0.272 N 
ATOM      2  C   UNL     1      10.032  -0.054  24.196  0.00  0.00    +0.352 A 
ATOM      3  O   UNL     1      10.159   0.000  25.416  0.00  0.00    -0.244 OA
ATOM      4  N   UNL     1      10.262   1.068  23.439  0.00  0.00    -0.178 NA
ATOM      5  C   UNL     1       9.963   1.077  22.177  0.00  0.00    +0.123 A 
ATOM      6  N   UNL     1      10.192   2.232  21.485  0.00  0.00    -0.343 N 
ATOM      7  H   UNL     1      10.773   2.882  22.005  0.00  0.00    +0.144 HD
ATOM      8  H   UNL     1      10.456   2.147  20.511  0.00  0.00    +0.144 HD
ATOM      9  C   UNL     1       9.385  -0.084  21.485  0.00  0.00    +0.061 A 
ATOM     10  C   UNL     1       9.240  -1.181  22.226  0.00  0.00    +0.096 A 
ENDROOT
BRANCH   1  15
ATOM     11  C   UNL     1       8.694  -3.681  23.671  0.00  0.00    +0.126 C 
ATOM     12  S   UNL     1       6.923  -3.382  23.773  0.00  0.00    -0.123 S 
ATOM     13  C   UNL     1       7.136  -2.196  25.106  0.00  0.00    +0.203 C 
ATOM     14  O   UNL     1       8.532  -2.104  25.466  0.00  0.00    -0.340 OA
ATOM     15  C   UNL     1       9.363  -2.458  24.326  0.00  0.00    +0.235 C 
BRANCH  13  16
ATOM     16  C   UNL     1       6.584  -0.818  24.698  0.00  0.00    +0.198 C 
BRANCH  16  17
ATOM     17  O   UNL     1       6.068  -0.852  23.362  0.00  0.00    -0.392 OA
ATOM     18  H   UNL     1       5.841   0.066  23.127  0.00  0.00    +0.210 HD
ENDBRANCH  16  17
ENDBRANCH  13  16
ENDBRANCH   1  15
TORSDOF 3
ENDMDL
MODEL 2
REMARK VINA RESULT:      -5.3      2.719      4.476
REMARK  Name = 
REMARK  3 active torsions:
REMARK  status: ('A' for Active; 'I' for Inactive)
REMARK    1  A    between atoms: C_2  and  N_10
REMARK    2  A    between atoms: C_5  and  C_8
REMARK    3  A    between atoms: C_8  and  O_9
REMARK                            x       y       z     vdW  Elec       q    Type
REMARK                         _______ _______ _______ _____ _____    ______ ____
ROOT
ATOM      1  N   UNL     1       8.276  -1.794  24.226  0.00  0.00    -0.272 N 
ATOM      2  C   UNL     1       8.781  -3.053  23.868  0.00  0.00    +0.352 A 
ATOM      3  O   UNL     1       9.957  -3.350  24.053  0.00  0.00    -0.244 OA
ATOM      4  N   UNL     1       7.932  -3.965  23.294  0.00  0.00    -0.178 NA
ATOM      5  C   UNL     1       6.739  -3.610  22.931  0.00  0.00    +0.123 A 
ATOM      6  N   UNL     1       5.952  -4.558  22.343  0.00  0.00    -0.343 N 
ATOM      7  H   UNL     1       6.328  -5.494  22.456  0.00  0.00    +0.144 HD
ATOM      8  H   UNL     1       4.954  -4.504  22.508  0.00  0.00    +0.144 HD
ATOM      9  C   UNL     1       6.222  -2.246  23.115  0.00  0.00    +0.061 A 
ATOM     10  C   UNL     1       7.040  -1.401  23.739  0.00  0.00    +0.096 A 
ENDROOT
BRANCH   1  15
ATOM     11  C   UNL     1       8.656   0.657  25.091  0.00  0.00    +0.126 C 
ATOM     12  S   UNL     1       8.887   1.563  23.555  0.00  0.00    -0.123 S 
ATOM     13  C   UNL     1      10.108   0.383  22.969  0.00  0.00    +0.203 C 
ATOM     14  O   UNL     1      10.340  -0.628  23.974  0.00  0.00    -0.340 OA
ATOM     15  C   UNL     1       9.161  -0.772  24.815  0.00  0.00    +0.235 C 
BRANCH  13  16
ATOM     16  C   UNL     1       9.650  -0.257  21.645  0.00  0.00    +0.198 C 
BRANCH  16  17
ATOM     17  O   UNL     1      10.291  -1.522  21.442  0.00  0.00    -0.392 OA
ATOM     18  H   UNL     1      10.951  -1.618  22.152  0.00  0.00    +0.210 HD
ENDBRANCH  16  17
ENDBRANCH  13  16
ENDBRANCH   1  15
TORSDOF 3
ENDMDL
MODEL 3
REMARK VINA RESULT:      -5.2      2.544      3.385
REMARK  Name = 
REMARK  3 active torsions:
REMARK  status: ('A' for Active; 'I' for Inactive)
REMARK    1  A    between atoms: C_2  and  N_10
REMARK    2  A    between atoms: C_5  and  C_8
REMARK    3  A    between atoms: C_8  and  O_9
REMARK                            x       y       z     vdW  Elec       q    Type
REMARK                         _______ _______ _______ _____ _____    ______ ____
ROOT
ATOM      1  N   UNL     1       8.283  -2.512  23.745  0.00  0.00    -0.272 N 
ATOM      2  C   UNL     1       9.642  -2.173  23.804  0.00  0.00    +0.352 A 
ATOM      3  O   UNL     1      10.517  -2.961  23.457  0.00  0.00    -0.244 OA
ATOM      4  N   UNL     1       9.993  -0.929  24.266  0.00  0.00    -0.178 NA
ATOM      5  C   UNL     1       9.100  -0.155  24.800  0.00  0.00    +0.123 A 
ATOM      6  N   UNL     1       9.518   1.060  25.264  0.00  0.00    -0.343 N 
ATOM      7  H   UNL     1      10.449   1.296  24.937  0.00  0.00    +0.144 HD
ATOM      8  H   UNL     1       8.863   1.831  25.205  0.00  0.00    +0.144 HD
ATOM      9  C   UNL     1       7.687  -0.539  24.932  0.00  0.00    +0.061 A 
ATOM     10  C   UNL     1       7.361  -1.719  24.411  0.00  0.00    +0.096 A 
ENDROOT
BRANCH   1  15
ATOM     11  C   UNL     1       6.394  -4.300  23.380  0.00  0.00    +0.126 C 
ATOM     12  S   UNL     1       6.194  -4.975  25.035  0.00  0.00    -0.123 S 
ATOM     13  C   UNL     1       7.963  -5.237  25.210  0.00  0.00    +0.203 C 
ATOM     14  O   UNL     1       8.641  -4.856  23.993  0.00  0.00    -0.340 OA
ATOM     15  C   UNL     1       7.864  -3.849  23.286  0.00  0.00    +0.235 C 
BRANCH  13  16
ATOM     16  C   UNL     1       8.511  -4.447  26.412  0.00  0.00    +0.198 C 
BRANCH  16  17
ATOM     17  O   UNL     1       9.828  -4.893  26.757  0.00  0.00    -0.392 OA
ATOM     18  H   UNL     1      10.106  -4.370  27.531  0.00  0.00    +0.210 HD
ENDBRANCH  16  17
ENDBRANCH  13  16
ENDBRANCH   1  15
TORSDOF 3
ENDMDL
MODEL 4
REMARK VINA RESULT:      -5.2      2.047      2.960
REMARK  Name = 
REMARK  3 active torsions:
REMARK  status: ('A' for Active; 'I' for Inactive)
REMARK    1  A    between atoms: C_2  and  N_10
REMARK    2  A    between atoms: C_5  and  C_8
REMARK    3  A    between atoms: C_8  and  O_9
REMARK                            x       y       z     vdW  Elec       q    Type
REMARK                         _______ _______ _______ _____ _____    ______ ____
ROOT
ATOM      1  N   UNL     1       8.765   0.532  24.333  0.00  0.00    -0.272 N 
ATOM      2  C   UNL     1       8.189   1.539  23.545  0.00  0.00    +0.352 A 
ATOM      3  O   UNL     1       7.031   1.459  23.145  0.00  0.00    -0.244 OA
ATOM      4  N   UNL     1       8.947   2.634  23.215  0.00  0.00    -0.178 NA
ATOM      5  C   UNL     1      10.218   2.652  23.477  0.00  0.00    +0.123 A 
ATOM      6  N   UNL     1      10.921   3.760  23.101  0.00  0.00    -0.343 N 
ATOM      7  H   UNL     1      10.314   4.534  22.848  0.00  0.00    +0.144 HD
ATOM      8  H   UNL     1      11.703   4.036  23.684  0.00  0.00    +0.144 HD
ATOM      9  C   UNL     1      10.912   1.538  24.139  0.00  0.00    +0.061 A 
ATOM     10  C   UNL     1      10.140   0.520  24.512  0.00  0.00    +0.096 A 
ENDROOT
BRANCH   1  15
ATOM     11  C   UNL     1       8.663  -1.866  25.399  0.00  0.00    +0.126 C 
ATOM     12  S   UNL     1       9.377  -2.883  24.099  0.00  0.00    -0.123 S 
ATOM     13  C   UNL     1       8.295  -2.166  22.857  0.00  0.00    +0.203 C 
ATOM     14  O   UNL     1       7.395  -1.220  23.474  0.00  0.00    -0.340 OA
ATOM     15  C   UNL     1       7.996  -0.677  24.683  0.00  0.00    +0.235 C 
BRANCH  13  16
ATOM     16  C   UNL     1       9.120  -1.491  21.746  0.00  0.00    +0.198 C 
BRANCH  16  17
ATOM     17  O   UNL     1      10.519  -1.747  21.923  0.00  0.00    -0.392 OA
ATOM     18  H   UNL     1      10.726  -1.537  22.851  0.00  0.00    +0.210 HD
ENDBRANCH  16  17
ENDBRANCH  13  16
ENDBRANCH   1  15
TORSDOF 3
ENDMDL
MODEL 5
REMARK VINA RESULT:      -5.2      3.067      4.790
REMARK  Name = 
REMARK  3 active torsions:
REMARK  status: ('A' for Active; 'I' for Inactive)
REMARK    1  A    between atoms: C_2  and  N_10
REMARK    2  A    between atoms: C_5  and  C_8
REMARK    3  A    between atoms: C_8  and  O_9
REMARK                            x       y       z     vdW  Elec       q    Type
REMARK                         _______ _______ _______ _____ _____    ______ ____
ROOT
ATOM      1  N   UNL     1       7.889  -3.516  23.806  0.00  0.00    -0.272 N 
ATOM      2  C   UNL     1       9.091  -3.773  24.482  0.00  0.00    +0.352 A 
ATOM      3  O   UNL     1      10.166  -3.352  24.065  0.00  0.00    -0.244 OA
ATOM      4  N   UNL     1       9.054  -4.519  25.633  0.00  0.00    -0.178 NA
ATOM      5  C   UNL     1       7.960  -5.118  25.989  0.00  0.00    +0.123 A 
ATOM      6  N   UNL     1       7.995  -5.865  27.132  0.00  0.00    -0.343 N 
ATOM      7  H   UNL     1       8.829  -5.685  27.683  0.00  0.00    +0.144 HD
ATOM      8  H   UNL     1       7.149  -5.909  27.687  0.00  0.00    +0.144 HD
ATOM      9  C   UNL     1       6.714  -5.033  25.213  0.00  0.00    +0.061 A 
ATOM     10  C   UNL     1       6.758  -4.245  24.140  0.00  0.00    +0.096 A 
ENDROOT
BRANCH   1  15
ATOM     11  C   UNL     1       9.050  -1.803  22.188  0.00  0.00    +0.126 C 
ATOM     12  S   UNL     1       8.662  -0.230  22.969  0.00  0.00    -0.123 S 
ATOM     13  C   UNL     1       6.919  -0.649  23.091  0.00  0.00    +0.203 C 
ATOM     14  O   UNL     1       6.678  -1.940  22.490  0.00  0.00    -0.340 OA
ATOM     15  C   UNL     1       7.887  -2.748  22.547  0.00  0.00    +0.235 C 
BRANCH  13  16
ATOM     16  C   UNL     1       6.460  -0.635  24.560  0.00  0.00    +0.198 C 
BRANCH  16  17
ATOM     17  O   UNL     1       5.118  -1.122  24.679  0.00  0.00    -0.392 OA
ATOM     18  H   UNL     1       5.178  -2.091  24.760  0.00  0.00    +0.210 HD
ENDBRANCH  16  17
ENDBRANCH  13  16
ENDBRANCH   1  15
TORSDOF 3
ENDMDL
MODEL 6
REMARK VINA RESULT:      -5.1      4.322      5.585
REMARK  Name = 
REMARK  3 active torsions:
REMARK  status: ('A' for Active; 'I' for Inactive)
REMARK    1  A    between atoms: C_2  and  N_10
REMARK    2  A    between atoms: C_5  and  C_8
REMARK    3  A    between atoms: C_8  and  O_9
REMARK                            x       y       z     vdW  Elec       q    Type
REMARK                         _______ _______ _______ _____ _____    ______ ____
ROOT
ATOM      1  N   UNL     1       6.729  -3.744  24.540  0.00  0.00    -0.272 N 
ATOM      2  C   UNL     1       7.722  -4.044  23.596  0.00  0.00    +0.352 A 
ATOM      3  O   UNL     1       7.570  -3.802  22.403  0.00  0.00    -0.244 OA
ATOM      4  N   UNL     1       8.887  -4.627  24.028  0.00  0.00    -0.178 NA
ATOM      5  C   UNL     1       8.993  -5.050  25.249  0.00  0.00    +0.123 A 
ATOM      6  N   UNL     1      10.169  -5.644  25.609  0.00  0.00    -0.343 N 
ATOM      7  H   UNL     1      10.903  -5.489  24.925  0.00  0.00    +0.144 HD
ATOM      8  H   UNL     1      10.479  -5.522  26.566  0.00  0.00    +0.144 HD
ATOM      9  C   UNL     1       7.908  -4.926  26.234  0.00  0.00    +0.061 A 
ATOM     10  C   UNL     1       6.817  -4.293  25.809  0.00  0.00    +0.096 A 
ENDROOT
BRANCH   1  15
ATOM     11  C   UNL     1       4.248  -3.067  25.078  0.00  0.00    +0.126 C 
ATOM     12  S   UNL     1       3.391  -4.640  24.922  0.00  0.00    -0.123 S 
ATOM     13  C   UNL     1       4.140  -4.962  23.321  0.00  0.00    +0.203 C 
ATOM     14  O   UNL     1       4.972  -3.847  22.932  0.00  0.00    -0.340 OA
ATOM     15  C   UNL     1       5.449  -3.147  24.115  0.00  0.00    +0.235 C 
BRANCH  13  16
ATOM     16  C   UNL     1       4.955  -6.267  23.357  0.00  0.00    +0.198 C 
BRANCH  16  17
ATOM     17  O   UNL     1       5.722  -6.423  22.157  0.00  0.00    -0.392 OA
ATOM     18  H   UNL     1       6.645  -6.212  22.386  0.00  0.00    +0.210 HD
ENDBRANCH  16  17
ENDBRANCH  13  16
ENDBRANCH   1  15
TORSDOF 3
ENDMDL
MODEL 7
REMARK VINA RESULT:      -5.1      3.389      5.525
REMARK  Name = 
REMARK  3 active torsions:
REMARK  status: ('A' for Active; 'I' for Inactive)
REMARK    1  A    between atoms: C_2  and  N_10
REMARK    2  A    between atoms: C_5  and  C_8
REMARK    3  A    between atoms: C_8  and  O_9
REMARK                            x       y       z     vdW  Elec       q    Type
REMARK                         _______ _______ _______ _____ _____    ______ ____
ROOT
ATOM      1  N   UNL     1       8.519  -3.479  25.550  0.00  0.00    -0.272 N 
ATOM      2  C   UNL     1       8.894  -4.830  25.567  0.00  0.00    +0.352 A 
ATOM      3  O   UNL     1       9.753  -5.269  24.809  0.00  0.00    -0.244 OA
ATOM      4  N   UNL     1       8.275  -5.674  26.455  0.00  0.00    -0.178 NA
ATOM      5  C   UNL     1       7.248  -5.269  27.136  0.00  0.00    +0.123 A 
ATOM      6  N   UNL     1       6.662  -6.166  27.983  0.00  0.00    -0.343 N 
ATOM      7  H   UNL     1       7.241  -6.986  28.135  0.00  0.00    +0.144 HD
ATOM      8  H   UNL     1       6.250  -5.802  28.834  0.00  0.00    +0.144 HD
ATOM      9  C   UNL     1       6.697  -3.912  27.017  0.00  0.00    +0.061 A 
ATOM     10  C   UNL     1       7.359  -3.092  26.203  0.00  0.00    +0.096 A 
ENDROOT
BRANCH   1  15
ATOM     11  C   UNL     1       8.574  -1.122  24.390  0.00  0.00    +0.126 C 
ATOM     12  S   UNL     1       7.267  -1.278  23.165  0.00  0.00    -0.123 S 
ATOM     13  C   UNL     1       7.930  -2.836  22.564  0.00  0.00    +0.203 C 
ATOM     14  O   UNL     1       9.147  -3.161  23.272  0.00  0.00    -0.340 OA
ATOM     15  C   UNL     1       9.134  -2.543  24.589  0.00  0.00    +0.235 C 
BRANCH  13  16
ATOM     16  C   UNL     1       6.891  -3.962  22.716  0.00  0.00    +0.198 C 
BRANCH  16  17
ATOM     17  O   UNL     1       7.510  -5.247  22.587  0.00  0.00    -0.392 OA
ATOM     18  H   UNL     1       7.854  -5.482  23.468  0.00  0.00    +0.210 HD
ENDBRANCH  16  17
ENDBRANCH  13  16
ENDBRANCH   1  15
TORSDOF 3
ENDMDL
MODEL 8
REMARK VINA RESULT:      -5.1      3.212      5.048
REMARK  Name = 
REMARK  3 active torsions:
REMARK  status: ('A' for Active; 'I' for Inactive)
REMARK    1  A    between atoms: C_2  and  N_10
REMARK    2  A    between atoms: C_5  and  C_8
REMARK    3  A    between atoms: C_8  and  O_9
REMARK                            x       y       z     vdW  Elec       q    Type
REMARK                         _______ _______ _______ _____ _____    ______ ____
ROOT
ATOM      1  N   UNL     1       7.186  -3.537  24.110  0.00  0.00    -0.272 N 
ATOM      2  C   UNL     1       7.894  -4.703  23.782  0.00  0.00    +0.352 A 
ATOM      3  O   UNL     1       9.018  -4.918  24.225  0.00  0.00    -0.244 OA
ATOM      4  N   UNL     1       7.309  -5.616  22.941  0.00  0.00    -0.178 NA
ATOM      5  C   UNL     1       6.204  -5.324  22.327  0.00  0.00    +0.123 A 
ATOM      6  N   UNL     1       5.686  -6.266  21.485  0.00  0.00    -0.343 N 
ATOM      7  H   UNL     1       6.124  -7.174  21.607  0.00  0.00    +0.144 HD
ATOM      8  H   UNL     1       4.677  -6.314  21.403  0.00  0.00    +0.144 HD
ATOM      9  C   UNL     1       5.514  -4.037  22.493  0.00  0.00    +0.061 A 
ATOM     10  C   UNL     1       6.065  -3.198  23.368  0.00  0.00    +0.096 A 
ENDROOT
BRANCH   1  15
ATOM     11  C   UNL     1       7.086  -1.169  25.242  0.00  0.00    +0.126 C 
ATOM     12  S   UNL     1       7.581  -0.089  23.892  0.00  0.00    -0.123 S 
ATOM     13  C   UNL     1       9.025  -1.096  23.532  0.00  0.00    +0.203 C 
ATOM     14  O   UNL     1       9.115  -2.185  24.477  0.00  0.00    -0.340 OA
ATOM     15  C   UNL     1       7.791  -2.514  24.983  0.00  0.00    +0.235 C 
BRANCH  13  16
ATOM     16  C   UNL     1       8.968  -1.626  22.088  0.00  0.00    +0.198 C 
BRANCH  16  17
ATOM     17  O   UNL     1      10.258  -1.558  21.469  0.00  0.00    -0.392 OA
ATOM     18  H   UNL     1      10.727  -0.809  21.882  0.00  0.00    +0.210 HD
ENDBRANCH  16  17
ENDBRANCH  13  16
ENDBRANCH   1  15
TORSDOF 3
ENDMDL
MODEL 9
REMARK VINA RESULT:      -5.1      2.760      4.930
REMARK  Name = 
REMARK  3 active torsions:
REMARK  status: ('A' for Active; 'I' for Inactive)
REMARK    1  A    between atoms: C_2  and  N_10
REMARK    2  A    between atoms: C_5  and  C_8
REMARK    3  A    between atoms: C_8  and  O_9
REMARK                            x       y       z     vdW  Elec       q    Type
REMARK                         _______ _______ _______ _____ _____    ______ ____
ROOT
ATOM      1  N   UNL     1       8.349  -3.139  23.692  0.00  0.00    -0.272 N 
ATOM      2  C   UNL     1       7.095  -3.539  24.177  0.00  0.00    +0.352 A 
ATOM      3  O   UNL     1       6.054  -3.053  23.747  0.00  0.00    -0.244 OA
ATOM      4  N   UNL     1       7.043  -4.495  25.160  0.00  0.00    -0.178 NA
ATOM      5  C   UNL     1       8.131  -4.889  25.748  0.00  0.00    +0.123 A 
ATOM      6  N   UNL     1       8.008  -5.825  26.735  0.00  0.00    -0.343 N 
ATOM      7  H   UNL     1       7.090  -6.258  26.742  0.00  0.00    +0.144 HD
ATOM      8  H   UNL     1       8.766  -6.487  26.845  0.00  0.00    +0.144 HD
ATOM      9  C   UNL     1       9.459  -4.363  25.403  0.00  0.00    +0.061 A 
ATOM     10  C   UNL     1       9.489  -3.490  24.399  0.00  0.00    +0.096 A 
ENDROOT
BRANCH   1  15
ATOM     11  C   UNL     1       9.822  -1.545  22.212  0.00  0.00    +0.126 C 
ATOM     12  S   UNL     1      10.228  -0.230  23.369  0.00  0.00    -0.123 S 
ATOM     13  C   UNL     1       8.508  -0.036  23.850  0.00  0.00    +0.203 C 
ATOM     14  O   UNL     1       7.676  -0.934  23.082  0.00  0.00    -0.340 OA
ATOM     15  C   UNL     1       8.452  -2.090  22.660  0.00  0.00    +0.235 C 
BRANCH  13  16
ATOM     16  C   UNL     1       8.336  -0.287  25.359  0.00  0.00    +0.198 C 
BRANCH  16  17
ATOM     17  O   UNL     1       9.584  -0.135  26.046  0.00  0.00    -0.392 OA
ATOM     18  H   UNL     1      10.119  -0.920  25.831  0.00  0.00    +0.210 HD
ENDBRANCH  16  17
ENDBRANCH  13  16
ENDBRANCH   1  15
TORSDOF 3
ENDMDL
