MODEL 1
REMARK VINA RESULT:      -8.1      0.000      0.000
REMARK  Name = 
REMARK  5 active torsions:
REMARK  status: ('A' for Active; 'I' for Inactive)
REMARK    1  A    between atoms: C_1  and  C_2
REMARK    2  A    between atoms: C_13  and  O_32
REMARK    3  A    between atoms: C_16  and  C_20
REMARK    4  A    between atoms: N_22  and  C_23
REMARK    5  A    between atoms: C_23  and  C_24
REMARK                            x       y       z     vdW  Elec       q    Type
REMARK                         _______ _______ _______ _____ _____    ______ ____
ROOT
ATOM      1  C   UNL     1       7.477   3.274  22.207  0.00  0.00    +0.028 C 
ATOM      2  C   UNL     1       8.252   2.713  23.409  0.00  0.00    +0.078 C 
ATOM      3  N   UNL     1       8.760   1.346  23.244  0.00  0.00    -0.266 N 
ATOM      4  C   UNL     1       7.851   0.329  22.985  0.00  0.00    +0.269 C 
ATOM      5  C   UNL     1       8.278  -1.086  23.297  0.00  0.00    +0.151 A 
ATOM      6  N   UNL     1       9.532  -1.343  23.874  0.00  0.00    -0.335 N 
ATOM      7  C   UNL     1      10.435  -0.228  24.194  0.00  0.00    +0.173 C 
ATOM      8  C   UNL     1       9.723  -2.579  24.491  0.00  0.00    +0.103 A 
ATOM      9  C   UNL     1       8.885  -3.625  24.389  0.00  0.00    +0.103 A 
ATOM     10  C   UNL     1       7.767  -3.449  23.432  0.00  0.00    +0.236 A 
ATOM     11  O   UNL     1       7.184  -4.410  22.939  0.00  0.00    -0.283 OA
ATOM     12  C   UNL     1       7.355  -2.053  23.094  0.00  0.00    +0.194 A 
ATOM     13  O   UNL     1       6.698   0.537  22.602  0.00  0.00    -0.268 OA
ATOM     14  C   UNL     1      10.183   1.017  23.321  0.00  0.00    +0.228 C 
ATOM     15  O   UNL     1      10.967   2.048  23.918  0.00  0.00    -0.357 OA
ATOM     16  C   UNL     1      10.689   3.354  23.464  0.00  0.00    +0.164 C 
ATOM     17  C   UNL     1       9.292   3.722  23.890  0.00  0.00    +0.050 C 
ENDROOT
BRANCH   9  18
ATOM     18  C   UNL     1       9.157  -4.843  25.194  0.00  0.00    +0.250 C 
ATOM     19  N   UNL     1       8.487  -5.062  26.360  0.00  0.00    -0.307 N 
ATOM     20  H   UNL     1       8.722  -5.952  26.803  0.00  0.00    +0.149 HD
ATOM     21  O   UNL     1      10.050  -5.626  24.860  0.00  0.00    -0.270 OA
BRANCH  19  22
ATOM     22  C   UNL     1       7.351  -4.336  26.882  0.00  0.00    +0.142 C 
BRANCH  22  23
ATOM     23  C   UNL     1       6.043  -4.680  26.240  0.00  0.00    +0.005 A 
ATOM     24  C   UNL     1       5.692  -6.017  26.006  0.00  0.00    +0.011 A 
ATOM     25  C   UNL     1       4.531  -6.319  25.294  0.00  0.00    +0.039 A 
ATOM     26  C   UNL     1       3.724  -5.286  24.827  0.00  0.00    +0.126 A 
ATOM     27  F   UNL     1       2.621  -5.578  24.127  0.00  0.00    -0.205 F 
ATOM     28  C   UNL     1       4.049  -3.956  25.060  0.00  0.00    +0.077 A 
ATOM     29  C   UNL     1       5.206  -3.663  25.767  0.00  0.00    +0.131 A 
ATOM     30  F   UNL     1       5.540  -2.378  25.950  0.00  0.00    -0.205 F 
ENDBRANCH  22  23
ENDBRANCH  19  22
ENDBRANCH   9  18
BRANCH  12  31
ATOM     31  O   UNL     1       6.068  -1.873  22.613  0.00  0.00    -0.502 OA
ATOM     32  H   UNL     1       5.602  -1.243  23.208  0.00  0.00    +0.292 HD
ENDBRANCH  12  31
TORSDOF 4
ENDMDL
MODEL 2
REMARK VINA RESULT:      -8.1      2.307      2.872
REMARK  Name = 
REMARK  5 active torsions:
REMARK  status: ('A' for Active; 'I' for Inactive)
REMARK    1  A    between atoms: C_1  and  C_2
REMARK    2  A    between atoms: C_13  and  O_32
REMARK    3  A    between atoms: C_16  and  C_20
REMARK    4  A    between atoms: N_22  and  C_23
REMARK    5  A    between atoms: C_23  and  C_24
REMARK                            x       y       z     vdW  Elec       q    Type
REMARK                         _______ _______ _______ _____ _____    ______ ____
ROOT
ATOM      1  C   UNL     1      10.105   2.270  22.155  0.00  0.00    +0.028 C 
ATOM      2  C   UNL     1       8.825   1.939  22.939  0.00  0.00    +0.078 C 
ATOM      3  N   UNL     1       8.978   0.922  23.986  0.00  0.00    -0.266 N 
ATOM      4  C   UNL     1       9.430  -0.339  23.622  0.00  0.00    +0.269 C 
ATOM      5  C   UNL     1       9.128  -1.487  24.557  0.00  0.00    +0.151 A 
ATOM      6  N   UNL     1       8.373  -1.278  25.723  0.00  0.00    -0.335 N 
ATOM      7  C   UNL     1       7.856   0.063  26.032  0.00  0.00    +0.173 C 
ATOM      8  C   UNL     1       7.797  -2.392  26.334  0.00  0.00    +0.103 A 
ATOM      9  C   UNL     1       8.085  -3.668  26.026  0.00  0.00    +0.103 A 
ATOM     10  C   UNL     1       9.196  -3.853  25.064  0.00  0.00    +0.236 A 
ATOM     11  O   UNL     1       9.825  -4.906  25.000  0.00  0.00    -0.283 OA
ATOM     12  C   UNL     1       9.524  -2.714  24.153  0.00  0.00    +0.194 A 
ATOM     13  O   UNL     1       9.980  -0.573  22.544  0.00  0.00    -0.268 OA
ATOM     14  C   UNL     1       8.694   1.190  25.395  0.00  0.00    +0.228 C 
ATOM     15  O   UNL     1       7.927   2.375  25.599  0.00  0.00    -0.357 OA
ATOM     16  C   UNL     1       8.352   3.499  24.861  0.00  0.00    +0.164 C 
ATOM     17  C   UNL     1       8.135   3.221  23.396  0.00  0.00    +0.050 C 
ENDROOT
BRANCH   9  18
ATOM     18  C   UNL     1       7.311  -4.755  26.679  0.00  0.00    +0.250 C 
ATOM     19  N   UNL     1       5.969  -4.868  26.468  0.00  0.00    -0.307 N 
ATOM     20  H   UNL     1       5.552  -5.678  26.930  0.00  0.00    +0.149 HD
ATOM     21  O   UNL     1       7.856  -5.513  27.485  0.00  0.00    -0.270 OA
BRANCH  19  22
ATOM     22  C   UNL     1       5.159  -4.158  25.504  0.00  0.00    +0.142 C 
BRANCH  22  23
ATOM     23  C   UNL     1       5.399  -4.549  24.079  0.00  0.00    +0.005 A 
ATOM     24  C   UNL     1       5.314  -5.892  23.683  0.00  0.00    +0.011 A 
ATOM     25  C   UNL     1       5.664  -6.259  22.383  0.00  0.00    +0.039 A 
ATOM     26  C   UNL     1       6.087  -5.284  21.485  0.00  0.00    +0.126 A 
ATOM     27  F   UNL     1       6.440  -5.642  20.244  0.00  0.00    -0.205 F 
ATOM     28  C   UNL     1       6.164  -3.948  21.855  0.00  0.00    +0.077 A 
ATOM     29  C   UNL     1       5.817  -3.591  23.150  0.00  0.00    +0.131 A 
ATOM     30  F   UNL     1       5.937  -2.307  23.517  0.00  0.00    -0.205 F 
ENDBRANCH  22  23
ENDBRANCH  19  22
ENDBRANCH   9  18
BRANCH  12  31
ATOM     31  O   UNL     1      10.193  -3.017  22.979  0.00  0.00    -0.502 OA
ATOM     32  H   UNL     1       9.610  -3.590  22.431  0.00  0.00    +0.292 HD
ENDBRANCH  12  31
TORSDOF 4
ENDMDL
MODEL 3
REMARK VINA RESULT:      -8.0      3.095      8.334
REMARK  Name = 
REMARK  5 active torsions:
REMARK  status: ('A' for Active; 'I' for Inactive)
REMARK    1  A    between atoms: C_1  and  C_2
REMARK    2  A    between atoms: C_13  and  O_32
REMARK    3  A    between atoms: C_16  and  C_20
REMARK    4  A    between atoms: N_22  and  C_23
REMARK    5  A    between atoms: C_23  and  C_24
REMARK                            x       y       z     vdW  Elec       q    Type
REMARK                         _______ _______ _______ _____ _____    ______ ____
ROOT
ATOM      1  C   UNL     1       9.468  -5.505  25.028  0.00  0.00    +0.028 C 
ATOM      2  C   UNL     1       8.577  -4.457  25.714  0.00  0.00    +0.078 C 
ATOM      3  N   UNL     1       7.918  -3.507  24.810  0.00  0.00    -0.266 N 
ATOM      4  C   UNL     1       8.711  -2.720  23.985  0.00  0.00    +0.269 C 
ATOM      5  C   UNL     1       8.105  -1.447  23.441  0.00  0.00    +0.151 A 
ATOM      6  N   UNL     1       6.804  -1.064  23.805  0.00  0.00    -0.335 N 
ATOM      7  C   UNL     1       6.027  -1.895  24.735  0.00  0.00    +0.173 C 
ATOM      8  C   UNL     1       6.440   0.268  23.606  0.00  0.00    +0.103 A 
ATOM      9  C   UNL     1       7.151   1.160  22.896  0.00  0.00    +0.103 A 
ATOM     10  C   UNL     1       8.325   0.608  22.180  0.00  0.00    +0.236 A 
ATOM     11  O   UNL     1       8.812   1.175  21.206  0.00  0.00    -0.283 OA
ATOM     12  C   UNL     1       8.915  -0.667  22.692  0.00  0.00    +0.194 A 
ATOM     13  O   UNL     1       9.897  -2.966  23.756  0.00  0.00    -0.268 OA
ATOM     14  C   UNL     1       6.465  -3.373  24.728  0.00  0.00    +0.228 C 
ATOM     15  O   UNL     1       5.782  -3.963  25.832  0.00  0.00    -0.357 OA
ATOM     16  C   UNL     1       6.233  -5.246  26.202  0.00  0.00    +0.164 C 
ATOM     17  C   UNL     1       7.644  -5.128  26.719  0.00  0.00    +0.050 C 
ENDROOT
BRANCH   9  18
ATOM     18  C   UNL     1       6.700   2.574  22.864  0.00  0.00    +0.250 C 
ATOM     19  N   UNL     1       7.203   3.479  23.750  0.00  0.00    -0.307 N 
ATOM     20  H   UNL     1       6.856   4.428  23.604  0.00  0.00    +0.149 HD
ATOM     21  O   UNL     1       5.804   2.927  22.092  0.00  0.00    -0.270 OA
BRANCH  19  22
ATOM     22  C   UNL     1       8.313   3.307  24.662  0.00  0.00    +0.142 C 
BRANCH  22  23
ATOM     23  C   UNL     1       9.560   4.035  24.269  0.00  0.00    +0.005 A 
ATOM     24  C   UNL     1       9.602   5.437  24.278  0.00  0.00    +0.011 A 
ATOM     25  C   UNL     1      10.726   6.103  23.790  0.00  0.00    +0.039 A 
ATOM     26  C   UNL     1      11.804   5.369  23.304  0.00  0.00    +0.126 A 
ATOM     27  F   UNL     1      12.873   6.012  22.819  0.00  0.00    -0.205 F 
ATOM     28  C   UNL     1      11.785   3.981  23.300  0.00  0.00    +0.077 A 
ATOM     29  C   UNL     1      10.664   3.324  23.784  0.00  0.00    +0.131 A 
ATOM     30  F   UNL     1      10.631   1.984  23.736  0.00  0.00    -0.205 F 
ENDBRANCH  22  23
ENDBRANCH  19  22
ENDBRANCH   9  18
BRANCH  12  31
ATOM     31  O   UNL     1      10.235  -0.929  22.362  0.00  0.00    -0.502 OA
ATOM     32  H   UNL     1      10.402  -0.577  21.458  0.00  0.00    +0.292 HD
ENDBRANCH  12  31
TORSDOF 4
ENDMDL
MODEL 4
REMARK VINA RESULT:      -8.0      3.229      7.970
REMARK  Name = 
REMARK  5 active torsions:
REMARK  status: ('A' for Active; 'I' for Inactive)
REMARK    1  A    between atoms: C_1  and  C_2
REMARK    2  A    between atoms: C_13  and  O_32
REMARK    3  A    between atoms: C_16  and  C_20
REMARK    4  A    between atoms: N_22  and  C_23
REMARK    5  A    between atoms: C_23  and  C_24
REMARK                            x       y       z     vdW  Elec       q    Type
REMARK                         _______ _______ _______ _____ _____    ______ ____
ROOT
ATOM      1  C   UNL     1       5.687  -6.349  30.483  0.00  0.00    +0.028 C 
ATOM      2  C   UNL     1       5.158  -5.114  29.737  0.00  0.00    +0.078 C 
ATOM      3  N   UNL     1       5.082  -5.249  28.278  0.00  0.00    -0.266 N 
ATOM      4  C   UNL     1       6.246  -5.534  27.578  0.00  0.00    +0.269 C 
ATOM      5  C   UNL     1       6.278  -5.195  26.106  0.00  0.00    +0.151 A 
ATOM      6  N   UNL     1       5.180  -4.569  25.494  0.00  0.00    -0.335 N 
ATOM      7  C   UNL     1       3.994  -4.224  26.290  0.00  0.00    +0.173 C 
ATOM      8  C   UNL     1       5.393  -3.935  24.270  0.00  0.00    +0.103 A 
ATOM      9  C   UNL     1       6.504  -4.060  23.524  0.00  0.00    +0.103 A 
ATOM     10  C   UNL     1       7.484  -5.059  24.011  0.00  0.00    +0.236 A 
ATOM     11  O   UNL     1       8.314  -5.567  23.262  0.00  0.00    -0.283 OA
ATOM     12  C   UNL     1       7.443  -5.425  25.460  0.00  0.00    +0.194 A 
ATOM     13  O   UNL     1       7.269  -5.961  28.118  0.00  0.00    -0.268 OA
ATOM     14  C   UNL     1       3.828  -5.116  27.537  0.00  0.00    +0.228 C 
ATOM     15  O   UNL     1       2.790  -4.499  28.294  0.00  0.00    -0.357 OA
ATOM     16  C   UNL     1       2.644  -4.973  29.614  0.00  0.00    +0.164 C 
ATOM     17  C   UNL     1       3.879  -4.603  30.395  0.00  0.00    +0.050 C 
ENDROOT
BRANCH   9  18
ATOM     18  C   UNL     1       6.640  -3.236  22.296  0.00  0.00    +0.250 C 
ATOM     19  N   UNL     1       7.579  -2.251  22.228  0.00  0.00    -0.307 N 
ATOM     20  H   UNL     1       7.612  -1.783  21.321  0.00  0.00    +0.149 HD
ATOM     21  O   UNL     1       5.850  -3.376  21.359  0.00  0.00    -0.270 OA
BRANCH  19  22
ATOM     22  C   UNL     1       8.655  -1.983  23.157  0.00  0.00    +0.142 C 
BRANCH  22  23
ATOM     23  C   UNL     1       9.175  -0.580  23.120  0.00  0.00    +0.005 A 
ATOM     24  C   UNL     1       9.179   0.149  21.921  0.00  0.00    +0.011 A 
ATOM     25  C   UNL     1       9.782   1.406  21.872  0.00  0.00    +0.039 A 
ATOM     26  C   UNL     1      10.368   1.932  23.019  0.00  0.00    +0.126 A 
ATOM     27  F   UNL     1      10.963   3.130  22.963  0.00  0.00    -0.205 F 
ATOM     28  C   UNL     1      10.362   1.231  24.217  0.00  0.00    +0.077 A 
ATOM     29  C   UNL     1       9.764  -0.019  24.259  0.00  0.00    +0.131 A 
ATOM     30  F   UNL     1       9.800  -0.713  25.406  0.00  0.00    -0.205 F 
ENDBRANCH  22  23
ENDBRANCH  19  22
ENDBRANCH   9  18
BRANCH  12  31
ATOM     31  O   UNL     1       8.598  -5.955  26.010  0.00  0.00    -0.502 OA
ATOM     32  H   UNL     1       8.386  -6.844  26.374  0.00  0.00    +0.292 HD
ENDBRANCH  12  31
TORSDOF 4
ENDMDL
MODEL 5
REMARK VINA RESULT:      -8.0      2.966      6.977
REMARK  Name = 
REMARK  5 active torsions:
REMARK  status: ('A' for Active; 'I' for Inactive)
REMARK    1  A    between atoms: C_1  and  C_2
REMARK    2  A    between atoms: C_13  and  O_32
REMARK    3  A    between atoms: C_16  and  C_20
REMARK    4  A    between atoms: N_22  and  C_23
REMARK    5  A    between atoms: C_23  and  C_24
REMARK                            x       y       z     vdW  Elec       q    Type
REMARK                         _______ _______ _______ _____ _____    ______ ____
ROOT
ATOM      1  C   UNL     1       3.161  -7.324  26.211  0.00  0.00    +0.028 C 
ATOM      2  C   UNL     1       3.265  -5.913  25.610  0.00  0.00    +0.078 C 
ATOM      3  N   UNL     1       4.475  -5.656  24.821  0.00  0.00    -0.266 N 
ATOM      4  C   UNL     1       5.710  -5.800  25.439  0.00  0.00    +0.269 C 
ATOM      5  C   UNL     1       6.889  -5.088  24.818  0.00  0.00    +0.151 A 
ATOM      6  N   UNL     1       6.717  -4.273  23.687  0.00  0.00    -0.335 N 
ATOM      7  C   UNL     1       5.378  -4.095  23.108  0.00  0.00    +0.173 C 
ATOM      8  C   UNL     1       7.720  -3.350  23.392  0.00  0.00    +0.103 A 
ATOM      9  C   UNL     1       8.933  -3.326  23.968  0.00  0.00    +0.103 A 
ATOM     10  C   UNL     1       9.228  -4.462  24.873  0.00  0.00    +0.236 A 
ATOM     11  O   UNL     1      10.380  -4.792  25.140  0.00  0.00    -0.283 OA
ATOM     12  C   UNL     1       8.068  -5.193  25.471  0.00  0.00    +0.194 A 
ATOM     13  O   UNL     1       5.865  -6.401  26.504  0.00  0.00    -0.268 OA
ATOM     14  C   UNL     1       4.432  -5.276  23.410  0.00  0.00    +0.228 C 
ATOM     15  O   UNL     1       3.145  -4.832  22.986  0.00  0.00    -0.357 OA
ATOM     16  C   UNL     1       2.064  -5.629  23.412  0.00  0.00    +0.164 C 
ATOM     17  C   UNL     1       1.961  -5.535  24.913  0.00  0.00    +0.050 C 
ENDROOT
BRANCH   9  18
ATOM     18  C   UNL     1       9.862  -2.215  23.638  0.00  0.00    +0.250 C 
ATOM     19  N   UNL     1       9.843  -1.061  24.363  0.00  0.00    -0.307 N 
ATOM     20  H   UNL     1      10.555  -0.389  24.076  0.00  0.00    +0.149 HD
ATOM     21  O   UNL     1      10.600  -2.290  22.652  0.00  0.00    -0.270 OA
BRANCH  19  22
ATOM     22  C   UNL     1       9.137  -0.800  25.598  0.00  0.00    +0.142 C 
BRANCH  22  23
ATOM     23  C   UNL     1       7.894   0.021  25.444  0.00  0.00    +0.005 A 
ATOM     24  C   UNL     1       6.628  -0.574  25.542  0.00  0.00    +0.011 A 
ATOM     25  C   UNL     1       5.483   0.175  25.271  0.00  0.00    +0.039 A 
ATOM     26  C   UNL     1       5.607   1.514  24.913  0.00  0.00    +0.126 A 
ATOM     27  F   UNL     1       4.508   2.225  24.635  0.00  0.00    -0.205 F 
ATOM     28  C   UNL     1       6.851   2.123  24.824  0.00  0.00    +0.077 A 
ATOM     29  C   UNL     1       7.986   1.372  25.092  0.00  0.00    +0.131 A 
ATOM     30  F   UNL     1       9.188   1.951  24.960  0.00  0.00    -0.205 F 
ENDBRANCH  22  23
ENDBRANCH  19  22
ENDBRANCH   9  18
BRANCH  12  31
ATOM     31  O   UNL     1       8.302  -5.901  26.638  0.00  0.00    -0.502 OA
ATOM     32  H   UNL     1       7.435  -6.186  27.004  0.00  0.00    +0.292 HD
ENDBRANCH  12  31
TORSDOF 4
ENDMDL
MODEL 6
REMARK VINA RESULT:      -7.8      3.171      7.985
REMARK  Name = 
REMARK  5 active torsions:
REMARK  status: ('A' for Active; 'I' for Inactive)
REMARK    1  A    between atoms: C_1  and  C_2
REMARK    2  A    between atoms: C_13  and  O_32
REMARK    3  A    between atoms: C_16  and  C_20
REMARK    4  A    between atoms: N_22  and  C_23
REMARK    5  A    between atoms: C_23  and  C_24
REMARK                            x       y       z     vdW  Elec       q    Type
REMARK                         _______ _______ _______ _____ _____    ______ ____
ROOT
ATOM      1  C   UNL     1       1.360  -7.304  25.778  0.00  0.00    +0.028 C 
ATOM      2  C   UNL     1       2.567  -6.992  26.676  0.00  0.00    +0.078 C 
ATOM      3  N   UNL     1       3.463  -5.941  26.179  0.00  0.00    -0.266 N 
ATOM      4  C   UNL     1       4.061  -6.115  24.938  0.00  0.00    +0.269 C 
ATOM      5  C   UNL     1       5.313  -5.321  24.649  0.00  0.00    +0.151 A 
ATOM      6  N   UNL     1       5.867  -4.480  25.627  0.00  0.00    -0.335 N 
ATOM      7  C   UNL     1       5.237  -4.380  26.951  0.00  0.00    +0.173 C 
ATOM      8  C   UNL     1       7.195  -4.084  25.468  0.00  0.00    +0.103 A 
ATOM      9  C   UNL     1       7.919  -4.260  24.349  0.00  0.00    +0.103 A 
ATOM     10  C   UNL     1       7.169  -4.789  23.186  0.00  0.00    +0.236 A 
ATOM     11  O   UNL     1       7.562  -4.625  22.035  0.00  0.00    -0.283 OA
ATOM     12  C   UNL     1       5.912  -5.552  23.459  0.00  0.00    +0.194 A 
ATOM     13  O   UNL     1       3.671  -6.942  24.112  0.00  0.00    -0.268 OA
ATOM     14  C   UNL     1       3.732  -4.714  26.926  0.00  0.00    +0.228 C 
ATOM     15  O   UNL     1       3.352  -4.795  28.298  0.00  0.00    -0.357 OA
ATOM     16  C   UNL     1       2.083  -5.362  28.537  0.00  0.00    +0.164 C 
ATOM     17  C   UNL     1       2.120  -6.811  28.125  0.00  0.00    +0.050 C 
ENDROOT
BRANCH   9  18
ATOM     18  C   UNL     1       9.357  -3.891  24.360  0.00  0.00    +0.250 C 
ATOM     19  N   UNL     1       9.783  -2.757  23.734  0.00  0.00    -0.307 N 
ATOM     20  H   UNL     1      10.782  -2.581  23.847  0.00  0.00    +0.149 HD
ATOM     21  O   UNL     1      10.193  -4.648  24.860  0.00  0.00    -0.270 OA
BRANCH  19  22
ATOM     22  C   UNL     1       8.976  -1.693  23.178  0.00  0.00    +0.142 C 
BRANCH  22  23
ATOM     23  C   UNL     1       9.613  -0.339  23.222  0.00  0.00    +0.005 A 
ATOM     24  C   UNL     1      10.053   0.204  24.438  0.00  0.00    +0.011 A 
ATOM     25  C   UNL     1      10.528   1.514  24.485  0.00  0.00    +0.039 A 
ATOM     26  C   UNL     1      10.569   2.272  23.319  0.00  0.00    +0.126 A 
ATOM     27  F   UNL     1      11.006   3.536  23.371  0.00  0.00    -0.205 F 
ATOM     28  C   UNL     1      10.150   1.747  22.104  0.00  0.00    +0.077 A 
ATOM     29  C   UNL     1       9.677   0.444  22.065  0.00  0.00    +0.131 A 
ATOM     30  F   UNL     1       9.230  -0.044  20.898  0.00  0.00    -0.205 F 
ENDBRANCH  22  23
ENDBRANCH  19  22
ENDBRANCH   9  18
BRANCH  12  31
ATOM     31  O   UNL     1       5.480  -6.429  22.477  0.00  0.00    -0.502 OA
ATOM     32  H   UNL     1       6.038  -6.295  21.678  0.00  0.00    +0.292 HD
ENDBRANCH  12  31
TORSDOF 4
ENDMDL
MODEL 7
REMARK VINA RESULT:      -7.6      3.050      7.597
REMARK  Name = 
REMARK  5 active torsions:
REMARK  status: ('A' for Active; 'I' for Inactive)
REMARK    1  A    between atoms: C_1  and  C_2
REMARK    2  A    between atoms: C_13  and  O_32
REMARK    3  A    between atoms: C_16  and  C_20
REMARK    4  A    between atoms: N_22  and  C_23
REMARK    5  A    between atoms: C_23  and  C_24
REMARK                            x       y       z     vdW  Elec       q    Type
REMARK                         _______ _______ _______ _____ _____    ______ ____
ROOT
ATOM      1  C   UNL     1       2.976  -7.235  26.260  0.00  0.00    +0.028 C 
ATOM      2  C   UNL     1       3.089  -5.846  25.611  0.00  0.00    +0.078 C 
ATOM      3  N   UNL     1       4.298  -5.627  24.808  0.00  0.00    -0.266 N 
ATOM      4  C   UNL     1       5.535  -5.762  25.424  0.00  0.00    +0.269 C 
ATOM      5  C   UNL     1       6.717  -5.082  24.774  0.00  0.00    +0.151 A 
ATOM      6  N   UNL     1       6.547  -4.305  23.617  0.00  0.00    -0.335 N 
ATOM      7  C   UNL     1       5.206  -4.135  23.038  0.00  0.00    +0.173 C 
ATOM      8  C   UNL     1       7.557  -3.402  23.286  0.00  0.00    +0.103 A 
ATOM      9  C   UNL     1       8.773  -3.369  23.856  0.00  0.00    +0.103 A 
ATOM     10  C   UNL     1       9.061  -4.476  24.797  0.00  0.00    +0.236 A 
ATOM     11  O   UNL     1      10.212  -4.808  25.070  0.00  0.00    -0.283 OA
ATOM     12  C   UNL     1       7.898  -5.175  25.425  0.00  0.00    +0.194 A 
ATOM     13  O   UNL     1       5.689  -6.327  26.509  0.00  0.00    -0.268 OA
ATOM     14  C   UNL     1       4.252  -5.295  23.385  0.00  0.00    +0.228 C 
ATOM     15  O   UNL     1       2.967  -4.854  22.951  0.00  0.00    -0.357 OA
ATOM     16  C   UNL     1       1.880  -5.627  23.410  0.00  0.00    +0.164 C 
ATOM     17  C   UNL     1       1.785  -5.480  24.907  0.00  0.00    +0.050 C 
ENDROOT
BRANCH   9  18
ATOM     18  C   UNL     1       9.710  -2.279  23.483  0.00  0.00    +0.250 C 
ATOM     19  N   UNL     1       9.310  -0.977  23.539  0.00  0.00    -0.307 N 
ATOM     20  H   UNL     1      10.051  -0.314  23.306  0.00  0.00    +0.149 HD
ATOM     21  O   UNL     1      10.830  -2.542  23.038  0.00  0.00    -0.270 OA
BRANCH  19  22
ATOM     22  C   UNL     1       8.094  -0.445  24.113  0.00  0.00    +0.142 C 
BRANCH  22  23
ATOM     23  C   UNL     1       7.773   0.958  23.702  0.00  0.00    +0.005 A 
ATOM     24  C   UNL     1       6.701   1.222  22.838  0.00  0.00    +0.011 A 
ATOM     25  C   UNL     1       6.491   2.517  22.363  0.00  0.00    +0.039 A 
ATOM     26  C   UNL     1       7.346   3.542  22.760  0.00  0.00    +0.126 A 
ATOM     27  F   UNL     1       7.153   4.779  22.287  0.00  0.00    -0.205 F 
ATOM     28  C   UNL     1       8.404   3.301  23.625  0.00  0.00    +0.077 A 
ATOM     29  C   UNL     1       8.609   2.011  24.091  0.00  0.00    +0.131 A 
ATOM     30  F   UNL     1       9.660   1.774  24.889  0.00  0.00    -0.205 F 
ENDBRANCH  22  23
ENDBRANCH  19  22
ENDBRANCH   9  18
BRANCH  12  31
ATOM     31  O   UNL     1       8.132  -5.846  26.614  0.00  0.00    -0.502 OA
ATOM     32  H   UNL     1       7.608  -6.679  26.606  0.00  0.00    +0.292 HD
ENDBRANCH  12  31
TORSDOF 4
ENDMDL
MODEL 8
REMARK VINA RESULT:      -7.6      3.303      7.762
REMARK  Name = 
REMARK  5 active torsions:
REMARK  status: ('A' for Active; 'I' for Inactive)
REMARK    1  A    between atoms: C_1  and  C_2
REMARK    2  A    between atoms: C_13  and  O_32
REMARK    3  A    between atoms: C_16  and  C_20
REMARK    4  A    between atoms: N_22  and  C_23
REMARK    5  A    between atoms: C_23  and  C_24
REMARK                            x       y       z     vdW  Elec       q    Type
REMARK                         _______ _______ _______ _____ _____    ______ ____
ROOT
ATOM      1  C   UNL     1       0.516  -4.805  25.522  0.00  0.00    +0.028 C 
ATOM      2  C   UNL     1       1.449  -4.625  24.314  0.00  0.00    +0.078 C 
ATOM      3  N   UNL     1       2.823  -5.101  24.507  0.00  0.00    -0.266 N 
ATOM      4  C   UNL     1       3.575  -4.552  25.538  0.00  0.00    +0.269 C 
ATOM      5  C   UNL     1       5.078  -4.660  25.440  0.00  0.00    +0.151 A 
ATOM      6  N   UNL     1       5.681  -5.253  24.319  0.00  0.00    -0.335 N 
ATOM      7  C   UNL     1       4.846  -5.760  23.220  0.00  0.00    +0.173 C 
ATOM      8  C   UNL     1       7.031  -4.987  24.089  0.00  0.00    +0.103 A 
ATOM      9  C   UNL     1       7.855  -4.392  24.968  0.00  0.00    +0.103 A 
ATOM     10  C   UNL     1       7.279  -4.145  26.310  0.00  0.00    +0.236 A 
ATOM     11  O   UNL     1       7.990  -3.996  27.300  0.00  0.00    -0.283 OA
ATOM     12  C   UNL     1       5.790  -4.064  26.423  0.00  0.00    +0.194 A 
ATOM     13  O   UNL     1       3.078  -3.912  26.467  0.00  0.00    -0.268 OA
ATOM     14  C   UNL     1       3.423  -6.142  23.675  0.00  0.00    +0.228 C 
ATOM     15  O   UNL     1       2.705  -6.380  22.466  0.00  0.00    -0.357 OA
ATOM     16  C   UNL     1       1.305  -6.476  22.608  0.00  0.00    +0.164 C 
ATOM     17  C   UNL     1       0.775  -5.134  23.042  0.00  0.00    +0.050 C 
ENDROOT
BRANCH   9  18
ATOM     18  C   UNL     1       9.241  -4.069  24.544  0.00  0.00    +0.250 C 
ATOM     19  N   UNL     1       9.497  -2.942  23.823  0.00  0.00    -0.307 N 
ATOM     20  H   UNL     1      10.489  -2.799  23.629  0.00  0.00    +0.149 HD
ATOM     21  O   UNL     1      10.162  -4.859  24.766  0.00  0.00    -0.270 OA
BRANCH  19  22
ATOM     22  C   UNL     1       8.597  -1.845  23.539  0.00  0.00    +0.142 C 
BRANCH  22  23
ATOM     23  C   UNL     1       9.261  -0.509  23.420  0.00  0.00    +0.005 A 
ATOM     24  C   UNL     1       9.524   0.262  24.562  0.00  0.00    +0.011 A 
ATOM     25  C   UNL     1      10.026   1.556  24.429  0.00  0.00    +0.039 A 
ATOM     26  C   UNL     1      10.270   2.071  23.159  0.00  0.00    +0.126 A 
ATOM     27  F   UNL     1      10.733   3.321  23.034  0.00  0.00    -0.205 F 
ATOM     28  C   UNL     1      10.028   1.318  22.018  0.00  0.00    +0.077 A 
ATOM     29  C   UNL     1       9.527   0.033  22.158  0.00  0.00    +0.131 A 
ATOM     30  F   UNL     1       9.250  -0.674  21.052  0.00  0.00    -0.205 F 
ENDBRANCH  22  23
ENDBRANCH  19  22
ENDBRANCH   9  18
BRANCH  12  31
ATOM     31  O   UNL     1       5.276  -3.384  27.515  0.00  0.00    -0.502 OA
ATOM     32  H   UNL     1       5.992  -3.285  28.182  0.00  0.00    +0.292 HD
ENDBRANCH  12  31
TORSDOF 4
ENDMDL
MODEL 9
REMARK VINA RESULT:      -7.4      2.057      2.868
REMARK  Name = 
REMARK  5 active torsions:
REMARK  status: ('A' for Active; 'I' for Inactive)
REMARK    1  A    between atoms: C_1  and  C_2
REMARK    2  A    between atoms: C_13  and  O_32
REMARK    3  A    between atoms: C_16  and  C_20
REMARK    4  A    between atoms: N_22  and  C_23
REMARK    5  A    between atoms: C_23  and  C_24
REMARK                            x       y       z     vdW  Elec       q    Type
REMARK                         _______ _______ _______ _____ _____    ______ ____
ROOT
ATOM      1  C   UNL     1      10.067   2.048  22.536  0.00  0.00    +0.028 C 
ATOM      2  C   UNL     1       8.745   1.624  23.195  0.00  0.00    +0.078 C 
ATOM      3  N   UNL     1       8.865   0.597  24.236  0.00  0.00    -0.266 N 
ATOM      4  C   UNL     1       9.425  -0.627  23.896  0.00  0.00    +0.269 C 
ATOM      5  C   UNL     1       9.111  -1.809  24.783  0.00  0.00    +0.151 A 
ATOM      6  N   UNL     1       8.243  -1.670  25.878  0.00  0.00    -0.335 N 
ATOM      7  C   UNL     1       7.618  -0.370  26.158  0.00  0.00    +0.173 C 
ATOM      8  C   UNL     1       7.684  -2.830  26.416  0.00  0.00    +0.103 A 
ATOM      9  C   UNL     1       8.077  -4.080  26.117  0.00  0.00    +0.103 A 
ATOM     10  C   UNL     1       9.280  -4.178  25.258  0.00  0.00    +0.236 A 
ATOM     11  O   UNL     1       9.976  -5.189  25.235  0.00  0.00    -0.283 OA
ATOM     12  C   UNL     1       9.617  -3.002  24.398  0.00  0.00    +0.194 A 
ATOM     13  O   UNL     1      10.083  -0.805  22.869  0.00  0.00    -0.268 OA
ATOM     14  C   UNL     1       8.438   0.819  25.617  0.00  0.00    +0.228 C 
ATOM     15  O   UNL     1       7.585   1.951  25.768  0.00  0.00    -0.357 OA
ATOM     16  C   UNL     1       8.004   3.114  25.089  0.00  0.00    +0.164 C 
ATOM     17  C   UNL     1       7.938   2.853  23.606  0.00  0.00    +0.050 C 
ENDROOT
BRANCH   9  18
ATOM     18  C   UNL     1       7.316  -5.224  26.681  0.00  0.00    +0.250 C 
ATOM     19  N   UNL     1       6.242  -5.733  26.013  0.00  0.00    -0.307 N 
ATOM     20  H   UNL     1       5.827  -6.545  26.471  0.00  0.00    +0.149 HD
ATOM     21  O   UNL     1       7.594  -5.670  27.797  0.00  0.00    -0.270 OA
BRANCH  19  22
ATOM     22  C   UNL     1       5.807  -5.429  24.668  0.00  0.00    +0.142 C 
BRANCH  22  23
ATOM     23  C   UNL     1       4.420  -5.889  24.343  0.00  0.00    +0.005 A 
ATOM     24  C   UNL     1       3.964  -7.144  24.772  0.00  0.00    +0.011 A 
ATOM     25  C   UNL     1       2.717  -7.612  24.356  0.00  0.00    +0.039 A 
ATOM     26  C   UNL     1       1.930  -6.823  23.523  0.00  0.00    +0.126 A 
ATOM     27  F   UNL     1       0.743  -7.284  23.110  0.00  0.00    -0.205 F 
ATOM     28  C   UNL     1       2.359  -5.573  23.099  0.00  0.00    +0.077 A 
ATOM     29  C   UNL     1       3.600  -5.114  23.514  0.00  0.00    +0.131 A 
ATOM     30  F   UNL     1       4.031  -3.926  23.066  0.00  0.00    -0.205 F 
ENDBRANCH  22  23
ENDBRANCH  19  22
ENDBRANCH   9  18
BRANCH  12  31
ATOM     31  O   UNL     1      10.407  -3.240  23.285  0.00  0.00    -0.502 OA
ATOM     32  H   UNL     1      10.661  -4.191  23.285  0.00  0.00    +0.292 HD
ENDBRANCH  12  31
TORSDOF 4
ENDMDL
