MODEL 1
REMARK VINA RESULT:      -7.7      0.000      0.000
REMARK  Name = 
REMARK  7 active torsions:
REMARK  status: ('A' for Active; 'I' for Inactive)
REMARK    1  A    between atoms: C_1  and  O_2
REMARK    2  A    between atoms: O_2  and  C_3
REMARK    3  A    between atoms: C_3  and  O_5
REMARK    4  A    between atoms: O_5  and  C_6
REMARK    5  A    between atoms: C_6  and  O_7
REMARK    6  A    between atoms: O_7  and  C_8
REMARK    7  A    between atoms: N_18  and  C_24
REMARK                            x       y       z     vdW  Elec       q    Type
REMARK                         _______ _______ _______ _____ _____    ______ ____
ROOT
ATOM      1  C   UNL     1       8.837  -0.718  23.364  0.00  0.00    +0.201 A 
ATOM      2  C   UNL     1       9.877  -1.693  22.879  0.00  0.00    +0.224 A 
ATOM      3  O   UNL     1      10.523  -1.517  21.851  0.00  0.00    -0.284 OA
ATOM      4  C   UNL     1      10.163  -2.857  23.735  0.00  0.00    +0.074 A 
ATOM      5  C   UNL     1       9.290  -3.132  24.708  0.00  0.00    +0.113 A 
ATOM      6  N   UNL     1       8.091  -2.471  24.885  0.00  0.00    -0.260 N 
ATOM      7  N   UNL     1       7.180  -2.965  25.955  0.00  0.00    -0.236 N 
ATOM      8  C   UNL     1       6.626  -1.741  26.636  0.00  0.00    +0.206 C 
ATOM      9  N   UNL     1       5.996  -0.897  25.634  0.00  0.00    -0.272 N 
ATOM     10  C   UNL     1       4.732  -0.252  25.953  0.00  0.00    +0.138 C 
ATOM     11  C   UNL     1       3.764  -1.146  26.737  0.00  0.00    +0.179 C 
ATOM     12  O   UNL     1       4.370  -2.070  27.647  0.00  0.00    -0.375 OA
ATOM     13  C   UNL     1       6.807  -0.324  24.682  0.00  0.00    +0.270 C 
ATOM     14  O   UNL     1       6.557   0.775  24.197  0.00  0.00    -0.268 OA
ATOM     15  C   UNL     1       5.741  -1.779  27.915  0.00  0.00    +0.203 C 
ATOM     16  C   UNL     1       7.955  -1.199  24.278  0.00  0.00    +0.169 A 
ENDROOT
BRANCH   7  17
ATOM     17  C   UNL     1       6.116  -3.937  25.432  0.00  0.00    +0.155 C 
ATOM     18  C   UNL     1       6.378  -4.648  24.088  0.00  0.00    -0.008 A 
ATOM     19  C   UNL     1       5.303  -4.852  23.199  0.00  0.00    +0.014 A 
ATOM     20  C   UNL     1       5.506  -5.421  21.933  0.00  0.00    +0.015 A 
ATOM     21  C   UNL     1       6.778  -5.837  21.551  0.00  0.00    +0.001 A 
ATOM     22  C   UNL     1       7.821  -5.769  22.466  0.00  0.00    +0.000 A 
ATOM     23  S   UNL     1       3.618  -4.618  23.756  0.00  0.00    -0.120 S 
ATOM     24  C   UNL     1       3.625  -5.918  25.021  0.00  0.00    +0.112 C 
ATOM     25  C   UNL     1       4.424  -5.723  26.301  0.00  0.00    +0.006 A 
ATOM     26  C   UNL     1       3.955  -6.465  27.406  0.00  0.00    +0.163 A 
ATOM     27  F   UNL     1       2.800  -7.144  27.309  0.00  0.00    -0.202 F 
ATOM     28  C   UNL     1       4.663  -6.534  28.597  0.00  0.00    +0.159 A 
ATOM     29  F   UNL     1       4.146  -7.167  29.659  0.00  0.00    -0.202 F 
ATOM     30  C   UNL     1       5.927  -5.985  28.678  0.00  0.00    +0.041 A 
ATOM     31  C   UNL     1       6.447  -5.296  27.580  0.00  0.00    +0.009 A 
ATOM     32  C   UNL     1       7.604  -5.231  23.740  0.00  0.00    +0.007 A 
ATOM     33  C   UNL     1       5.658  -5.023  26.441  0.00  0.00    -0.014 A 
ENDBRANCH   7  17
BRANCH   1  34
ATOM     34  O   UNL     1       8.817   0.581  22.879  0.00  0.00    -0.450 OA
BRANCH  34  35
ATOM     35  C   UNL     1       9.914   1.402  23.298  0.00  0.00    +0.473 C 
BRANCH  35  36
ATOM     36  O   UNL     1       9.479   2.497  24.108  0.00  0.00    -0.397 OA
BRANCH  36  37
ATOM     37  C   UNL     1       9.985   3.694  23.733  0.00  0.00    +0.513 C 
ATOM     38  O   UNL     1       9.404   4.769  23.762  0.00  0.00    -0.203 OA
BRANCH  37  40
ATOM     39  C   UNL     1      12.066   4.694  23.360  0.00  0.00    +0.284 C 
ATOM     40  O   UNL     1      11.278   3.505  23.360  0.00  0.00    -0.437 OA
ENDBRANCH  37  40
ENDBRANCH  36  37
ENDBRANCH  35  36
ENDBRANCH  34  35
ENDBRANCH   1  34
TORSDOF 6
ENDMDL
MODEL 2
REMARK VINA RESULT:      -7.4      4.743      8.327
REMARK  Name = 
REMARK  7 active torsions:
REMARK  status: ('A' for Active; 'I' for Inactive)
REMARK    1  A    between atoms: C_1  and  O_2
REMARK    2  A    between atoms: O_2  and  C_3
REMARK    3  A    between atoms: C_3  and  O_5
REMARK    4  A    between atoms: O_5  and  C_6
REMARK    5  A    between atoms: C_6  and  O_7
REMARK    6  A    between atoms: O_7  and  C_8
REMARK    7  A    between atoms: N_18  and  C_24
REMARK                            x       y       z     vdW  Elec       q    Type
REMARK                         _______ _______ _______ _____ _____    ______ ____
ROOT
ATOM      1  C   UNL     1       8.531  -1.930  24.728  0.00  0.00    +0.201 A 
ATOM      2  C   UNL     1       8.636  -2.202  23.250  0.00  0.00    +0.224 A 
ATOM      3  O   UNL     1       9.502  -2.926  22.769  0.00  0.00    -0.284 OA
ATOM      4  C   UNL     1       7.597  -1.624  22.381  0.00  0.00    +0.074 A 
ATOM      5  C   UNL     1       6.824  -0.667  22.903  0.00  0.00    +0.113 A 
ATOM      6  N   UNL     1       7.012  -0.113  24.153  0.00  0.00    -0.260 N 
ATOM      7  N   UNL     1       6.126   1.018  24.548  0.00  0.00    -0.236 N 
ATOM      8  C   UNL     1       5.751   0.778  25.987  0.00  0.00    +0.206 C 
ATOM      9  N   UNL     1       6.970   0.649  26.770  0.00  0.00    -0.272 N 
ATOM     10  C   UNL     1       7.034   1.281  28.078  0.00  0.00    +0.138 C 
ATOM     11  C   UNL     1       6.387   2.670  28.125  0.00  0.00    +0.179 C 
ATOM     12  O   UNL     1       5.253   2.855  27.272  0.00  0.00    -0.375 OA
ATOM     13  C   UNL     1       7.774  -0.439  26.522  0.00  0.00    +0.270 C 
ATOM     14  O   UNL     1       8.439  -0.966  27.408  0.00  0.00    -0.268 OA
ATOM     15  C   UNL     1       4.716   1.631  26.774  0.00  0.00    +0.203 C 
ATOM     16  C   UNL     1       7.790  -0.848  25.079  0.00  0.00    +0.169 A 
ENDROOT
BRANCH   7  17
ATOM     17  C   UNL     1       6.752   2.391  24.276  0.00  0.00    +0.155 C 
ATOM     18  C   UNL     1       8.147   2.437  23.618  0.00  0.00    -0.008 A 
ATOM     19  C   UNL     1       9.072   3.415  24.038  0.00  0.00    +0.014 A 
ATOM     20  C   UNL     1      10.378   3.447  23.527  0.00  0.00    +0.015 A 
ATOM     21  C   UNL     1      10.768   2.531  22.554  0.00  0.00    +0.001 A 
ATOM     22  C   UNL     1       9.830   1.649  22.031  0.00  0.00    +0.000 A 
ATOM     23  S   UNL     1       8.531   4.790  25.049  0.00  0.00    -0.120 S 
ATOM     24  C   UNL     1       7.382   5.508  23.842  0.00  0.00    +0.112 C 
ATOM     25  C   UNL     1       6.074   4.797  23.528  0.00  0.00    +0.006 A 
ATOM     26  C   UNL     1       5.046   5.639  23.051  0.00  0.00    +0.163 A 
ATOM     27  F   UNL     1       5.225   6.971  23.051  0.00  0.00    -0.202 F 
ATOM     28  C   UNL     1       3.852   5.133  22.561  0.00  0.00    +0.159 A 
ATOM     29  F   UNL     1       2.859   5.960  22.205  0.00  0.00    -0.202 F 
ATOM     30  C   UNL     1       3.698   3.771  22.395  0.00  0.00    +0.041 A 
ATOM     31  C   UNL     1       4.722   2.912  22.800  0.00  0.00    +0.009 A 
ATOM     32  C   UNL     1       8.519   1.646  22.522  0.00  0.00    +0.007 A 
ATOM     33  C   UNL     1       5.850   3.390  23.504  0.00  0.00    -0.014 A 
ENDBRANCH   7  17
BRANCH   1  34
ATOM     34  O   UNL     1       9.167  -2.760  25.638  0.00  0.00    -0.450 OA
BRANCH  34  35
ATOM     35  C   UNL     1       8.627  -4.084  25.734  0.00  0.00    +0.473 C 
BRANCH  35  36
ATOM     36  O   UNL     1       8.272  -4.416  27.079  0.00  0.00    -0.397 OA
BRANCH  36  37
ATOM     37  C   UNL     1       7.360  -5.411  27.177  0.00  0.00    +0.513 C 
ATOM     38  O   UNL     1       7.171  -6.127  28.149  0.00  0.00    -0.203 OA
BRANCH  37  40
ATOM     39  C   UNL     1       5.445  -6.204  26.097  0.00  0.00    +0.284 C 
ATOM     40  O   UNL     1       6.651  -5.448  26.019  0.00  0.00    -0.437 OA
ENDBRANCH  37  40
ENDBRANCH  36  37
ENDBRANCH  35  36
ENDBRANCH  34  35
ENDBRANCH   1  34
TORSDOF 6
ENDMDL
MODEL 3
REMARK VINA RESULT:      -7.3      2.899      5.676
REMARK  Name = 
REMARK  7 active torsions:
REMARK  status: ('A' for Active; 'I' for Inactive)
REMARK    1  A    between atoms: C_1  and  O_2
REMARK    2  A    between atoms: O_2  and  C_3
REMARK    3  A    between atoms: C_3  and  O_5
REMARK    4  A    between atoms: O_5  and  C_6
REMARK    5  A    between atoms: C_6  and  O_7
REMARK    6  A    between atoms: O_7  and  C_8
REMARK    7  A    between atoms: N_18  and  C_24
REMARK                            x       y       z     vdW  Elec       q    Type
REMARK                         _______ _______ _______ _____ _____    ______ ____
ROOT
ATOM      1  C   UNL     1       8.280   3.618  24.366  0.00  0.00    +0.201 A 
ATOM      2  C   UNL     1       6.894   4.136  24.650  0.00  0.00    +0.224 A 
ATOM      3  O   UNL     1       6.687   5.144  25.319  0.00  0.00    -0.284 OA
ATOM      4  C   UNL     1       5.766   3.429  24.021  0.00  0.00    +0.074 A 
ATOM      5  C   UNL     1       6.012   2.221  23.503  0.00  0.00    +0.113 A 
ATOM      6  N   UNL     1       7.215   1.555  23.623  0.00  0.00    -0.260 N 
ATOM      7  N   UNL     1       7.297   0.171  23.078  0.00  0.00    -0.236 N 
ATOM      8  C   UNL     1       8.632   0.066  22.391  0.00  0.00    +0.206 C 
ATOM      9  N   UNL     1       9.674   0.414  23.343  0.00  0.00    -0.272 N 
ATOM     10  C   UNL     1      10.899  -0.370  23.361  0.00  0.00    +0.138 C 
ATOM     11  C   UNL     1      10.672  -1.875  23.183  0.00  0.00    +0.179 C 
ATOM     12  O   UNL     1       9.575  -2.241  22.339  0.00  0.00    -0.375 OA
ATOM     13  C   UNL     1       9.713   1.712  23.799  0.00  0.00    +0.270 C 
ATOM     14  O   UNL     1      10.771   2.261  24.093  0.00  0.00    -0.268 OA
ATOM     15  C   UNL     1       9.087  -1.160  21.548  0.00  0.00    +0.203 C 
ATOM     16  C   UNL     1       8.355   2.328  23.950  0.00  0.00    +0.169 A 
ENDROOT
BRANCH   7  17
ATOM     17  C   UNL     1       7.043  -0.905  24.141  0.00  0.00    +0.155 C 
ATOM     18  C   UNL     1       6.226  -0.516  25.390  0.00  0.00    -0.008 A 
ATOM     19  C   UNL     1       6.595  -1.045  26.644  0.00  0.00    +0.014 A 
ATOM     20  C   UNL     1       5.933  -0.659  27.818  0.00  0.00    +0.015 A 
ATOM     21  C   UNL     1       4.862   0.228  27.756  0.00  0.00    +0.001 A 
ATOM     22  C   UNL     1       4.399   0.651  26.516  0.00  0.00    +0.000 A 
ATOM     23  S   UNL     1       7.753  -2.407  26.739  0.00  0.00    -0.120 S 
ATOM     24  C   UNL     1       6.744  -3.614  25.835  0.00  0.00    +0.112 C 
ATOM     25  C   UNL     1       6.544  -3.459  24.335  0.00  0.00    +0.006 A 
ATOM     26  C   UNL     1       6.252  -4.660  23.653  0.00  0.00    +0.163 A 
ATOM     27  F   UNL     1       6.319  -5.830  24.311  0.00  0.00    -0.202 F 
ATOM     28  C   UNL     1       5.876  -4.672  22.318  0.00  0.00    +0.159 A 
ATOM     29  F   UNL     1       5.699  -5.834  21.674  0.00  0.00    -0.202 F 
ATOM     30  C   UNL     1       5.640  -3.483  21.659  0.00  0.00    +0.041 A 
ATOM     31  C   UNL     1       5.860  -2.275  22.325  0.00  0.00    +0.009 A 
ATOM     32  C   UNL     1       5.043   0.235  25.345  0.00  0.00    +0.007 A 
ATOM     33  C   UNL     1       6.453  -2.237  23.606  0.00  0.00    -0.014 A 
ENDBRANCH   7  17
BRANCH   1  34
ATOM     34  O   UNL     1       9.382   4.443  24.535  0.00  0.00    -0.450 OA
BRANCH  34  35
ATOM     35  C   UNL     1       9.596   5.391  23.482  0.00  0.00    +0.473 C 
BRANCH  35  36
ATOM     36  O   UNL     1      10.528   6.406  23.864  0.00  0.00    -0.397 OA
BRANCH  36  37
ATOM     37  C   UNL     1      11.799   5.963  24.001  0.00  0.00    +0.513 C 
ATOM     38  O   UNL     1      12.553   6.201  24.933  0.00  0.00    -0.203 OA
BRANCH  37  40
ATOM     39  C   UNL     1      13.204   5.586  22.171  0.00  0.00    +0.284 C 
ATOM     40  O   UNL     1      12.082   5.162  22.941  0.00  0.00    -0.437 OA
ENDBRANCH  37  40
ENDBRANCH  36  37
ENDBRANCH  35  36
ENDBRANCH  34  35
ENDBRANCH   1  34
TORSDOF 6
ENDMDL
MODEL 4
REMARK VINA RESULT:      -7.3      0.939      1.265
REMARK  Name = 
REMARK  7 active torsions:
REMARK  status: ('A' for Active; 'I' for Inactive)
REMARK    1  A    between atoms: C_1  and  O_2
REMARK    2  A    between atoms: O_2  and  C_3
REMARK    3  A    between atoms: C_3  and  O_5
REMARK    4  A    between atoms: O_5  and  C_6
REMARK    5  A    between atoms: C_6  and  O_7
REMARK    6  A    between atoms: O_7  and  C_8
REMARK    7  A    between atoms: N_18  and  C_24
REMARK                            x       y       z     vdW  Elec       q    Type
REMARK                         _______ _______ _______ _____ _____    ______ ____
ROOT
ATOM      1  C   UNL     1       8.435  -0.599  23.446  0.00  0.00    +0.201 A 
ATOM      2  C   UNL     1       9.521  -1.509  22.935  0.00  0.00    +0.224 A 
ATOM      3  O   UNL     1      10.144  -1.283  21.902  0.00  0.00    -0.284 OA
ATOM      4  C   UNL     1       9.881  -2.668  23.770  0.00  0.00    +0.074 A 
ATOM      5  C   UNL     1       9.036  -3.004  24.748  0.00  0.00    +0.113 A 
ATOM      6  N   UNL     1       7.806  -2.412  24.950  0.00  0.00    -0.260 N 
ATOM      7  N   UNL     1       6.936  -2.971  26.023  0.00  0.00    -0.236 N 
ATOM      8  C   UNL     1       6.324  -1.790  26.728  0.00  0.00    +0.206 C 
ATOM      9  N   UNL     1       5.637  -0.967  25.747  0.00  0.00    -0.272 N 
ATOM     10  C   UNL     1       4.343  -0.398  26.090  0.00  0.00    +0.138 C 
ATOM     11  C   UNL     1       3.436  -1.355  26.871  0.00  0.00    +0.179 C 
ATOM     12  O   UNL     1       4.103  -2.257  27.760  0.00  0.00    -0.375 OA
ATOM     13  C   UNL     1       6.404  -0.337  24.794  0.00  0.00    +0.270 C 
ATOM     14  O   UNL     1       6.087   0.754  24.328  0.00  0.00    -0.268 OA
ATOM     15  C   UNL     1       5.459  -1.895  28.017  0.00  0.00    +0.203 C 
ATOM     16  C   UNL     1       7.593  -1.142  24.363  0.00  0.00    +0.169 A 
ENDROOT
BRANCH   7  17
ATOM     17  C   UNL     1       5.921  -3.993  25.497  0.00  0.00    +0.155 C 
ATOM     18  C   UNL     1       6.230  -4.706  24.164  0.00  0.00    -0.008 A 
ATOM     19  C   UNL     1       5.175  -4.964  23.265  0.00  0.00    +0.014 A 
ATOM     20  C   UNL     1       5.417  -5.538  22.008  0.00  0.00    +0.015 A 
ATOM     21  C   UNL     1       6.710  -5.904  21.645  0.00  0.00    +0.001 A 
ATOM     22  C   UNL     1       7.739  -5.782  22.572  0.00  0.00    +0.000 A 
ATOM     23  S   UNL     1       3.475  -4.796  23.799  0.00  0.00    -0.120 S 
ATOM     24  C   UNL     1       3.521  -6.082  25.078  0.00  0.00    +0.112 C 
ATOM     25  C   UNL     1       4.295  -5.840  26.366  0.00  0.00    +0.006 A 
ATOM     26  C   UNL     1       3.844  -6.590  27.473  0.00  0.00    +0.163 A 
ATOM     27  F   UNL     1       2.720  -7.317  27.369  0.00  0.00    -0.202 F 
ATOM     28  C   UNL     1       4.539  -6.616  28.673  0.00  0.00    +0.159 A 
ATOM     29  F   UNL     1       4.036  -7.260  29.735  0.00  0.00    -0.202 F 
ATOM     30  C   UNL     1       5.779  -6.013  28.764  0.00  0.00    +0.041 A 
ATOM     31  C   UNL     1       6.282  -5.314  27.664  0.00  0.00    +0.009 A 
ATOM     32  C   UNL     1       7.484  -5.241  23.838  0.00  0.00    +0.007 A 
ATOM     33  C   UNL     1       5.497  -5.087  26.513  0.00  0.00    -0.014 A 
ENDBRANCH   7  17
BRANCH   1  34
ATOM     34  O   UNL     1       8.338   0.703  22.981  0.00  0.00    -0.450 OA
BRANCH  34  35
ATOM     35  C   UNL     1       9.312   1.610  23.511  0.00  0.00    +0.473 C 
BRANCH  35  36
ATOM     36  O   UNL     1       9.255   2.886  22.867  0.00  0.00    -0.397 OA
BRANCH  36  37
ATOM     37  C   UNL     1       8.041   3.481  22.931  0.00  0.00    +0.513 C 
ATOM     38  O   UNL     1       7.229   3.570  22.022  0.00  0.00    -0.203 OA
BRANCH  37  40
ATOM     39  C   UNL     1       6.506   4.261  24.512  0.00  0.00    +0.284 C 
ATOM     40  O   UNL     1       7.856   3.924  24.201  0.00  0.00    -0.437 OA
ENDBRANCH  37  40
ENDBRANCH  36  37
ENDBRANCH  35  36
ENDBRANCH  34  35
ENDBRANCH   1  34
TORSDOF 6
ENDMDL
MODEL 5
REMARK VINA RESULT:      -6.9      3.981      8.273
REMARK  Name = 
REMARK  7 active torsions:
REMARK  status: ('A' for Active; 'I' for Inactive)
REMARK    1  A    between atoms: C_1  and  O_2
REMARK    2  A    between atoms: O_2  and  C_3
REMARK    3  A    between atoms: C_3  and  O_5
REMARK    4  A    between atoms: O_5  and  C_6
REMARK    5  A    between atoms: C_6  and  O_7
REMARK    6  A    between atoms: O_7  and  C_8
REMARK    7  A    between atoms: N_18  and  C_24
REMARK                            x       y       z     vdW  Elec       q    Type
REMARK                         _______ _______ _______ _____ _____    ______ ____
ROOT
ATOM      1  C   UNL     1       3.300  -3.399  25.157  0.00  0.00    +0.201 A 
ATOM      2  C   UNL     1       2.687  -2.756  26.374  0.00  0.00    +0.224 A 
ATOM      3  O   UNL     1       1.482  -2.788  26.603  0.00  0.00    -0.284 OA
ATOM      4  C   UNL     1       3.603  -2.141  27.348  0.00  0.00    +0.074 A 
ATOM      5  C   UNL     1       4.861  -1.924  26.954  0.00  0.00    +0.113 A 
ATOM      6  N   UNL     1       5.319  -2.132  25.669  0.00  0.00    -0.260 N 
ATOM      7  N   UNL     1       6.725  -1.744  25.364  0.00  0.00    -0.236 N 
ATOM      8  C   UNL     1       7.288  -2.842  24.501  0.00  0.00    +0.206 C 
ATOM      9  N   UNL     1       6.430  -3.007  23.339  0.00  0.00    -0.272 N 
ATOM     10  C   UNL     1       7.044  -3.225  22.039  0.00  0.00    +0.138 C 
ATOM     11  C   UNL     1       8.294  -2.372  21.795  0.00  0.00    +0.179 C 
ATOM     12  O   UNL     1       9.094  -2.099  22.951  0.00  0.00    -0.375 OA
ATOM     13  C   UNL     1       5.152  -3.469  23.552  0.00  0.00    +0.270 C 
ATOM     14  O   UNL     1       4.572  -4.167  22.726  0.00  0.00    -0.268 OA
ATOM     15  C   UNL     1       8.778  -2.932  24.065  0.00  0.00    +0.203 C 
ATOM     16  C   UNL     1       4.551  -2.979  24.835  0.00  0.00    +0.169 A 
ENDROOT
BRANCH   7  17
ATOM     17  C   UNL     1       6.840  -0.339  24.759  0.00  0.00    +0.155 C 
ATOM     18  C   UNL     1       5.867   0.749  25.258  0.00  0.00    -0.008 A 
ATOM     19  C   UNL     1       5.349   1.681  24.335  0.00  0.00    +0.014 A 
ATOM     20  C   UNL     1       4.402   2.640  24.726  0.00  0.00    +0.015 A 
ATOM     21  C   UNL     1       3.990   2.712  26.053  0.00  0.00    +0.001 A 
ATOM     22  C   UNL     1       4.591   1.892  27.000  0.00  0.00    +0.000 A 
ATOM     23  S   UNL     1       6.068   1.826  22.702  0.00  0.00    -0.120 S 
ATOM     24  C   UNL     1       7.721   2.345  23.238  0.00  0.00    +0.112 C 
ATOM     25  C   UNL     1       8.646   1.344  23.915  0.00  0.00    +0.006 A 
ATOM     26  C   UNL     1      10.021   1.636  23.792  0.00  0.00    +0.163 A 
ATOM     27  F   UNL     1      10.417   2.642  22.994  0.00  0.00    -0.202 F 
ATOM     28  C   UNL     1      10.987   0.925  24.488  0.00  0.00    +0.159 A 
ATOM     29  F   UNL     1      12.289   1.162  24.276  0.00  0.00    -0.202 F 
ATOM     30  C   UNL     1      10.607  -0.003  25.437  0.00  0.00    +0.041 A 
ATOM     31  C   UNL     1       9.250  -0.272  25.628  0.00  0.00    +0.009 A 
ATOM     32  C   UNL     1       5.561   0.961  26.609  0.00  0.00    +0.007 A 
ATOM     33  C   UNL     1       8.264   0.276  24.778  0.00  0.00    -0.014 A 
ENDBRANCH   7  17
BRANCH   1  34
ATOM     34  O   UNL     1       2.595  -4.353  24.441  0.00  0.00    -0.450 OA
BRANCH  34  35
ATOM     35  C   UNL     1       2.553  -5.653  25.041  0.00  0.00    +0.473 C 
BRANCH  35  36
ATOM     36  O   UNL     1       3.620  -5.842  25.975  0.00  0.00    -0.397 OA
BRANCH  36  37
ATOM     37  C   UNL     1       4.562  -6.721  25.565  0.00  0.00    +0.513 C 
ATOM     38  O   UNL     1       4.567  -7.338  24.510  0.00  0.00    -0.203 OA
BRANCH  37  40
ATOM     39  C   UNL     1       6.408  -5.640  26.508  0.00  0.00    +0.284 C 
ATOM     40  O   UNL     1       5.535  -6.767  26.512  0.00  0.00    -0.437 OA
ENDBRANCH  37  40
ENDBRANCH  36  37
ENDBRANCH  35  36
ENDBRANCH  34  35
ENDBRANCH   1  34
TORSDOF 6
ENDMDL
MODEL 6
REMARK VINA RESULT:      -6.9      2.399      4.979
REMARK  Name = 
REMARK  7 active torsions:
REMARK  status: ('A' for Active; 'I' for Inactive)
REMARK    1  A    between atoms: C_1  and  O_2
REMARK    2  A    between atoms: O_2  and  C_3
REMARK    3  A    between atoms: C_3  and  O_5
REMARK    4  A    between atoms: O_5  and  C_6
REMARK    5  A    between atoms: C_6  and  O_7
REMARK    6  A    between atoms: O_7  and  C_8
REMARK    7  A    between atoms: N_18  and  C_24
REMARK                            x       y       z     vdW  Elec       q    Type
REMARK                         _______ _______ _______ _____ _____    ______ ____
ROOT
ATOM      1  C   UNL     1       7.903  -0.904  26.065  0.00  0.00    +0.201 A 
ATOM      2  C   UNL     1       7.068  -0.079  27.009  0.00  0.00    +0.224 A 
ATOM      3  O   UNL     1       7.557   0.608  27.900  0.00  0.00    -0.284 OA
ATOM      4  C   UNL     1       5.614  -0.055  26.779  0.00  0.00    +0.074 A 
ATOM      5  C   UNL     1       5.106  -0.984  25.964  0.00  0.00    +0.113 A 
ATOM      6  N   UNL     1       5.835  -2.022  25.421  0.00  0.00    -0.260 N 
ATOM      7  N   UNL     1       5.100  -3.036  24.613  0.00  0.00    -0.236 N 
ATOM      8  C   UNL     1       5.971  -3.338  23.422  0.00  0.00    +0.206 C 
ATOM      9  N   UNL     1       7.278  -3.761  23.897  0.00  0.00    -0.272 N 
ATOM     10  C   UNL     1       7.942  -4.871  23.231  0.00  0.00    +0.138 C 
ATOM     11  C   UNL     1       6.997  -6.016  22.850  0.00  0.00    +0.179 C 
ATOM     12  O   UNL     1       5.666  -5.630  22.490  0.00  0.00    -0.375 OA
ATOM     13  C   UNL     1       8.048  -2.832  24.557  0.00  0.00    +0.270 C 
ATOM     14  O   UNL     1       9.273  -2.841  24.488  0.00  0.00    -0.268 OA
ATOM     15  C   UNL     1       5.536  -4.234  22.227  0.00  0.00    +0.203 C 
ATOM     16  C   UNL     1       7.243  -1.882  25.393  0.00  0.00    +0.169 A 
ENDROOT
BRANCH   7  17
ATOM     17  C   UNL     1       4.690  -4.268  25.429  0.00  0.00    +0.155 C 
ATOM     18  C   UNL     1       4.406  -4.082  26.933  0.00  0.00    -0.008 A 
ATOM     19  C   UNL     1       4.811  -5.086  27.837  0.00  0.00    +0.014 A 
ATOM     20  C   UNL     1       4.646  -4.927  29.221  0.00  0.00    +0.015 A 
ATOM     21  C   UNL     1       4.033  -3.783  29.723  0.00  0.00    +0.001 A 
ATOM     22  C   UNL     1       3.506  -2.848  28.840  0.00  0.00    +0.000 A 
ATOM     23  S   UNL     1       5.319  -6.691  27.229  0.00  0.00    -0.120 S 
ATOM     24  C   UNL     1       3.736  -7.148  26.471  0.00  0.00    +0.112 C 
ATOM     25  C   UNL     1       3.275  -6.448  25.202  0.00  0.00    +0.006 A 
ATOM     26  C   UNL     1       2.382  -7.198  24.407  0.00  0.00    +0.163 A 
ATOM     27  F   UNL     1       2.126  -8.478  24.723  0.00  0.00    -0.202 F 
ATOM     28  C   UNL     1       1.737  -6.647  23.310  0.00  0.00    +0.159 A 
ATOM     29  F   UNL     1       0.969  -7.410  22.519  0.00  0.00    -0.202 F 
ATOM     30  C   UNL     1       1.849  -5.295  23.053  0.00  0.00    +0.041 A 
ATOM     31  C   UNL     1       2.678  -4.511  23.859  0.00  0.00    +0.009 A 
ATOM     32  C   UNL     1       3.644  -3.030  27.459  0.00  0.00    +0.007 A 
ATOM     33  C   UNL     1       3.514  -5.090  24.839  0.00  0.00    -0.014 A 
ENDBRANCH   7  17
BRANCH   1  34
ATOM     34  O   UNL     1       9.258  -0.646  25.925  0.00  0.00    -0.450 OA
BRANCH  34  35
ATOM     35  C   UNL     1       9.577   0.535  25.179  0.00  0.00    +0.473 C 
BRANCH  35  36
ATOM     36  O   UNL     1      10.370   0.237  24.027  0.00  0.00    -0.397 OA
BRANCH  36  37
ATOM     37  C   UNL     1       9.847   0.694  22.866  0.00  0.00    +0.513 C 
ATOM     38  O   UNL     1      10.194   1.697  22.260  0.00  0.00    -0.203 OA
BRANCH  37  40
ATOM     39  C   UNL     1       9.344  -1.125  21.485  0.00  0.00    +0.284 C 
ATOM     40  O   UNL     1       8.895  -0.184  22.458  0.00  0.00    -0.437 OA
ENDBRANCH  37  40
ENDBRANCH  36  37
ENDBRANCH  35  36
ENDBRANCH  34  35
ENDBRANCH   1  34
TORSDOF 6
ENDMDL
MODEL 7
REMARK VINA RESULT:      -6.9      3.339      6.490
REMARK  Name = 
REMARK  7 active torsions:
REMARK  status: ('A' for Active; 'I' for Inactive)
REMARK    1  A    between atoms: C_1  and  O_2
REMARK    2  A    between atoms: O_2  and  C_3
REMARK    3  A    between atoms: C_3  and  O_5
REMARK    4  A    between atoms: O_5  and  C_6
REMARK    5  A    between atoms: C_6  and  O_7
REMARK    6  A    between atoms: O_7  and  C_8
REMARK    7  A    between atoms: N_18  and  C_24
REMARK                            x       y       z     vdW  Elec       q    Type
REMARK                         _______ _______ _______ _____ _____    ______ ____
ROOT
ATOM      1  C   UNL     1       7.813   5.063  23.001  0.00  0.00    +0.201 A 
ATOM      2  C   UNL     1       6.353   5.392  22.831  0.00  0.00    +0.224 A 
ATOM      3  O   UNL     1       5.902   6.518  23.015  0.00  0.00    -0.284 OA
ATOM      4  C   UNL     1       5.469   4.317  22.349  0.00  0.00    +0.074 A 
ATOM      5  C   UNL     1       5.946   3.070  22.387  0.00  0.00    +0.113 A 
ATOM      6  N   UNL     1       7.155   2.716  22.950  0.00  0.00    -0.260 N 
ATOM      7  N   UNL     1       7.497   1.267  23.004  0.00  0.00    -0.236 N 
ATOM      8  C   UNL     1       8.954   1.163  22.639  0.00  0.00    +0.206 C 
ATOM      9  N   UNL     1       9.720   2.009  23.540  0.00  0.00    -0.272 N 
ATOM     10  C   UNL     1      10.986   1.515  24.059  0.00  0.00    +0.138 C 
ATOM     11  C   UNL     1      10.959   0.031  24.442  0.00  0.00    +0.179 C 
ATOM     12  O   UNL     1      10.118  -0.802  23.639  0.00  0.00    -0.375 OA
ATOM     13  C   UNL     1       9.525   3.368  23.457  0.00  0.00    +0.270 C 
ATOM     14  O   UNL     1      10.430   4.165  23.684  0.00  0.00    -0.268 OA
ATOM     15  C   UNL     1       9.706  -0.182  22.422  0.00  0.00    +0.203 C 
ATOM     16  C   UNL     1       8.110   3.745  23.134  0.00  0.00    +0.169 A 
ENDROOT
BRANCH   7  17
ATOM     17  C   UNL     1       7.129   0.616  24.343  0.00  0.00    +0.155 C 
ATOM     18  C   UNL     1       6.089   1.325  25.235  0.00  0.00    -0.008 A 
ATOM     19  C   UNL     1       6.270   1.322  26.634  0.00  0.00    +0.014 A 
ATOM     20  C   UNL     1       5.395   2.020  27.480  0.00  0.00    +0.015 A 
ATOM     21  C   UNL     1       4.300   2.695  26.948  0.00  0.00    +0.001 A 
ATOM     22  C   UNL     1       4.031   2.594  25.589  0.00  0.00    +0.000 A 
ATOM     23  S   UNL     1       7.472   0.228  27.383  0.00  0.00    -0.120 S 
ATOM     24  C   UNL     1       6.705  -1.330  26.859  0.00  0.00    +0.112 C 
ATOM     25  C   UNL     1       6.755  -1.742  25.395  0.00  0.00    +0.006 A 
ATOM     26  C   UNL     1       6.654  -3.132  25.172  0.00  0.00    +0.163 A 
ATOM     27  F   UNL     1       6.677  -3.976  26.217  0.00  0.00    -0.202 F 
ATOM     28  C   UNL     1       6.514  -3.661  23.898  0.00  0.00    +0.159 A 
ATOM     29  F   UNL     1       6.518  -4.988  23.709  0.00  0.00    -0.202 F 
ATOM     30  C   UNL     1       6.324  -2.819  22.820  0.00  0.00    +0.041 A 
ATOM     31  C   UNL     1       6.356  -1.437  23.017  0.00  0.00    +0.009 A 
ATOM     32  C   UNL     1       4.889   1.867  24.755  0.00  0.00    +0.007 A 
ATOM     33  C   UNL     1       6.718  -0.878  24.262  0.00  0.00    -0.014 A 
ENDBRANCH   7  17
BRANCH   1  34
ATOM     34  O   UNL     1       8.761   6.075  23.015  0.00  0.00    -0.450 OA
BRANCH  34  35
ATOM     35  C   UNL     1       8.583   7.058  24.042  0.00  0.00    +0.473 C 
BRANCH  35  36
ATOM     36  O   UNL     1       9.581   6.949  25.060  0.00  0.00    -0.397 OA
BRANCH  36  37
ATOM     37  C   UNL     1       9.087   6.657  26.286  0.00  0.00    +0.513 C 
ATOM     38  O   UNL     1       9.692   6.725  27.346  0.00  0.00    -0.203 OA
BRANCH  37  40
ATOM     39  C   UNL     1       7.439   5.051  26.698  0.00  0.00    +0.284 C 
ATOM     40  O   UNL     1       7.779   6.320  26.143  0.00  0.00    -0.437 OA
ENDBRANCH  37  40
ENDBRANCH  36  37
ENDBRANCH  35  36
ENDBRANCH  34  35
ENDBRANCH   1  34
TORSDOF 6
ENDMDL
MODEL 8
REMARK VINA RESULT:      -6.6      4.639      8.871
REMARK  Name = 
REMARK  7 active torsions:
REMARK  status: ('A' for Active; 'I' for Inactive)
REMARK    1  A    between atoms: C_1  and  O_2
REMARK    2  A    between atoms: O_2  and  C_3
REMARK    3  A    between atoms: C_3  and  O_5
REMARK    4  A    between atoms: O_5  and  C_6
REMARK    5  A    between atoms: C_6  and  O_7
REMARK    6  A    between atoms: O_7  and  C_8
REMARK    7  A    between atoms: N_18  and  C_24
REMARK                            x       y       z     vdW  Elec       q    Type
REMARK                         _______ _______ _______ _____ _____    ______ ____
ROOT
ATOM      1  C   UNL     1       5.405  -1.909  25.872  0.00  0.00    +0.201 A 
ATOM      2  C   UNL     1       4.589  -1.475  27.062  0.00  0.00    +0.224 A 
ATOM      3  O   UNL     1       3.622  -2.110  27.470  0.00  0.00    -0.284 OA
ATOM      4  C   UNL     1       5.042  -0.279  27.792  0.00  0.00    +0.074 A 
ATOM      5  C   UNL     1       5.942   0.503  27.188  0.00  0.00    +0.113 A 
ATOM      6  N   UNL     1       6.382   0.324  25.892  0.00  0.00    -0.260 N 
ATOM      7  N   UNL     1       7.312   1.343  25.330  0.00  0.00    -0.236 N 
ATOM      8  C   UNL     1       8.357   0.581  24.559  0.00  0.00    +0.206 C 
ATOM      9  N   UNL     1       7.692  -0.254  23.573  0.00  0.00    -0.272 N 
ATOM     10  C   UNL     1       8.265  -0.359  22.241  0.00  0.00    +0.138 C 
ATOM     11  C   UNL     1       8.807   0.967  21.695  0.00  0.00    +0.179 C 
ATOM     12  O   UNL     1       9.363   1.857  22.668  0.00  0.00    -0.375 OA
ATOM     13  C   UNL     1       6.904  -1.283  24.036  0.00  0.00    +0.270 C 
ATOM     14  O   UNL     1       6.782  -2.333  23.414  0.00  0.00    -0.268 OA
ATOM     15  C   UNL     1       9.620   1.231  23.924  0.00  0.00    +0.203 C 
ATOM     16  C   UNL     1       6.188  -0.952  25.311  0.00  0.00    +0.169 A 
ENDROOT
BRANCH   7  17
ATOM     17  C   UNL     1       6.591   2.428  24.520  0.00  0.00    +0.155 C 
ATOM     18  C   UNL     1       5.151   2.804  24.928  0.00  0.00    -0.008 A 
ATOM     19  C   UNL     1       4.206   3.091  23.921  0.00  0.00    +0.014 A 
ATOM     20  C   UNL     1       2.867   3.361  24.239  0.00  0.00    +0.015 A 
ATOM     21  C   UNL     1       2.458   3.392  25.570  0.00  0.00    +0.001 A 
ATOM     22  C   UNL     1       3.404   3.247  26.577  0.00  0.00    +0.000 A 
ATOM     23  S   UNL     1       4.742   3.362  22.235  0.00  0.00    -0.120 S 
ATOM     24  C   UNL     1       5.756   4.830  22.562  0.00  0.00    +0.112 C 
ATOM     25  C   UNL     1       7.076   4.686  23.306  0.00  0.00    +0.006 A 
ATOM     26  C   UNL     1       8.016   5.703  23.038  0.00  0.00    +0.163 A 
ATOM     27  F   UNL     1       7.763   6.605  22.074  0.00  0.00    -0.202 F 
ATOM     28  C   UNL     1       9.198   5.817  23.754  0.00  0.00    +0.159 A 
ATOM     29  F   UNL     1      10.114   6.734  23.413  0.00  0.00    -0.202 F 
ATOM     30  C   UNL     1       9.416   5.011  24.855  0.00  0.00    +0.041 A 
ATOM     31  C   UNL     1       8.474   4.034  25.185  0.00  0.00    +0.009 A 
ATOM     32  C   UNL     1       4.745   3.012  26.253  0.00  0.00    +0.007 A 
ATOM     33  C   UNL     1       7.376   3.754  24.342  0.00  0.00    -0.014 A 
ENDBRANCH   7  17
BRANCH   1  34
ATOM     34  O   UNL     1       5.329  -3.215  25.412  0.00  0.00    -0.450 OA
BRANCH  34  35
ATOM     35  C   UNL     1       5.797  -4.210  26.330  0.00  0.00    +0.473 C 
BRANCH  35  36
ATOM     36  O   UNL     1       6.958  -4.884  25.836  0.00  0.00    -0.397 OA
BRANCH  36  37
ATOM     37  C   UNL     1       7.825  -5.266  26.801  0.00  0.00    +0.513 C 
ATOM     38  O   UNL     1       7.568  -5.964  27.771  0.00  0.00    -0.203 OA
BRANCH  37  40
ATOM     39  C   UNL     1       9.186  -4.378  25.120  0.00  0.00    +0.284 C 
ATOM     40  O   UNL     1       9.052  -4.778  26.482  0.00  0.00    -0.437 OA
ENDBRANCH  37  40
ENDBRANCH  36  37
ENDBRANCH  35  36
ENDBRANCH  34  35
ENDBRANCH   1  34
TORSDOF 6
ENDMDL
MODEL 9
REMARK VINA RESULT:      -6.5      1.794      2.632
REMARK  Name = 
REMARK  7 active torsions:
REMARK  status: ('A' for Active; 'I' for Inactive)
REMARK    1  A    between atoms: C_1  and  O_2
REMARK    2  A    between atoms: O_2  and  C_3
REMARK    3  A    between atoms: C_3  and  O_5
REMARK    4  A    between atoms: O_5  and  C_6
REMARK    5  A    between atoms: C_6  and  O_7
REMARK    6  A    between atoms: O_7  and  C_8
REMARK    7  A    between atoms: N_18  and  C_24
REMARK                            x       y       z     vdW  Elec       q    Type
REMARK                         _______ _______ _______ _____ _____    ______ ____
ROOT
ATOM      1  C   UNL     1       8.251  -2.457  25.447  0.00  0.00    +0.201 A 
ATOM      2  C   UNL     1       9.023  -3.742  25.292  0.00  0.00    +0.224 A 
ATOM      3  O   UNL     1       9.922  -3.879  24.468  0.00  0.00    -0.284 OA
ATOM      4  C   UNL     1       8.718  -4.832  26.233  0.00  0.00    +0.074 A 
ATOM      5  C   UNL     1       7.593  -4.728  26.947  0.00  0.00    +0.113 A 
ATOM      6  N   UNL     1       6.654  -3.732  26.775  0.00  0.00    -0.260 N 
ATOM      7  N   UNL     1       5.402  -3.815  27.580  0.00  0.00    -0.236 N 
ATOM      8  C   UNL     1       5.107  -2.413  28.045  0.00  0.00    +0.206 C 
ATOM      9  N   UNL     1       5.033  -1.543  26.883  0.00  0.00    -0.272 N 
ATOM     10  C   UNL     1       3.993  -0.528  26.830  0.00  0.00    +0.138 C 
ATOM     11  C   UNL     1       2.636  -1.007  27.358  0.00  0.00    +0.179 C 
ATOM     12  O   UNL     1       2.686  -1.955  28.429  0.00  0.00    -0.375 OA
ATOM     13  C   UNL     1       6.188  -1.343  26.162  0.00  0.00    +0.270 C 
ATOM     14  O   UNL     1       6.416  -0.283  25.589  0.00  0.00    -0.268 OA
ATOM     15  C   UNL     1       3.971  -2.046  29.043  0.00  0.00    +0.203 C 
ATOM     16  C   UNL     1       7.070  -2.554  26.110  0.00  0.00    +0.169 A 
ENDROOT
BRANCH   7  17
ATOM     17  C   UNL     1       4.251  -4.491  26.827  0.00  0.00    +0.155 C 
ATOM     18  C   UNL     1       4.490  -4.920  25.365  0.00  0.00    -0.008 A 
ATOM     19  C   UNL     1       3.448  -4.772  24.427  0.00  0.00    +0.014 A 
ATOM     20  C   UNL     1       3.644  -5.074  23.071  0.00  0.00    +0.015 A 
ATOM     21  C   UNL     1       4.869  -5.571  22.637  0.00  0.00    +0.001 A 
ATOM     22  C   UNL     1       5.861  -5.851  23.569  0.00  0.00    +0.000 A 
ATOM     23  S   UNL     1       1.780  -4.432  24.981  0.00  0.00    -0.120 S 
ATOM     24  C   UNL     1       1.547  -5.964  25.923  0.00  0.00    +0.112 C 
ATOM     25  C   UNL     1       2.293  -6.167  27.233  0.00  0.00    +0.006 A 
ATOM     26  C   UNL     1       1.671  -7.060  28.132  0.00  0.00    +0.163 A 
ATOM     27  F   UNL     1       0.444  -7.532  27.857  0.00  0.00    -0.202 F 
ATOM     28  C   UNL     1       2.297  -7.485  29.294  0.00  0.00    +0.159 A 
ATOM     29  F   UNL     1       1.644  -8.256  30.175  0.00  0.00    -0.202 F 
ATOM     30  C   UNL     1       3.617  -7.150  29.527  0.00  0.00    +0.041 A 
ATOM     31  C   UNL     1       4.281  -6.318  28.624  0.00  0.00    +0.009 A 
ATOM     32  C   UNL     1       5.647  -5.579  24.925  0.00  0.00    +0.007 A 
ATOM     33  C   UNL     1       3.599  -5.695  27.556  0.00  0.00    -0.014 A 
ENDBRANCH   7  17
BRANCH   1  34
ATOM     34  O   UNL     1       8.753  -1.273  24.929  0.00  0.00    -0.450 OA
BRANCH  34  35
ATOM     35  C   UNL     1       8.871  -1.237  23.502  0.00  0.00    +0.473 C 
BRANCH  35  36
ATOM     36  O   UNL     1      10.178  -0.830  23.087  0.00  0.00    -0.397 OA
BRANCH  36  37
ATOM     37  C   UNL     1      10.528   0.407  23.506  0.00  0.00    +0.513 C 
ATOM     38  O   UNL     1      11.210   0.675  24.484  0.00  0.00    -0.203 OA
BRANCH  37  40
ATOM     39  C   UNL     1       9.385   2.428  23.227  0.00  0.00    +0.284 C 
ATOM     40  O   UNL     1      10.027   1.308  22.621  0.00  0.00    -0.437 OA
ENDBRANCH  37  40
ENDBRANCH  36  37
ENDBRANCH  35  36
ENDBRANCH  34  35
ENDBRANCH   1  34
TORSDOF 6
ENDMDL
