MODEL 1
REMARK VINA RESULT:      -6.6      0.000      0.000
REMARK  Name = 
REMARK  13 active torsions:
REMARK  status: ('A' for Active; 'I' for Inactive)
REMARK    1  A    between atoms: C_1  and  C_2
REMARK    2  A    between atoms: C_2  and  C_3
REMARK    3  A    between atoms: C_2  and  C_4
REMARK    4  A    between atoms: C_4  and  C_6
REMARK    5  A    between atoms: C_4  and  N_27
REMARK    6  A    between atoms: C_6  and  O_8
REMARK    7  A    between atoms: O_8  and  C_9
REMARK    8  A    between atoms: C_9  and  C_10
REMARK    9  A    between atoms: C_10  and  C_12
REMARK   10  A    between atoms: C_10  and  O_14
REMARK   11  A    between atoms: C_12  and  O_13
REMARK   12  A    between atoms: O_14  and  C_15
REMARK   13  A    between atoms: C_15  and  N_16
REMARK                            x       y       z     vdW  Elec       q    Type
REMARK                         _______ _______ _______ _____ _____    ______ ____
ROOT
ATOM      1  O   UNL     1       7.077  -1.377  22.762  0.00  0.00    -0.350 OA
ENDROOT
BRANCH   1   2
ATOM      2  C   UNL     1       8.383  -0.783  22.925  0.00  0.00    +0.183 C 
BRANCH   2   3
ATOM      3  C   UNL     1       8.751  -0.530  24.395  0.00  0.00    +0.266 C 
BRANCH   3   4
ATOM      4  O   UNL     1       9.038   0.867  24.598  0.00  0.00    -0.461 OA
BRANCH   4   5
ATOM      5  C   UNL     1      10.240   1.302  24.130  0.00  0.00    +0.324 C 
ATOM      6  O   UNL     1      11.313   0.745  24.334  0.00  0.00    -0.249 OA
BRANCH   5   7
ATOM      7  C   UNL     1      10.075   2.564  23.261  0.00  0.00    +0.163 C 
BRANCH   7   9
ATOM      8  C   UNL     1       8.989   4.667  24.204  0.00  0.00    +0.009 C 
ATOM      9  C   UNL     1       8.742   3.275  23.605  0.00  0.00    +0.010 C 
ATOM     10  C   UNL     1       7.821   3.429  22.388  0.00  0.00    +0.009 C 
ENDBRANCH   7   9
BRANCH   7  11
ATOM     11  N   UNL     1      10.146   2.138  21.844  0.00  0.00    -0.318 NA
ATOM     12  H   UNL     1       9.678   1.232  21.756  0.00  0.00    +0.119 HD
ATOM     13  H   UNL     1       9.644   2.787  21.244  0.00  0.00    +0.119 HD
ENDBRANCH   7  11
ENDBRANCH   5   7
ENDBRANCH   4   5
ENDBRANCH   3   4
ENDBRANCH   2   3
BRANCH   2  14
ATOM     14  C   UNL     1       9.400  -1.740  22.284  0.00  0.00    +0.190 C 
BRANCH  14  15
ATOM     15  O   UNL     1      10.376  -2.122  23.253  0.00  0.00    -0.392 OA
ATOM     16  H   UNL     1      10.814  -2.915  22.891  0.00  0.00    +0.210 HD
ENDBRANCH  14  15
ENDBRANCH   2  14
ENDBRANCH   1   2
BRANCH   1  17
ATOM     17  C   UNL     1       7.132  -2.772  22.454  0.00  0.00    +0.288 C 
BRANCH  17  18
ATOM     18  N   UNL     1       6.574  -3.541  23.550  0.00  0.00    -0.291 N 
ATOM     19  C   UNL     1       7.296  -4.284  24.442  0.00  0.00    +0.171 A 
ATOM     20  N   UNL     1       8.640  -4.457  24.455  0.00  0.00    -0.196 NA
ATOM     21  C   UNL     1       9.053  -5.204  25.447  0.00  0.00    +0.195 A 
ATOM     22  N   UNL     1      10.376  -5.464  25.600  0.00  0.00    -0.329 N 
ATOM     23  H   UNL     1      10.640  -6.336  26.036  0.00  0.00    +0.145 HD
ATOM     24  H   UNL     1      10.926  -5.239  24.777  0.00  0.00    +0.145 HD
ATOM     25  N   UNL     1       8.212  -5.775  26.381  0.00  0.00    -0.293 N 
ATOM     26  H   UNL     1       8.589  -6.311  27.144  0.00  0.00    +0.172 HD
ATOM     27  C   UNL     1       6.833  -5.616  26.405  0.00  0.00    +0.280 A 
ATOM     28  O   UNL     1       6.138  -6.135  27.272  0.00  0.00    -0.265 OA
ATOM     29  C   UNL     1       6.361  -4.786  25.319  0.00  0.00    +0.172 A 
ATOM     30  N   UNL     1       5.094  -4.371  24.997  0.00  0.00    -0.229 NA
ATOM     31  C   UNL     1       5.260  -3.616  23.928  0.00  0.00    +0.203 A 
ENDBRANCH  17  18
ENDBRANCH   1  17
TORSDOF 11
ENDMDL
MODEL 2
REMARK VINA RESULT:      -6.3      2.275      3.188
REMARK  Name = 
REMARK  13 active torsions:
REMARK  status: ('A' for Active; 'I' for Inactive)
REMARK    1  A    between atoms: C_1  and  C_2
REMARK    2  A    between atoms: C_2  and  C_3
REMARK    3  A    between atoms: C_2  and  C_4
REMARK    4  A    between atoms: C_4  and  C_6
REMARK    5  A    between atoms: C_4  and  N_27
REMARK    6  A    between atoms: C_6  and  O_8
REMARK    7  A    between atoms: O_8  and  C_9
REMARK    8  A    between atoms: C_9  and  C_10
REMARK    9  A    between atoms: C_10  and  C_12
REMARK   10  A    between atoms: C_10  and  O_14
REMARK   11  A    between atoms: C_12  and  O_13
REMARK   12  A    between atoms: O_14  and  C_15
REMARK   13  A    between atoms: C_15  and  N_16
REMARK                            x       y       z     vdW  Elec       q    Type
REMARK                         _______ _______ _______ _____ _____    ______ ____
ROOT
ATOM      1  O   UNL     1       5.307  -2.997  23.569  0.00  0.00    -0.350 OA
ENDROOT
BRANCH   1   2
ATOM      2  C   UNL     1       5.995  -2.706  22.334  0.00  0.00    +0.183 C 
BRANCH   2   3
ATOM      3  C   UNL     1       7.231  -1.814  22.527  0.00  0.00    +0.266 C 
BRANCH   3   4
ATOM      4  O   UNL     1       8.426  -2.619  22.525  0.00  0.00    -0.461 OA
BRANCH   4   5
ATOM      5  C   UNL     1       9.342  -2.326  23.488  0.00  0.00    +0.324 C 
ATOM      6  O   UNL     1      10.179  -3.111  23.919  0.00  0.00    -0.249 OA
BRANCH   5   7
ATOM      7  C   UNL     1       9.227  -0.856  23.936  0.00  0.00    +0.163 C 
BRANCH   7   9
ATOM      8  C   UNL     1       9.956   0.734  22.084  0.00  0.00    +0.009 C 
ATOM      9  C   UNL     1      10.394  -0.027  23.343  0.00  0.00    +0.010 C 
ATOM     10  C   UNL     1      10.972   0.982  24.342  0.00  0.00    +0.009 C 
ENDBRANCH   7   9
BRANCH   7  11
ATOM     11  N   UNL     1       9.213  -0.844  25.417  0.00  0.00    -0.318 NA
ATOM     12  H   UNL     1       8.958   0.096  25.730  0.00  0.00    +0.119 HD
ATOM     13  H   UNL     1       8.504  -1.477  25.778  0.00  0.00    +0.119 HD
ENDBRANCH   7  11
ENDBRANCH   5   7
ENDBRANCH   4   5
ENDBRANCH   3   4
ENDBRANCH   2   3
BRANCH   2  14
ATOM     14  C   UNL     1       6.406  -4.050  21.716  0.00  0.00    +0.190 C 
BRANCH  14  15
ATOM     15  O   UNL     1       5.778  -4.206  20.444  0.00  0.00    -0.392 OA
ATOM     16  H   UNL     1       5.189  -4.979  20.530  0.00  0.00    +0.210 HD
ENDBRANCH  14  15
ENDBRANCH   2  14
ENDBRANCH   1   2
BRANCH   1  17
ATOM     17  C   UNL     1       4.838  -4.345  23.643  0.00  0.00    +0.288 C 
BRANCH  17  18
ATOM     18  N   UNL     1       4.978  -4.842  24.998  0.00  0.00    -0.291 N 
ATOM     19  C   UNL     1       6.160  -5.178  25.599  0.00  0.00    +0.171 A 
ATOM     20  N   UNL     1       7.395  -5.132  25.043  0.00  0.00    -0.196 NA
ATOM     21  C   UNL     1       8.345  -5.490  25.869  0.00  0.00    +0.195 A 
ATOM     22  N   UNL     1       9.639  -5.490  25.461  0.00  0.00    -0.329 N 
ATOM     23  H   UNL     1      10.272  -6.149  25.893  0.00  0.00    +0.145 HD
ATOM     24  H   UNL     1       9.741  -5.430  24.453  0.00  0.00    +0.145 HD
ATOM     25  N   UNL     1       8.120  -5.890  27.171  0.00  0.00    -0.293 N 
ATOM     26  H   UNL     1       8.893  -6.119  27.773  0.00  0.00    +0.172 HD
ATOM     27  C   UNL     1       6.872  -5.943  27.778  0.00  0.00    +0.280 A 
ATOM     28  O   UNL     1       6.737  -6.290  28.947  0.00  0.00    -0.265 OA
ATOM     29  C   UNL     1       5.812  -5.543  26.880  0.00  0.00    +0.172 A 
ATOM     30  N   UNL     1       4.460  -5.436  27.085  0.00  0.00    -0.229 NA
ATOM     31  C   UNL     1       3.988  -5.005  25.931  0.00  0.00    +0.203 A 
ENDBRANCH  17  18
ENDBRANCH   1  17
TORSDOF 11
ENDMDL
MODEL 3
REMARK VINA RESULT:      -6.2      2.397      3.763
REMARK  Name = 
REMARK  13 active torsions:
REMARK  status: ('A' for Active; 'I' for Inactive)
REMARK    1  A    between atoms: C_1  and  C_2
REMARK    2  A    between atoms: C_2  and  C_3
REMARK    3  A    between atoms: C_2  and  C_4
REMARK    4  A    between atoms: C_4  and  C_6
REMARK    5  A    between atoms: C_4  and  N_27
REMARK    6  A    between atoms: C_6  and  O_8
REMARK    7  A    between atoms: O_8  and  C_9
REMARK    8  A    between atoms: C_9  and  C_10
REMARK    9  A    between atoms: C_10  and  C_12
REMARK   10  A    between atoms: C_10  and  O_14
REMARK   11  A    between atoms: C_12  and  O_13
REMARK   12  A    between atoms: O_14  and  C_15
REMARK   13  A    between atoms: C_15  and  N_16
REMARK                            x       y       z     vdW  Elec       q    Type
REMARK                         _______ _______ _______ _____ _____    ______ ____
ROOT
ATOM      1  O   UNL     1       7.586  -2.753  26.807  0.00  0.00    -0.350 OA
ENDROOT
BRANCH   1   2
ATOM      2  C   UNL     1       7.907  -1.715  25.856  0.00  0.00    +0.183 C 
BRANCH   2   3
ATOM      3  C   UNL     1       6.814  -1.508  24.797  0.00  0.00    +0.266 C 
BRANCH   3   4
ATOM      4  O   UNL     1       7.361  -0.831  23.648  0.00  0.00    -0.461 OA
BRANCH   4   5
ATOM      5  C   UNL     1       8.110  -1.596  22.807  0.00  0.00    +0.324 C 
ATOM      6  O   UNL     1       7.670  -2.499  22.105  0.00  0.00    -0.249 OA
BRANCH   5   7
ATOM      7  C   UNL     1       9.584  -1.144  22.809  0.00  0.00    +0.163 C 
BRANCH   7   9
ATOM      8  C   UNL     1      10.806   0.620  24.180  0.00  0.00    +0.009 C 
ATOM      9  C   UNL     1       9.678   0.359  23.173  0.00  0.00    +0.010 C 
ATOM     10  C   UNL     1       9.907   1.252  21.947  0.00  0.00    +0.009 C 
ENDBRANCH   7   9
BRANCH   7  11
ATOM     11  N   UNL     1      10.140  -1.444  21.470  0.00  0.00    -0.318 NA
ATOM     12  H   UNL     1      10.779  -0.688  21.209  0.00  0.00    +0.119 HD
ATOM     13  H   UNL     1      10.689  -2.299  21.487  0.00  0.00    +0.119 HD
ENDBRANCH   7  11
ENDBRANCH   5   7
ENDBRANCH   4   5
ENDBRANCH   3   4
ENDBRANCH   2   3
BRANCH   2  14
ATOM     14  C   UNL     1       8.121  -0.419  26.653  0.00  0.00    +0.190 C 
BRANCH  14  15
ATOM     15  O   UNL     1       9.221  -0.583  27.548  0.00  0.00    -0.392 OA
ATOM     16  H   UNL     1       9.666  -1.407  27.276  0.00  0.00    +0.210 HD
ENDBRANCH  14  15
ENDBRANCH   2  14
ENDBRANCH   1   2
BRANCH   1  17
ATOM     17  C   UNL     1       8.077  -4.038  26.418  0.00  0.00    +0.288 C 
BRANCH  17  18
ATOM     18  N   UNL     1       6.981  -4.985  26.356  0.00  0.00    -0.291 N 
ATOM     19  C   UNL     1       6.351  -5.391  25.212  0.00  0.00    +0.171 A 
ATOM     20  N   UNL     1       6.612  -4.974  23.949  0.00  0.00    -0.196 NA
ATOM     21  C   UNL     1       5.862  -5.558  23.049  0.00  0.00    +0.195 A 
ATOM     22  N   UNL     1       6.010  -5.251  21.736  0.00  0.00    -0.329 N 
ATOM     23  H   UNL     1       5.201  -5.331  21.136  0.00  0.00    +0.145 HD
ATOM     24  H   UNL     1       6.546  -4.403  21.581  0.00  0.00    +0.145 HD
ATOM     25  N   UNL     1       4.891  -6.492  23.347  0.00  0.00    -0.293 N 
ATOM     26  H   UNL     1       4.369  -6.936  22.610  0.00  0.00    +0.172 HD
ATOM     27  C   UNL     1       4.599  -6.950  24.625  0.00  0.00    +0.280 A 
ATOM     28  O   UNL     1       3.735  -7.797  24.826  0.00  0.00    -0.265 OA
ATOM     29  C   UNL     1       5.425  -6.320  25.631  0.00  0.00    +0.172 A 
ATOM     30  N   UNL     1       5.471  -6.499  26.990  0.00  0.00    -0.229 NA
ATOM     31  C   UNL     1       6.425  -5.683  27.395  0.00  0.00    +0.203 A 
ENDBRANCH  17  18
ENDBRANCH   1  17
TORSDOF 11
ENDMDL
MODEL 4
REMARK VINA RESULT:      -6.1      1.484      1.757
REMARK  Name = 
REMARK  13 active torsions:
REMARK  status: ('A' for Active; 'I' for Inactive)
REMARK    1  A    between atoms: C_1  and  C_2
REMARK    2  A    between atoms: C_2  and  C_3
REMARK    3  A    between atoms: C_2  and  C_4
REMARK    4  A    between atoms: C_4  and  C_6
REMARK    5  A    between atoms: C_4  and  N_27
REMARK    6  A    between atoms: C_6  and  O_8
REMARK    7  A    between atoms: O_8  and  C_9
REMARK    8  A    between atoms: C_9  and  C_10
REMARK    9  A    between atoms: C_10  and  C_12
REMARK   10  A    between atoms: C_10  and  O_14
REMARK   11  A    between atoms: C_12  and  O_13
REMARK   12  A    between atoms: O_14  and  C_15
REMARK   13  A    between atoms: C_15  and  N_16
REMARK                            x       y       z     vdW  Elec       q    Type
REMARK                         _______ _______ _______ _____ _____    ______ ____
ROOT
ATOM      1  O   UNL     1       6.596  -0.994  23.889  0.00  0.00    -0.350 OA
ENDROOT
BRANCH   1   2
ATOM      2  C   UNL     1       7.419  -1.359  22.759  0.00  0.00    +0.183 C 
BRANCH   2   3
ATOM      3  C   UNL     1       8.918  -1.390  23.090  0.00  0.00    +0.266 C 
BRANCH   3   4
ATOM      4  O   UNL     1       9.565  -0.213  22.567  0.00  0.00    -0.461 OA
BRANCH   4   5
ATOM      5  C   UNL     1      10.241   0.546  23.471  0.00  0.00    +0.324 C 
ATOM      6  O   UNL     1      10.775   0.116  24.486  0.00  0.00    -0.249 OA
BRANCH   5   7
ATOM      7  C   UNL     1      10.296   2.022  23.027  0.00  0.00    +0.163 C 
BRANCH   7   9
ATOM      8  C   UNL     1       9.774   4.389  23.809  0.00  0.00    +0.009 C 
ATOM      9  C   UNL     1       9.456   2.898  23.990  0.00  0.00    +0.010 C 
ATOM     10  C   UNL     1       7.946   2.699  23.808  0.00  0.00    +0.009 C 
ENDBRANCH   7   9
BRANCH   7  11
ATOM     11  N   UNL     1       9.809   2.081  21.630  0.00  0.00    -0.318 NA
ATOM     12  H   UNL     1       9.003   2.711  21.595  0.00  0.00    +0.119 HD
ATOM     13  H   UNL     1      10.516   2.476  21.015  0.00  0.00    +0.119 HD
ENDBRANCH   7  11
ENDBRANCH   5   7
ENDBRANCH   4   5
ENDBRANCH   3   4
ENDBRANCH   2   3
BRANCH   2  14
ATOM     14  C   UNL     1       6.954  -2.745  22.288  0.00  0.00    +0.190 C 
BRANCH  14  15
ATOM     15  O   UNL     1       7.869  -3.740  22.745  0.00  0.00    -0.392 OA
ATOM     16  H   UNL     1       7.900  -3.647  23.715  0.00  0.00    +0.210 HD
ENDBRANCH  14  15
ENDBRANCH   2  14
ENDBRANCH   1   2
BRANCH   1  17
ATOM     17  C   UNL     1       7.289  -1.083  25.136  0.00  0.00    +0.288 C 
BRANCH  17  18
ATOM     18  N   UNL     1       6.778  -2.201  25.905  0.00  0.00    -0.291 N 
ATOM     19  C   UNL     1       7.434  -3.382  26.116  0.00  0.00    +0.171 A 
ATOM     20  N   UNL     1       8.652  -3.731  25.636  0.00  0.00    -0.196 NA
ATOM     21  C   UNL     1       9.038  -4.920  26.026  0.00  0.00    +0.195 A 
ATOM     22  N   UNL     1      10.241  -5.409  25.633  0.00  0.00    -0.329 N 
ATOM     23  H   UNL     1      10.339  -6.410  25.544  0.00  0.00    +0.145 HD
ATOM     24  H   UNL     1      10.652  -4.891  24.863  0.00  0.00    +0.145 HD
ATOM     25  N   UNL     1       8.281  -5.747  26.831  0.00  0.00    -0.293 N 
ATOM     26  H   UNL     1       8.644  -6.637  27.129  0.00  0.00    +0.172 HD
ATOM     27  C   UNL     1       7.034  -5.423  27.347  0.00  0.00    +0.280 A 
ATOM     28  O   UNL     1       6.415  -6.195  28.073  0.00  0.00    -0.265 OA
ATOM     29  C   UNL     1       6.596  -4.109  26.932  0.00  0.00    +0.172 A 
ATOM     30  N   UNL     1       5.454  -3.411  27.231  0.00  0.00    -0.229 NA
ATOM     31  C   UNL     1       5.599  -2.262  26.600  0.00  0.00    +0.203 A 
ENDBRANCH  17  18
ENDBRANCH   1  17
TORSDOF 11
ENDMDL
MODEL 5
REMARK VINA RESULT:      -6.1      1.287      2.336
REMARK  Name = 
REMARK  13 active torsions:
REMARK  status: ('A' for Active; 'I' for Inactive)
REMARK    1  A    between atoms: C_1  and  C_2
REMARK    2  A    between atoms: C_2  and  C_3
REMARK    3  A    between atoms: C_2  and  C_4
REMARK    4  A    between atoms: C_4  and  C_6
REMARK    5  A    between atoms: C_4  and  N_27
REMARK    6  A    between atoms: C_6  and  O_8
REMARK    7  A    between atoms: O_8  and  C_9
REMARK    8  A    between atoms: C_9  and  C_10
REMARK    9  A    between atoms: C_10  and  C_12
REMARK   10  A    between atoms: C_10  and  O_14
REMARK   11  A    between atoms: C_12  and  O_13
REMARK   12  A    between atoms: O_14  and  C_15
REMARK   13  A    between atoms: C_15  and  N_16
REMARK                            x       y       z     vdW  Elec       q    Type
REMARK                         _______ _______ _______ _____ _____    ______ ____
ROOT
ATOM      1  O   UNL     1       7.647  -2.719  23.453  0.00  0.00    -0.350 OA
ENDROOT
BRANCH   1   2
ATOM      2  C   UNL     1       8.275  -1.479  23.061  0.00  0.00    +0.183 C 
BRANCH   2   3
ATOM      3  C   UNL     1       9.275  -0.954  24.102  0.00  0.00    +0.266 C 
BRANCH   3   4
ATOM      4  O   UNL     1       9.213   0.485  24.165  0.00  0.00    -0.461 OA
BRANCH   4   5
ATOM      5  C   UNL     1      10.400   1.138  24.029  0.00  0.00    +0.324 C 
ATOM      6  O   UNL     1      11.456   0.785  24.540  0.00  0.00    -0.249 OA
BRANCH   5   7
ATOM      7  C   UNL     1      10.258   2.359  23.099  0.00  0.00    +0.163 C 
BRANCH   7   9
ATOM      8  C   UNL     1       9.650   4.689  23.932  0.00  0.00    +0.009 C 
ATOM      9  C   UNL     1       9.123   3.284  23.606  0.00  0.00    +0.010 C 
ATOM     10  C   UNL     1       7.974   3.419  22.599  0.00  0.00    +0.009 C 
ENDBRANCH   7   9
BRANCH   7  11
ATOM     11  N   UNL     1      10.010   1.848  21.731  0.00  0.00    -0.318 NA
ATOM     12  H   UNL     1       9.014   1.956  21.522  0.00  0.00    +0.119 HD
ATOM     13  H   UNL     1      10.516   2.396  21.041  0.00  0.00    +0.119 HD
ENDBRANCH   7  11
ENDBRANCH   5   7
ENDBRANCH   4   5
ENDBRANCH   3   4
ENDBRANCH   2   3
BRANCH   2  14
ATOM     14  C   UNL     1       8.989  -1.734  21.725  0.00  0.00    +0.190 C 
BRANCH  14  15
ATOM     15  O   UNL     1      10.378  -1.431  21.857  0.00  0.00    -0.392 OA
ATOM     16  H   UNL     1      10.816  -1.854  21.096  0.00  0.00    +0.210 HD
ENDBRANCH  14  15
ENDBRANCH   2  14
ENDBRANCH   1   2
BRANCH   1  17
ATOM     17  C   UNL     1       8.569  -3.662  24.003  0.00  0.00    +0.288 C 
BRANCH  17  18
ATOM     18  N   UNL     1       7.975  -4.321  25.150  0.00  0.00    -0.291 N 
ATOM     19  C   UNL     1       6.865  -5.120  25.115  0.00  0.00    +0.171 A 
ATOM     20  N   UNL     1       6.115  -5.421  24.028  0.00  0.00    -0.196 NA
ATOM     21  C   UNL     1       5.125  -6.234  24.296  0.00  0.00    +0.195 A 
ATOM     22  N   UNL     1       4.286  -6.635  23.307  0.00  0.00    -0.329 N 
ATOM     23  H   UNL     1       3.333  -6.860  23.557  0.00  0.00    +0.145 HD
ATOM     24  H   UNL     1       4.362  -6.074  22.465  0.00  0.00    +0.145 HD
ATOM     25  N   UNL     1       4.855  -6.727  25.556  0.00  0.00    -0.293 N 
ATOM     26  H   UNL     1       4.101  -7.379  25.696  0.00  0.00    +0.172 HD
ATOM     27  C   UNL     1       5.603  -6.448  26.692  0.00  0.00    +0.280 A 
ATOM     28  O   UNL     1       5.324  -6.931  27.784  0.00  0.00    -0.265 OA
ATOM     29  C   UNL     1       6.707  -5.557  26.412  0.00  0.00    +0.172 A 
ATOM     30  N   UNL     1       7.683  -5.057  27.235  0.00  0.00    -0.229 NA
ATOM     31  C   UNL     1       8.435  -4.320  26.440  0.00  0.00    +0.203 A 
ENDBRANCH  17  18
ENDBRANCH   1  17
TORSDOF 11
ENDMDL
MODEL 6
REMARK VINA RESULT:      -6.1      1.436      1.655
REMARK  Name = 
REMARK  13 active torsions:
REMARK  status: ('A' for Active; 'I' for Inactive)
REMARK    1  A    between atoms: C_1  and  C_2
REMARK    2  A    between atoms: C_2  and  C_3
REMARK    3  A    between atoms: C_2  and  C_4
REMARK    4  A    between atoms: C_4  and  C_6
REMARK    5  A    between atoms: C_4  and  N_27
REMARK    6  A    between atoms: C_6  and  O_8
REMARK    7  A    between atoms: O_8  and  C_9
REMARK    8  A    between atoms: C_9  and  C_10
REMARK    9  A    between atoms: C_10  and  C_12
REMARK   10  A    between atoms: C_10  and  O_14
REMARK   11  A    between atoms: C_12  and  O_13
REMARK   12  A    between atoms: O_14  and  C_15
REMARK   13  A    between atoms: C_15  and  N_16
REMARK                            x       y       z     vdW  Elec       q    Type
REMARK                         _______ _______ _______ _____ _____    ______ ____
ROOT
ATOM      1  O   UNL     1       7.728  -2.131  23.656  0.00  0.00    -0.350 OA
ENDROOT
BRANCH   1   2
ATOM      2  C   UNL     1       8.785  -1.167  23.456  0.00  0.00    +0.183 C 
BRANCH   2   3
ATOM      3  C   UNL     1       9.249  -0.502  24.761  0.00  0.00    +0.266 C 
BRANCH   3   4
ATOM      4  O   UNL     1       9.274   0.930  24.604  0.00  0.00    -0.461 OA
BRANCH   4   5
ATOM      5  C   UNL     1      10.414   1.450  24.071  0.00  0.00    +0.324 C 
ATOM      6  O   UNL     1      11.548   1.077  24.345  0.00  0.00    -0.249 OA
BRANCH   5   7
ATOM      7  C   UNL     1      10.093   2.543  23.032  0.00  0.00    +0.163 C 
BRANCH   7   9
ATOM      8  C   UNL     1       9.016   4.727  23.779  0.00  0.00    +0.009 C 
ATOM      9  C   UNL     1       8.770   3.259  23.405  0.00  0.00    +0.010 C 
ATOM     10  C   UNL     1       7.733   3.214  22.276  0.00  0.00    +0.009 C 
ENDBRANCH   7   9
BRANCH   7  11
ATOM     11  N   UNL     1      10.033   1.888  21.705  0.00  0.00    -0.318 NA
ATOM     12  H   UNL     1       9.566   2.523  21.052  0.00  0.00    +0.119 HD
ATOM     13  H   UNL     1      10.967   1.724  21.339  0.00  0.00    +0.119 HD
ENDBRANCH   7  11
ENDBRANCH   5   7
ENDBRANCH   4   5
ENDBRANCH   3   4
ENDBRANCH   2   3
BRANCH   2  14
ATOM     14  C   UNL     1       9.956  -1.908  22.796  0.00  0.00    +0.190 C 
BRANCH  14  15
ATOM     15  O   UNL     1      10.227  -1.335  21.517  0.00  0.00    -0.392 OA
ATOM     16  H   UNL     1      11.199  -1.276  21.452  0.00  0.00    +0.210 HD
ENDBRANCH  14  15
ENDBRANCH   2  14
ENDBRANCH   1   2
BRANCH   1  17
ATOM     17  C   UNL     1       7.845  -3.272  22.803  0.00  0.00    +0.288 C 
BRANCH  17  18
ATOM     18  N   UNL     1       6.731  -4.172  23.030  0.00  0.00    -0.291 N 
ATOM     19  C   UNL     1       6.526  -4.906  24.165  0.00  0.00    +0.171 A 
ATOM     20  N   UNL     1       7.322  -4.946  25.261  0.00  0.00    -0.196 NA
ATOM     21  C   UNL     1       6.856  -5.722  26.207  0.00  0.00    +0.195 A 
ATOM     22  N   UNL     1       7.538  -5.861  27.372  0.00  0.00    -0.329 N 
ATOM     23  H   UNL     1       7.447  -6.733  27.873  0.00  0.00    +0.145 HD
ATOM     24  H   UNL     1       8.494  -5.522  27.319  0.00  0.00    +0.145 HD
ATOM     25  N   UNL     1       5.683  -6.441  26.103  0.00  0.00    -0.293 N 
ATOM     26  H   UNL     1       5.354  -6.993  26.877  0.00  0.00    +0.172 HD
ATOM     27  C   UNL     1       4.838  -6.420  25.001  0.00  0.00    +0.280 A 
ATOM     28  O   UNL     1       3.797  -7.069  24.974  0.00  0.00    -0.265 OA
ATOM     29  C   UNL     1       5.334  -5.562  23.950  0.00  0.00    +0.172 A 
ATOM     30  N   UNL     1       4.802  -5.250  22.724  0.00  0.00    -0.229 NA
ATOM     31  C   UNL     1       5.667  -4.405  22.198  0.00  0.00    +0.203 A 
ENDBRANCH  17  18
ENDBRANCH   1  17
TORSDOF 11
ENDMDL
MODEL 7
REMARK VINA RESULT:      -6.0      2.553      8.296
REMARK  Name = 
REMARK  13 active torsions:
REMARK  status: ('A' for Active; 'I' for Inactive)
REMARK    1  A    between atoms: C_1  and  C_2
REMARK    2  A    between atoms: C_2  and  C_3
REMARK    3  A    between atoms: C_2  and  C_4
REMARK    4  A    between atoms: C_4  and  C_6
REMARK    5  A    between atoms: C_4  and  N_27
REMARK    6  A    between atoms: C_6  and  O_8
REMARK    7  A    between atoms: O_8  and  C_9
REMARK    8  A    between atoms: C_9  and  C_10
REMARK    9  A    between atoms: C_10  and  C_12
REMARK   10  A    between atoms: C_10  and  O_14
REMARK   11  A    between atoms: C_12  and  O_13
REMARK   12  A    between atoms: O_14  and  C_15
REMARK   13  A    between atoms: C_15  and  N_16
REMARK                            x       y       z     vdW  Elec       q    Type
REMARK                         _______ _______ _______ _____ _____    ______ ____
ROOT
ATOM      1  O   UNL     1       9.868   0.045  24.633  0.00  0.00    -0.350 OA
ENDROOT
BRANCH   1   2
ATOM      2  C   UNL     1       9.765  -1.147  23.825  0.00  0.00    +0.183 C 
BRANCH   2   3
ATOM      3  C   UNL     1       8.554  -2.019  24.188  0.00  0.00    +0.266 C 
BRANCH   3   4
ATOM      4  O   UNL     1       8.556  -3.223  23.396  0.00  0.00    -0.461 OA
BRANCH   4   5
ATOM      5  C   UNL     1       8.617  -4.392  24.091  0.00  0.00    +0.324 C 
ATOM      6  O   UNL     1       9.566  -4.749  24.778  0.00  0.00    -0.249 OA
BRANCH   5   7
ATOM      7  C   UNL     1       7.307  -5.192  23.946  0.00  0.00    +0.163 C 
BRANCH   7   9
ATOM      8  C   UNL     1       6.853  -5.825  21.521  0.00  0.00    +0.009 C 
ATOM      9  C   UNL     1       6.587  -4.800  22.631  0.00  0.00    +0.010 C 
ATOM     10  C   UNL     1       5.070  -4.657  22.806  0.00  0.00    +0.009 C 
ENDBRANCH   7   9
BRANCH   7  11
ATOM     11  N   UNL     1       6.487  -4.921  25.149  0.00  0.00    -0.318 NA
ATOM     12  H   UNL     1       5.500  -4.953  24.881  0.00  0.00    +0.119 HD
ATOM     13  H   UNL     1       6.624  -5.642  25.852  0.00  0.00    +0.119 HD
ENDBRANCH   7  11
ENDBRANCH   5   7
ENDBRANCH   4   5
ENDBRANCH   3   4
ENDBRANCH   2   3
BRANCH   2  14
ATOM     14  C   UNL     1       9.670  -0.696  22.360  0.00  0.00    +0.190 C 
BRANCH  14  15
ATOM     15  O   UNL     1      10.232  -1.697  21.512  0.00  0.00    -0.392 OA
ATOM     16  H   UNL     1       9.582  -1.836  20.798  0.00  0.00    +0.210 HD
ENDBRANCH  14  15
ENDBRANCH   2  14
ENDBRANCH   1   2
BRANCH   1  17
ATOM     17  C   UNL     1      10.706   1.046  24.049  0.00  0.00    +0.288 C 
BRANCH  17  18
ATOM     18  N   UNL     1      10.024   2.325  24.057  0.00  0.00    -0.291 N 
ATOM     19  C   UNL     1      10.600   3.530  23.765  0.00  0.00    +0.171 A 
ATOM     20  N   UNL     1      11.897   3.753  23.441  0.00  0.00    -0.196 NA
ATOM     21  C   UNL     1      12.155   5.011  23.186  0.00  0.00    +0.195 A 
ATOM     22  N   UNL     1      13.410   5.392  22.840  0.00  0.00    -0.329 N 
ATOM     23  H   UNL     1      13.703   6.329  23.078  0.00  0.00    +0.145 HD
ATOM     24  H   UNL     1      14.112   4.686  23.036  0.00  0.00    +0.145 HD
ATOM     25  N   UNL     1      11.212   6.017  23.253  0.00  0.00    -0.293 N 
ATOM     26  H   UNL     1      11.460   6.962  23.011  0.00  0.00    +0.172 HD
ATOM     27  C   UNL     1       9.875   5.828  23.574  0.00  0.00    +0.280 A 
ATOM     28  O   UNL     1       9.079   6.761  23.600  0.00  0.00    -0.265 OA
ATOM     29  C   UNL     1       9.571   4.442  23.850  0.00  0.00    +0.172 A 
ATOM     30  N   UNL     1       8.386   3.835  24.180  0.00  0.00    -0.229 NA
ATOM     31  C   UNL     1       8.694   2.557  24.291  0.00  0.00    +0.203 A 
ENDBRANCH  17  18
ENDBRANCH   1  17
TORSDOF 11
ENDMDL
MODEL 8
REMARK VINA RESULT:      -6.0      1.879      2.768
REMARK  Name = 
REMARK  13 active torsions:
REMARK  status: ('A' for Active; 'I' for Inactive)
REMARK    1  A    between atoms: C_1  and  C_2
REMARK    2  A    between atoms: C_2  and  C_3
REMARK    3  A    between atoms: C_2  and  C_4
REMARK    4  A    between atoms: C_4  and  C_6
REMARK    5  A    between atoms: C_4  and  N_27
REMARK    6  A    between atoms: C_6  and  O_8
REMARK    7  A    between atoms: O_8  and  C_9
REMARK    8  A    between atoms: C_9  and  C_10
REMARK    9  A    between atoms: C_10  and  C_12
REMARK   10  A    between atoms: C_10  and  O_14
REMARK   11  A    between atoms: C_12  and  O_13
REMARK   12  A    between atoms: O_14  and  C_15
REMARK   13  A    between atoms: C_15  and  N_16
REMARK                            x       y       z     vdW  Elec       q    Type
REMARK                         _______ _______ _______ _____ _____    ______ ____
ROOT
ATOM      1  O   UNL     1       8.228  -2.396  25.472  0.00  0.00    -0.350 OA
ENDROOT
BRANCH   1   2
ATOM      2  C   UNL     1       8.508  -1.440  24.426  0.00  0.00    +0.183 C 
BRANCH   2   3
ATOM      3  C   UNL     1       9.874  -1.657  23.760  0.00  0.00    +0.266 C 
BRANCH   3   4
ATOM      4  O   UNL     1      10.183  -0.549  22.892  0.00  0.00    -0.461 OA
BRANCH   4   5
ATOM      5  C   UNL     1      10.486   0.625  23.510  0.00  0.00    +0.324 C 
ATOM      6  O   UNL     1      11.037   0.719  24.601  0.00  0.00    -0.249 OA
BRANCH   5   7
ATOM      7  C   UNL     1      10.092   1.832  22.635  0.00  0.00    +0.163 C 
BRANCH   7   9
ATOM      8  C   UNL     1       9.899   4.078  23.821  0.00  0.00    +0.009 C 
ATOM      9  C   UNL     1       9.167   2.786  23.433  0.00  0.00    +0.010 C 
ATOM     10  C   UNL     1       7.897   3.162  22.660  0.00  0.00    +0.009 C 
ENDBRANCH   7   9
BRANCH   7  11
ATOM     11  N   UNL     1       9.447   1.300  21.413  0.00  0.00    -0.318 NA
ATOM     12  H   UNL     1       9.955   1.656  20.599  0.00  0.00    +0.119 HD
ATOM     13  H   UNL     1       9.512   0.286  21.380  0.00  0.00    +0.119 HD
ENDBRANCH   7  11
ENDBRANCH   5   7
ENDBRANCH   4   5
ENDBRANCH   3   4
ENDBRANCH   2   3
BRANCH   2  14
ATOM     14  C   UNL     1       7.386  -1.566  23.384  0.00  0.00    +0.190 C 
BRANCH  14  15
ATOM     15  O   UNL     1       7.221  -0.322  22.704  0.00  0.00    -0.392 OA
ATOM     16  H   UNL     1       6.405  -0.413  22.177  0.00  0.00    +0.210 HD
ENDBRANCH  14  15
ENDBRANCH   2  14
ENDBRANCH   1   2
BRANCH   1  17
ATOM     17  C   UNL     1       8.610  -3.729  25.126  0.00  0.00    +0.288 C 
BRANCH  17  18
ATOM     18  N   UNL     1       7.498  -4.633  25.349  0.00  0.00    -0.291 N 
ATOM     19  C   UNL     1       6.750  -5.222  24.368  0.00  0.00    +0.171 A 
ATOM     20  N   UNL     1       6.890  -5.057  23.030  0.00  0.00    -0.196 NA
ATOM     21  C   UNL     1       6.044  -5.773  22.332  0.00  0.00    +0.195 A 
ATOM     22  N   UNL     1       6.065  -5.721  20.976  0.00  0.00    -0.329 N 
ATOM     23  H   UNL     1       5.198  -5.883  20.483  0.00  0.00    +0.145 HD
ATOM     24  H   UNL     1       6.596  -4.936  20.613  0.00  0.00    +0.145 HD
ATOM     25  N   UNL     1       5.093  -6.601  22.893  0.00  0.00    -0.293 N 
ATOM     26  H   UNL     1       4.493  -7.155  22.306  0.00  0.00    +0.172 HD
ATOM     27  C   UNL     1       4.924  -6.801  24.256  0.00  0.00    +0.280 A 
ATOM     28  O   UNL     1       4.070  -7.566  24.695  0.00  0.00    -0.265 OA
ATOM     29  C   UNL     1       5.856  -6.024  25.041  0.00  0.00    +0.172 A 
ATOM     30  N   UNL     1       6.036  -5.949  26.399  0.00  0.00    -0.229 NA
ATOM     31  C   UNL     1       7.038  -5.105  26.549  0.00  0.00    +0.203 A 
ENDBRANCH  17  18
ENDBRANCH   1  17
TORSDOF 11
ENDMDL
MODEL 9
REMARK VINA RESULT:      -6.0      2.511      7.330
REMARK  Name = 
REMARK  13 active torsions:
REMARK  status: ('A' for Active; 'I' for Inactive)
REMARK    1  A    between atoms: C_1  and  C_2
REMARK    2  A    between atoms: C_2  and  C_3
REMARK    3  A    between atoms: C_2  and  C_4
REMARK    4  A    between atoms: C_4  and  C_6
REMARK    5  A    between atoms: C_4  and  N_27
REMARK    6  A    between atoms: C_6  and  O_8
REMARK    7  A    between atoms: O_8  and  C_9
REMARK    8  A    between atoms: C_9  and  C_10
REMARK    9  A    between atoms: C_10  and  C_12
REMARK   10  A    between atoms: C_10  and  O_14
REMARK   11  A    between atoms: C_12  and  O_13
REMARK   12  A    between atoms: O_14  and  C_15
REMARK   13  A    between atoms: C_15  and  N_16
REMARK                            x       y       z     vdW  Elec       q    Type
REMARK                         _______ _______ _______ _____ _____    ______ ____
ROOT
ATOM      1  O   UNL     1       7.363  -3.170  25.471  0.00  0.00    -0.350 OA
ENDROOT
BRANCH   1   2
ATOM      2  C   UNL     1       6.885  -4.094  26.472  0.00  0.00    +0.183 C 
BRANCH   2   3
ATOM      3  C   UNL     1       5.690  -4.934  25.995  0.00  0.00    +0.266 C 
BRANCH   3   4
ATOM      4  O   UNL     1       6.101  -5.821  24.936  0.00  0.00    -0.461 OA
BRANCH   4   5
ATOM      5  C   UNL     1       5.098  -6.413  24.232  0.00  0.00    +0.324 C 
ATOM      6  O   UNL     1       4.404  -7.335  24.644  0.00  0.00    -0.249 OA
BRANCH   5   7
ATOM      7  C   UNL     1       4.908  -5.736  22.860  0.00  0.00    +0.163 C 
BRANCH   7   9
ATOM      8  C   UNL     1       7.004  -5.741  21.412  0.00  0.00    +0.009 C 
ATOM      9  C   UNL     1       6.194  -4.969  22.463  0.00  0.00    +0.010 C 
ATOM     10  C   UNL     1       5.903  -3.566  21.916  0.00  0.00    +0.009 C 
ENDBRANCH   7   9
BRANCH   7  11
ATOM     11  N   UNL     1       3.724  -4.852  22.963  0.00  0.00    -0.318 NA
ATOM     12  H   UNL     1       4.020  -3.892  22.765  0.00  0.00    +0.119 HD
ATOM     13  H   UNL     1       3.028  -5.094  22.264  0.00  0.00    +0.119 HD
ENDBRANCH   7  11
ENDBRANCH   5   7
ENDBRANCH   4   5
ENDBRANCH   3   4
ENDBRANCH   2   3
BRANCH   2  14
ATOM     14  C   UNL     1       8.060  -5.011  26.842  0.00  0.00    +0.190 C 
BRANCH  14  15
ATOM     15  O   UNL     1       7.604  -6.051  27.706  0.00  0.00    -0.392 OA
ATOM     16  H   UNL     1       6.921  -5.647  28.273  0.00  0.00    +0.210 HD
ENDBRANCH  14  15
ENDBRANCH   2  14
ENDBRANCH   1   2
BRANCH   1  17
ATOM     17  C   UNL     1       8.722  -2.776  25.678  0.00  0.00    +0.288 C 
BRANCH  17  18
ATOM     18  N   UNL     1       9.178  -1.971  24.561  0.00  0.00    -0.291 N 
ATOM     19  C   UNL     1       9.056  -0.613  24.464  0.00  0.00    +0.171 A 
ATOM     20  N   UNL     1       8.478   0.217  25.366  0.00  0.00    -0.196 NA
ATOM     21  C   UNL     1       8.533   1.477  25.015  0.00  0.00    +0.195 A 
ATOM     22  N   UNL     1       8.002   2.432  25.819  0.00  0.00    -0.329 N 
ATOM     23  H   UNL     1       7.649   3.274  25.386  0.00  0.00    +0.145 HD
ATOM     24  H   UNL     1       7.388   2.057  26.535  0.00  0.00    +0.145 HD
ATOM     25  N   UNL     1       9.104   1.923  23.840  0.00  0.00    -0.293 N 
ATOM     26  H   UNL     1       9.150   2.908  23.639  0.00  0.00    +0.172 HD
ATOM     27  C   UNL     1       9.712   1.106  22.896  0.00  0.00    +0.280 A 
ATOM     28  O   UNL     1      10.219   1.563  21.877  0.00  0.00    -0.265 OA
ATOM     29  C   UNL     1       9.667  -0.289  23.273  0.00  0.00    +0.172 A 
ATOM     30  N   UNL     1      10.161  -1.402  22.642  0.00  0.00    -0.229 NA
ATOM     31  C   UNL     1       9.854  -2.399  23.449  0.00  0.00    +0.203 A 
ENDBRANCH  17  18
ENDBRANCH   1  17
TORSDOF 11
ENDMDL
