MODEL 1
REMARK VINA RESULT:      -6.7      0.000      0.000
REMARK  Name = 
REMARK  5 active torsions:
REMARK  status: ('A' for Active; 'I' for Inactive)
REMARK    1  A    between atoms: C_1  and  C_2
REMARK    2  A    between atoms: N_4  and  C_10
REMARK    3  A    between atoms: C_14  and  O_20
REMARK    4  A    between atoms: C_15  and  C_18
REMARK    5  A    between atoms: C_18  and  O_19
REMARK                            x       y       z     vdW  Elec       q    Type
REMARK                         _______ _______ _______ _____ _____    ______ ____
ROOT
ATOM      1  C   UNL     1       9.182  -2.816  23.978  0.00  0.00    +0.260 C 
ATOM      2  O   UNL     1       9.869  -1.660  24.498  0.00  0.00    -0.345 OA
ATOM      3  C   UNL     1       9.748  -0.588  23.525  0.00  0.00    +0.178 C 
ATOM      4  C   UNL     1       8.993  -1.153  22.317  0.00  0.00    +0.184 C 
ATOM      5  C   UNL     1       8.213  -2.310  22.912  0.00  0.00    +0.246 C 
ATOM      6  F   UNL     1       7.947  -3.263  21.989  0.00  0.00    -0.238 F 
ENDROOT
BRANCH   1  15
ATOM      7  C   UNL     1       5.605  -3.688  27.355  0.00  0.00    +0.051 C 
ATOM      8  C   UNL     1       6.912  -3.986  26.697  0.00  0.00    +0.030 A 
ATOM      9  C   UNL     1       7.633  -5.202  27.135  0.00  0.00    +0.257 A 
ATOM     10  O   UNL     1       7.180  -5.954  27.988  0.00  0.00    -0.267 OA
ATOM     11  N   UNL     1       8.831  -5.431  26.526  0.00  0.00    -0.275 N 
ATOM     12  H   UNL     1       9.336  -6.257  26.802  0.00  0.00    +0.173 HD
ATOM     13  C   UNL     1       9.365  -4.710  25.490  0.00  0.00    +0.331 A 
ATOM     14  O   UNL     1      10.416  -5.082  24.970  0.00  0.00    -0.246 OA
ATOM     15  N   UNL     1       8.636  -3.595  25.089  0.00  0.00    -0.271 N 
ATOM     16  C   UNL     1       7.460  -3.243  25.728  0.00  0.00    +0.102 A 
ENDBRANCH   1  15
BRANCH   4  17
ATOM     17  O   UNL     1       9.930  -1.579  21.316  0.00  0.00    -0.386 OA
ATOM     18  H   UNL     1      10.568  -2.207  21.699  0.00  0.00    +0.210 HD
ENDBRANCH   4  17
BRANCH   3  19
ATOM     19  C   UNL     1       9.026   0.574  24.205  0.00  0.00    +0.190 C 
BRANCH  19  20
ATOM     20  O   UNL     1       9.865   1.168  25.194  0.00  0.00    -0.392 OA
ATOM     21  H   UNL     1      10.098   0.436  25.798  0.00  0.00    +0.210 HD
ENDBRANCH  19  20
ENDBRANCH   3  19
TORSDOF 4
ENDMDL
MODEL 2
REMARK VINA RESULT:      -6.1      3.423      4.410
REMARK  Name = 
REMARK  5 active torsions:
REMARK  status: ('A' for Active; 'I' for Inactive)
REMARK    1  A    between atoms: C_1  and  C_2
REMARK    2  A    between atoms: N_4  and  C_10
REMARK    3  A    between atoms: C_14  and  O_20
REMARK    4  A    between atoms: C_15  and  C_18
REMARK    5  A    between atoms: C_18  and  O_19
REMARK                            x       y       z     vdW  Elec       q    Type
REMARK                         _______ _______ _______ _____ _____    ______ ____
ROOT
ATOM      1  C   UNL     1       7.766  -4.301  23.460  0.00  0.00    +0.260 C 
ATOM      2  O   UNL     1       8.536  -5.242  24.236  0.00  0.00    -0.345 OA
ATOM      3  C   UNL     1       9.557  -4.504  24.956  0.00  0.00    +0.178 C 
ATOM      4  C   UNL     1       9.434  -3.033  24.542  0.00  0.00    +0.184 C 
ATOM      5  C   UNL     1       7.991  -2.928  24.085  0.00  0.00    +0.246 C 
ATOM      6  F   UNL     1       7.822  -1.935  23.180  0.00  0.00    -0.238 F 
ENDROOT
BRANCH   1  15
ATOM      7  C   UNL     1       2.952  -4.148  24.787  0.00  0.00    +0.051 C 
ATOM      8  C   UNL     1       4.095  -4.694  23.995  0.00  0.00    +0.030 A 
ATOM      9  C   UNL     1       3.786  -5.705  22.961  0.00  0.00    +0.257 A 
ATOM     10  O   UNL     1       2.641  -6.077  22.737  0.00  0.00    -0.267 OA
ATOM     11  N   UNL     1       4.857  -6.194  22.273  0.00  0.00    -0.275 N 
ATOM     12  H   UNL     1       4.670  -6.878  21.557  0.00  0.00    +0.173 HD
ATOM     13  C   UNL     1       6.153  -5.761  22.376  0.00  0.00    +0.331 A 
ATOM     14  O   UNL     1       7.010  -6.227  21.627  0.00  0.00    -0.246 OA
ATOM     15  N   UNL     1       6.391  -4.784  23.338  0.00  0.00    -0.271 N 
ATOM     16  C   UNL     1       5.370  -4.313  24.144  0.00  0.00    +0.102 A 
ENDBRANCH   1  15
BRANCH   4  17
ATOM     17  O   UNL     1      10.365  -2.747  23.488  0.00  0.00    -0.386 OA
ATOM     18  H   UNL     1      10.139  -3.259  22.692  0.00  0.00    +0.210 HD
ENDBRANCH   4  17
BRANCH   3  19
ATOM     19  C   UNL     1       9.329  -4.736  26.449  0.00  0.00    +0.190 C 
BRANCH  19  20
ATOM     20  O   UNL     1       8.389  -5.790  26.649  0.00  0.00    -0.392 OA
ATOM     21  H   UNL     1       7.546  -5.444  26.295  0.00  0.00    +0.210 HD
ENDBRANCH  19  20
ENDBRANCH   3  19
TORSDOF 4
ENDMDL
MODEL 3
REMARK VINA RESULT:      -6.1      2.141      3.011
REMARK  Name = 
REMARK  5 active torsions:
REMARK  status: ('A' for Active; 'I' for Inactive)
REMARK    1  A    between atoms: C_1  and  C_2
REMARK    2  A    between atoms: N_4  and  C_10
REMARK    3  A    between atoms: C_14  and  O_20
REMARK    4  A    between atoms: C_15  and  C_18
REMARK    5  A    between atoms: C_18  and  O_19
REMARK                            x       y       z     vdW  Elec       q    Type
REMARK                         _______ _______ _______ _____ _____    ______ ____
ROOT
ATOM      1  C   UNL     1       9.740   0.188  23.518  0.00  0.00    +0.260 C 
ATOM      2  O   UNL     1       9.869   1.195  24.542  0.00  0.00    -0.345 OA
ATOM      3  C   UNL     1       9.553   2.483  23.950  0.00  0.00    +0.178 C 
ATOM      4  C   UNL     1       9.275   2.245  22.462  0.00  0.00    +0.184 C 
ATOM      5  C   UNL     1       8.862   0.785  22.421  0.00  0.00    +0.246 C 
ATOM      6  F   UNL     1       9.120   0.225  21.217  0.00  0.00    -0.238 F 
ENDROOT
BRANCH   1  15
ATOM      7  C   UNL     1       6.871  -2.366  26.713  0.00  0.00    +0.051 C 
ATOM      8  C   UNL     1       7.935  -2.268  25.668  0.00  0.00    +0.030 A 
ATOM      9  C   UNL     1       8.506  -3.533  25.157  0.00  0.00    +0.257 A 
ATOM     10  O   UNL     1       8.121  -4.626  25.551  0.00  0.00    -0.267 OA
ATOM     11  N   UNL     1       9.487  -3.403  24.219  0.00  0.00    -0.275 N 
ATOM     12  H   UNL     1       9.886  -4.251  23.851  0.00  0.00    +0.173 HD
ATOM     13  C   UNL     1       9.905  -2.233  23.640  0.00  0.00    +0.331 A 
ATOM     14  O   UNL     1      10.738  -2.268  22.736  0.00  0.00    -0.246 OA
ATOM     15  N   UNL     1       9.315  -1.071  24.128  0.00  0.00    -0.271 N 
ATOM     16  C   UNL     1       8.385  -1.118  25.151  0.00  0.00    +0.102 A 
ENDBRANCH   1  15
BRANCH   4  17
ATOM     17  O   UNL     1      10.465   2.500  21.700  0.00  0.00    -0.386 OA
ATOM     18  H   UNL     1      10.276   2.423  20.747  0.00  0.00    +0.210 HD
ENDBRANCH   4  17
BRANCH   3  19
ATOM     19  C   UNL     1       8.357   3.059  24.707  0.00  0.00    +0.190 C 
BRANCH  19  20
ATOM     20  O   UNL     1       8.145   2.339  25.920  0.00  0.00    -0.392 OA
ATOM     21  H   UNL     1       7.178   2.198  25.961  0.00  0.00    +0.210 HD
ENDBRANCH  19  20
ENDBRANCH   3  19
TORSDOF 4
ENDMDL
MODEL 4
REMARK VINA RESULT:      -6.1      3.281      4.116
REMARK  Name = 
REMARK  5 active torsions:
REMARK  status: ('A' for Active; 'I' for Inactive)
REMARK    1  A    between atoms: C_1  and  C_2
REMARK    2  A    between atoms: N_4  and  C_10
REMARK    3  A    between atoms: C_14  and  O_20
REMARK    4  A    between atoms: C_15  and  C_18
REMARK    5  A    between atoms: C_18  and  O_19
REMARK                            x       y       z     vdW  Elec       q    Type
REMARK                         _______ _______ _______ _____ _____    ______ ____
ROOT
ATOM      1  C   UNL     1       7.945  -1.392  24.029  0.00  0.00    +0.260 C 
ATOM      2  O   UNL     1       7.738  -0.185  23.267  0.00  0.00    -0.345 OA
ATOM      3  C   UNL     1       9.003   0.523  23.189  0.00  0.00    +0.178 C 
ATOM      4  C   UNL     1      10.024  -0.278  24.006  0.00  0.00    +0.184 C 
ATOM      5  C   UNL     1       9.444  -1.680  23.996  0.00  0.00    +0.246 C 
ATOM      6  F   UNL     1       9.837  -2.393  25.077  0.00  0.00    -0.238 F 
ENDROOT
BRANCH   1  15
ATOM      7  C   UNL     1       7.086  -5.611  21.496  0.00  0.00    +0.051 C 
ATOM      8  C   UNL     1       6.652  -4.447  22.325  0.00  0.00    +0.030 A 
ATOM      9  C   UNL     1       5.239  -4.413  22.763  0.00  0.00    +0.257 A 
ATOM     10  O   UNL     1       4.450  -5.305  22.481  0.00  0.00    -0.267 OA
ATOM     11  N   UNL     1       4.874  -3.326  23.501  0.00  0.00    -0.275 N 
ATOM     12  H   UNL     1       3.919  -3.285  23.818  0.00  0.00    +0.173 HD
ATOM     13  C   UNL     1       5.709  -2.339  23.956  0.00  0.00    +0.331 A 
ATOM     14  O   UNL     1       5.264  -1.460  24.693  0.00  0.00    -0.246 OA
ATOM     15  N   UNL     1       7.036  -2.430  23.547  0.00  0.00    -0.271 N 
ATOM     16  C   UNL     1       7.457  -3.451  22.714  0.00  0.00    +0.102 A 
ENDBRANCH   1  15
BRANCH   4  17
ATOM     17  O   UNL     1      10.120   0.268  25.330  0.00  0.00    -0.386 OA
ATOM     18  H   UNL     1       9.257   0.216  25.778  0.00  0.00    +0.210 HD
ENDBRANCH   4  17
BRANCH   3  19
ATOM     19  C   UNL     1       9.371   0.650  21.712  0.00  0.00    +0.190 C 
BRANCH  19  20
ATOM     20  O   UNL     1       9.875   1.955  21.437  0.00  0.00    -0.392 OA
ATOM     21  H   UNL     1       9.083   2.496  21.249  0.00  0.00    +0.210 HD
ENDBRANCH  19  20
ENDBRANCH   3  19
TORSDOF 4
ENDMDL
MODEL 5
REMARK VINA RESULT:      -5.8      2.387      5.472
REMARK  Name = 
REMARK  5 active torsions:
REMARK  status: ('A' for Active; 'I' for Inactive)
REMARK    1  A    between atoms: C_1  and  C_2
REMARK    2  A    between atoms: N_4  and  C_10
REMARK    3  A    between atoms: C_14  and  O_20
REMARK    4  A    between atoms: C_15  and  C_18
REMARK    5  A    between atoms: C_18  and  O_19
REMARK                            x       y       z     vdW  Elec       q    Type
REMARK                         _______ _______ _______ _____ _____    ______ ____
ROOT
ATOM      1  C   UNL     1       7.639  -2.770  23.715  0.00  0.00    +0.260 C 
ATOM      2  O   UNL     1       8.088  -2.954  25.073  0.00  0.00    -0.345 OA
ATOM      3  C   UNL     1       8.104  -4.379  25.354  0.00  0.00    +0.178 C 
ATOM      4  C   UNL     1       7.573  -5.094  24.107  0.00  0.00    +0.184 C 
ATOM      5  C   UNL     1       7.854  -4.099  22.997  0.00  0.00    +0.246 C 
ATOM      6  F   UNL     1       6.997  -4.249  21.960  0.00  0.00    -0.238 F 
ENDROOT
BRANCH   1  15
ATOM      7  C   UNL     1       7.395   1.967  22.147  0.00  0.00    +0.051 C 
ATOM      8  C   UNL     1       8.124   0.689  22.405  0.00  0.00    +0.030 A 
ATOM      9  C   UNL     1       9.585   0.679  22.176  0.00  0.00    +0.257 A 
ATOM     10  O   UNL     1      10.191   1.676  21.806  0.00  0.00    -0.267 OA
ATOM     11  N   UNL     1      10.212  -0.510  22.404  0.00  0.00    -0.275 N 
ATOM     12  H   UNL     1      11.209  -0.538  22.262  0.00  0.00    +0.173 HD
ATOM     13  C   UNL     1       9.639  -1.642  22.921  0.00  0.00    +0.331 A 
ATOM     14  O   UNL     1      10.343  -2.621  23.164  0.00  0.00    -0.246 OA
ATOM     15  N   UNL     1       8.269  -1.576  23.154  0.00  0.00    -0.271 N 
ATOM     16  C   UNL     1       7.548  -0.435  22.851  0.00  0.00    +0.102 A 
ENDBRANCH   1  15
BRANCH   4  17
ATOM     17  O   UNL     1       6.171  -5.363  24.262  0.00  0.00    -0.386 OA
ATOM     18  H   UNL     1       5.664  -4.910  23.565  0.00  0.00    +0.210 HD
ENDBRANCH   4  17
BRANCH   3  19
ATOM     19  C   UNL     1       9.539  -4.763  25.712  0.00  0.00    +0.190 C 
BRANCH  19  20
ATOM     20  O   UNL     1       9.874  -6.022  25.131  0.00  0.00    -0.392 OA
ATOM     21  H   UNL     1      10.636  -5.833  24.548  0.00  0.00    +0.210 HD
ENDBRANCH  19  20
ENDBRANCH   3  19
TORSDOF 4
ENDMDL
MODEL 6
REMARK VINA RESULT:      -5.8      2.456      5.414
REMARK  Name = 
REMARK  5 active torsions:
REMARK  status: ('A' for Active; 'I' for Inactive)
REMARK    1  A    between atoms: C_1  and  C_2
REMARK    2  A    between atoms: N_4  and  C_10
REMARK    3  A    between atoms: C_14  and  O_20
REMARK    4  A    between atoms: C_15  and  C_18
REMARK    5  A    between atoms: C_18  and  O_19
REMARK                            x       y       z     vdW  Elec       q    Type
REMARK                         _______ _______ _______ _____ _____    ______ ____
ROOT
ATOM      1  C   UNL     1       8.113  -3.387  24.134  0.00  0.00    +0.260 C 
ATOM      2  O   UNL     1       7.069  -4.136  24.791  0.00  0.00    -0.345 OA
ATOM      3  C   UNL     1       7.695  -5.154  25.615  0.00  0.00    +0.178 C 
ATOM      4  C   UNL     1       9.208  -5.052  25.394  0.00  0.00    +0.184 C 
ATOM      5  C   UNL     1       9.390  -3.617  24.937  0.00  0.00    +0.246 C 
ATOM      6  F   UNL     1      10.494  -3.472  24.167  0.00  0.00    -0.238 F 
ENDROOT
BRANCH   1  15
ATOM      7  C   UNL     1       8.402   1.491  25.173  0.00  0.00    +0.051 C 
ATOM      8  C   UNL     1       7.822   0.318  24.453  0.00  0.00    +0.030 A 
ATOM      9  C   UNL     1       6.816   0.593  23.404  0.00  0.00    +0.257 A 
ATOM     10  O   UNL     1       6.474   1.732  23.114  0.00  0.00    -0.267 OA
ATOM     11  N   UNL     1       6.295  -0.503  22.782  0.00  0.00    -0.275 N 
ATOM     12  H   UNL     1       5.614  -0.340  22.058  0.00  0.00    +0.173 HD
ATOM     13  C   UNL     1       6.693  -1.802  22.961  0.00  0.00    +0.331 A 
ATOM     14  O   UNL     1       6.201  -2.689  22.265  0.00  0.00    -0.246 OA
ATOM     15  N   UNL     1       7.667  -2.009  23.933  0.00  0.00    -0.271 N 
ATOM     16  C   UNL     1       8.169  -0.956  24.676  0.00  0.00    +0.102 A 
ENDBRANCH   1  15
BRANCH   4  17
ATOM     17  O   UNL     1       9.619  -6.002  24.399  0.00  0.00    -0.386 OA
ATOM     18  H   UNL     1       9.118  -5.862  23.576  0.00  0.00    +0.210 HD
ENDBRANCH   4  17
BRANCH   3  19
ATOM     19  C   UNL     1       7.272  -4.902  27.061  0.00  0.00    +0.190 C 
BRANCH  19  20
ATOM     20  O   UNL     1       7.549  -6.047  27.866  0.00  0.00    -0.392 OA
ATOM     21  H   UNL     1       8.159  -5.724  28.559  0.00  0.00    +0.210 HD
ENDBRANCH  19  20
ENDBRANCH   3  19
TORSDOF 4
ENDMDL
MODEL 7
REMARK VINA RESULT:      -5.8      2.452      5.634
REMARK  Name = 
REMARK  5 active torsions:
REMARK  status: ('A' for Active; 'I' for Inactive)
REMARK    1  A    between atoms: C_1  and  C_2
REMARK    2  A    between atoms: N_4  and  C_10
REMARK    3  A    between atoms: C_14  and  O_20
REMARK    4  A    between atoms: C_15  and  C_18
REMARK    5  A    between atoms: C_18  and  O_19
REMARK                            x       y       z     vdW  Elec       q    Type
REMARK                         _______ _______ _______ _____ _____    ______ ____
ROOT
ATOM      1  C   UNL     1       8.671  -3.044  25.123  0.00  0.00    +0.260 C 
ATOM      2  O   UNL     1       9.045  -3.907  24.029  0.00  0.00    -0.345 OA
ATOM      3  C   UNL     1       8.105  -5.013  23.986  0.00  0.00    +0.178 C 
ATOM      4  C   UNL     1       7.141  -4.838  25.164  0.00  0.00    +0.184 C 
ATOM      5  C   UNL     1       7.210  -3.348  25.443  0.00  0.00    +0.246 C 
ATOM      6  F   UNL     1       6.914  -3.066  26.733  0.00  0.00    -0.238 F 
ENDROOT
BRANCH   1  15
ATOM      7  C   UNL     1       9.608   0.547  21.778  0.00  0.00    +0.051 C 
ATOM      8  C   UNL     1       9.478   0.033  23.174  0.00  0.00    +0.030 A 
ATOM      9  C   UNL     1       9.619   1.011  24.276  0.00  0.00    +0.257 A 
ATOM     10  O   UNL     1       9.816   2.201  24.067  0.00  0.00    -0.267 OA
ATOM     11  N   UNL     1       9.513   0.502  25.536  0.00  0.00    -0.275 N 
ATOM     12  H   UNL     1       9.597   1.150  26.302  0.00  0.00    +0.173 HD
ATOM     13  C   UNL     1       9.186  -0.788  25.865  0.00  0.00    +0.331 A 
ATOM     14  O   UNL     1       9.033  -1.093  27.047  0.00  0.00    -0.246 OA
ATOM     15  N   UNL     1       9.029  -1.664  24.796  0.00  0.00    -0.271 N 
ATOM     16  C   UNL     1       9.221  -1.242  23.492  0.00  0.00    +0.102 A 
ENDBRANCH   1  15
BRANCH   4  17
ATOM     17  O   UNL     1       7.588  -5.627  26.278  0.00  0.00    -0.386 OA
ATOM     18  H   UNL     1       8.346  -6.179  26.015  0.00  0.00    +0.210 HD
ENDBRANCH   4  17
BRANCH   3  19
ATOM     19  C   UNL     1       7.414  -4.979  22.624  0.00  0.00    +0.190 C 
BRANCH  19  20
ATOM     20  O   UNL     1       7.381  -6.285  22.052  0.00  0.00    -0.392 OA
ATOM     21  H   UNL     1       6.688  -6.240  21.364  0.00  0.00    +0.210 HD
ENDBRANCH  19  20
ENDBRANCH   3  19
TORSDOF 4
ENDMDL
MODEL 8
REMARK VINA RESULT:      -5.8      3.591      6.391
REMARK  Name = 
REMARK  5 active torsions:
REMARK  status: ('A' for Active; 'I' for Inactive)
REMARK    1  A    between atoms: C_1  and  C_2
REMARK    2  A    between atoms: N_4  and  C_10
REMARK    3  A    between atoms: C_14  and  O_20
REMARK    4  A    between atoms: C_15  and  C_18
REMARK    5  A    between atoms: C_18  and  O_19
REMARK                            x       y       z     vdW  Elec       q    Type
REMARK                         _______ _______ _______ _____ _____    ______ ____
ROOT
ATOM      1  C   UNL     1       8.784  -0.562  22.844  0.00  0.00    +0.260 C 
ATOM      2  O   UNL     1       7.931  -1.512  22.174  0.00  0.00    -0.345 OA
ATOM      3  C   UNL     1       7.937  -2.744  22.941  0.00  0.00    +0.178 C 
ATOM      4  C   UNL     1       8.903  -2.545  24.114  0.00  0.00    +0.184 C 
ATOM      5  C   UNL     1       8.922  -1.038  24.287  0.00  0.00    +0.246 C 
ATOM      6  F   UNL     1      10.081  -0.612  24.843  0.00  0.00    -0.238 F 
ENDROOT
BRANCH   1  15
ATOM      7  C   UNL     1       5.119   2.827  23.063  0.00  0.00    +0.051 C 
ATOM      8  C   UNL     1       6.507   2.390  22.724  0.00  0.00    +0.030 A 
ATOM      9  C   UNL     1       7.442   3.422  22.223  0.00  0.00    +0.257 A 
ATOM     10  O   UNL     1       7.112   4.595  22.104  0.00  0.00    -0.267 OA
ATOM     11  N   UNL     1       8.693   2.983  21.906  0.00  0.00    -0.275 N 
ATOM     12  H   UNL     1       9.350   3.669  21.570  0.00  0.00    +0.173 HD
ATOM     13  C   UNL     1       9.184   1.719  22.107  0.00  0.00    +0.331 A 
ATOM     14  O   UNL     1      10.365   1.480  21.860  0.00  0.00    -0.246 OA
ATOM     15  N   UNL     1       8.279   0.791  22.612  0.00  0.00    -0.271 N 
ATOM     16  C   UNL     1       6.964   1.140  22.863  0.00  0.00    +0.102 A 
ENDBRANCH   1  15
BRANCH   4  17
ATOM     17  O   UNL     1      10.193  -3.076  23.777  0.00  0.00    -0.386 OA
ATOM     18  H   UNL     1      10.801  -2.353  23.538  0.00  0.00    +0.210 HD
ENDBRANCH   4  17
BRANCH   3  19
ATOM     19  C   UNL     1       6.500  -3.026  23.376  0.00  0.00    +0.190 C 
BRANCH  19  20
ATOM     20  O   UNL     1       5.587  -2.642  22.350  0.00  0.00    -0.392 OA
ATOM     21  H   UNL     1       4.708  -2.907  22.685  0.00  0.00    +0.210 HD
ENDBRANCH  19  20
ENDBRANCH   3  19
TORSDOF 4
ENDMDL
MODEL 9
REMARK VINA RESULT:      -5.8      2.970      5.741
REMARK  Name = 
REMARK  5 active torsions:
REMARK  status: ('A' for Active; 'I' for Inactive)
REMARK    1  A    between atoms: C_1  and  C_2
REMARK    2  A    between atoms: N_4  and  C_10
REMARK    3  A    between atoms: C_14  and  O_20
REMARK    4  A    between atoms: C_15  and  C_18
REMARK    5  A    between atoms: C_18  and  O_19
REMARK                            x       y       z     vdW  Elec       q    Type
REMARK                         _______ _______ _______ _____ _____    ______ ____
ROOT
ATOM      1  C   UNL     1       8.453  -2.768  23.064  0.00  0.00    +0.260 C 
ATOM      2  O   UNL     1       7.612  -3.540  22.183  0.00  0.00    -0.345 OA
ATOM      3  C   UNL     1       7.136  -4.700  22.914  0.00  0.00    +0.178 C 
ATOM      4  C   UNL     1       7.780  -4.657  24.305  0.00  0.00    +0.184 C 
ATOM      5  C   UNL     1       8.097  -3.185  24.488  0.00  0.00    +0.246 C 
ATOM      6  F   UNL     1       9.135  -2.997  25.336  0.00  0.00    -0.238 F 
ENDROOT
BRANCH   1  15
ATOM      7  C   UNL     1       6.149   1.651  23.403  0.00  0.00    +0.051 C 
ATOM      8  C   UNL     1       7.224   0.749  22.891  0.00  0.00    +0.030 A 
ATOM      9  C   UNL     1       8.294   1.361  22.073  0.00  0.00    +0.257 A 
ATOM     10  O   UNL     1       8.322   2.561  21.832  0.00  0.00    -0.267 OA
ATOM     11  N   UNL     1       9.247   0.504  21.609  0.00  0.00    -0.275 N 
ATOM     12  H   UNL     1       9.990   0.899  21.056  0.00  0.00    +0.173 HD
ATOM     13  C   UNL     1       9.359  -0.828  21.916  0.00  0.00    +0.331 A 
ATOM     14  O   UNL     1      10.324  -1.467  21.500  0.00  0.00    -0.246 OA
ATOM     15  N   UNL     1       8.349  -1.352  22.716  0.00  0.00    -0.271 N 
ATOM     16  C   UNL     1       7.294  -0.564  23.142  0.00  0.00    +0.102 A 
ENDBRANCH   1  15
BRANCH   4  17
ATOM     17  O   UNL     1       8.957  -5.478  24.320  0.00  0.00    -0.386 OA
ATOM     18  H   UNL     1       8.901  -6.159  23.625  0.00  0.00    +0.210 HD
ENDBRANCH   4  17
BRANCH   3  19
ATOM     19  C   UNL     1       5.611  -4.632  22.947  0.00  0.00    +0.190 C 
BRANCH  19  20
ATOM     20  O   UNL     1       5.140  -3.625  22.054  0.00  0.00    -0.392 OA
ATOM     21  H   UNL     1       5.521  -2.791  22.394  0.00  0.00    +0.210 HD
ENDBRANCH  19  20
ENDBRANCH   3  19
TORSDOF 4
ENDMDL
