MODEL 1
REMARK VINA RESULT:      -6.3      0.000      0.000
REMARK  Name = 
REMARK  12 active torsions:
REMARK  status: ('A' for Active; 'I' for Inactive)
REMARK    1  A    between atoms: C_1  and  C_2
REMARK    2  A    between atoms: N_4  and  C_5
REMARK    3  A    between atoms: C_7  and  N_26
REMARK    4  A    between atoms: C_10  and  C_23
REMARK    5  A    between atoms: C_12  and  C_14
REMARK    6  A    between atoms: C_14  and  C_16
REMARK    7  A    between atoms: C_14  and  O_21
REMARK    8  A    between atoms: C_16  and  C_18
REMARK    9  A    between atoms: C_16  and  O_20
REMARK   10  A    between atoms: C_18  and  O_19
REMARK   11  A    between atoms: O_21  and  C_22
REMARK   12  A    between atoms: C_23  and  O_25
REMARK                            x       y       z     vdW  Elec       q    Type
REMARK                         _______ _______ _______ _____ _____    ______ ____
ROOT
ATOM      1  C   UNL     1       7.917  -2.626  23.795  0.00  0.00    +0.161 C 
ATOM      2  C   UNL     1       6.553  -2.374  23.085  0.00  0.00    +0.229 C 
ATOM      3  O   UNL     1       6.195  -3.297  22.046  0.00  0.00    -0.477 OA
ATOM      4  C   UNL     1       6.691  -4.575  22.087  0.00  0.00    +0.204 C 
ATOM      5  C   UNL     1       7.617  -5.003  22.948  0.00  0.00    +0.071 C 
ATOM      6  C   UNL     1       8.265  -4.126  23.955  0.00  0.00    +0.238 C 
ENDROOT
BRANCH   6   7
ATOM      7  N   UNL     1       7.870  -4.554  25.298  0.00  0.00    -0.104 NA
ATOM      8  C   UNL     1       8.605  -5.365  25.958  0.00  0.00    +0.377 C 
ATOM      9  N   UNL     1       8.253  -5.711  27.214  0.00  0.00    -0.289 N 
ATOM     10  H   UNL     1       8.365  -6.702  27.394  0.00  0.00    +0.255 HD
ATOM     11  H   UNL     1       7.304  -5.413  27.413  0.00  0.00    +0.255 HD
ATOM     12  N   UNL     1       9.748  -6.000  25.621  0.00  0.00    -0.289 N 
ATOM     13  H   UNL     1      10.409  -6.077  26.388  0.00  0.00    +0.255 HD
ATOM     14  H   UNL     1      10.206  -5.711  24.768  0.00  0.00    +0.255 HD
ENDBRANCH   6   7
BRANCH   1  17
ATOM     15  C   UNL     1       9.679  -0.481  24.996  0.00  0.00    +0.109 C 
ATOM     16  C   UNL     1       9.758  -0.867  23.541  0.00  0.00    +0.210 C 
ATOM     17  N   UNL     1       8.993  -1.898  23.082  0.00  0.00    -0.305 N 
ATOM     18  H   UNL     1       9.133  -2.081  22.094  0.00  0.00    +0.149 HD
ATOM     19  O   UNL     1      10.520  -0.296  22.760  0.00  0.00    -0.276 OA
ENDBRANCH   1  17
BRANCH   4  20
ATOM     20  C   UNL     1       6.145  -5.557  21.098  0.00  0.00    +0.372 C 
ATOM     21  O   UNL     1       5.947  -5.335  19.918  0.00  0.00    -0.242 OA
BRANCH  20  22
ATOM     22  O   UNL     1       5.904  -6.746  21.690  0.00  0.00    -0.475 OA
ATOM     23  H   UNL     1       5.469  -6.613  22.567  0.00  0.00    +0.296 HD
ENDBRANCH  20  22
ENDBRANCH   4  20
BRANCH   2  24
ATOM     24  C   UNL     1       5.373  -2.123  24.073  0.00  0.00    +0.191 C 
BRANCH  24  25
ATOM     25  O   UNL     1       5.129  -3.380  24.738  0.00  0.00    -0.373 OA
ATOM     26  C   UNL     1       3.833  -3.930  24.553  0.00  0.00    +0.194 C 
ENDBRANCH  24  25
BRANCH  24  27
ATOM     27  C   UNL     1       5.675  -1.000  25.105  0.00  0.00    +0.172 C 
BRANCH  27  28
ATOM     28  O   UNL     1       4.557  -0.742  25.972  0.00  0.00    -0.387 OA
ATOM     29  H   UNL     1       4.816   0.070  26.458  0.00  0.00    +0.210 HD
ENDBRANCH  27  28
BRANCH  27  30
ATOM     30  C   UNL     1       6.112   0.323  24.456  0.00  0.00    +0.189 C 
BRANCH  30  31
ATOM     31  O   UNL     1       4.977   1.191  24.402  0.00  0.00    -0.392 OA
ATOM     32  H   UNL     1       5.324   2.096  24.297  0.00  0.00    +0.210 HD
ENDBRANCH  30  31
ENDBRANCH  27  30
ENDBRANCH  24  27
ENDBRANCH   2  24
TORSDOF 10
ENDMDL
MODEL 2
REMARK VINA RESULT:      -6.3      2.074      5.132
REMARK  Name = 
REMARK  12 active torsions:
REMARK  status: ('A' for Active; 'I' for Inactive)
REMARK    1  A    between atoms: C_1  and  C_2
REMARK    2  A    between atoms: N_4  and  C_5
REMARK    3  A    between atoms: C_7  and  N_26
REMARK    4  A    between atoms: C_10  and  C_23
REMARK    5  A    between atoms: C_12  and  C_14
REMARK    6  A    between atoms: C_14  and  C_16
REMARK    7  A    between atoms: C_14  and  O_21
REMARK    8  A    between atoms: C_16  and  C_18
REMARK    9  A    between atoms: C_16  and  O_20
REMARK   10  A    between atoms: C_18  and  O_19
REMARK   11  A    between atoms: O_21  and  C_22
REMARK   12  A    between atoms: C_23  and  O_25
REMARK                            x       y       z     vdW  Elec       q    Type
REMARK                         _______ _______ _______ _____ _____    ______ ____
ROOT
ATOM      1  C   UNL     1       8.089  -2.449  23.385  0.00  0.00    +0.161 C 
ATOM      2  C   UNL     1       8.431  -0.943  23.592  0.00  0.00    +0.229 C 
ATOM      3  O   UNL     1       7.853  -0.311  24.743  0.00  0.00    -0.477 OA
ATOM      4  C   UNL     1       7.543  -1.073  25.840  0.00  0.00    +0.204 C 
ATOM      5  C   UNL     1       7.596  -2.406  25.878  0.00  0.00    +0.071 C 
ATOM      6  C   UNL     1       7.962  -3.244  24.708  0.00  0.00    +0.238 C 
ENDROOT
BRANCH   6   7
ATOM      7  N   UNL     1       9.235  -3.915  24.970  0.00  0.00    -0.104 NA
ATOM      8  C   UNL     1       9.262  -5.011  25.628  0.00  0.00    +0.377 C 
ATOM      9  N   UNL     1      10.438  -5.645  25.819  0.00  0.00    -0.289 N 
ATOM     10  H   UNL     1      10.547  -5.992  26.765  0.00  0.00    +0.255 HD
ATOM     11  H   UNL     1      11.213  -5.043  25.564  0.00  0.00    +0.255 HD
ATOM     12  N   UNL     1       8.272  -5.713  26.222  0.00  0.00    -0.289 N 
ATOM     13  H   UNL     1       8.387  -6.718  26.145  0.00  0.00    +0.255 HD
ATOM     14  H   UNL     1       7.321  -5.434  26.024  0.00  0.00    +0.255 HD
ENDBRANCH   6   7
BRANCH   1  17
ATOM     15  C   UNL     1       7.145  -4.975  22.014  0.00  0.00    +0.109 C 
ATOM     16  C   UNL     1       6.433  -3.656  21.853  0.00  0.00    +0.210 C 
ATOM     17  N   UNL     1       6.862  -2.574  22.563  0.00  0.00    -0.305 N 
ATOM     18  H   UNL     1       6.306  -1.745  22.389  0.00  0.00    +0.149 HD
ATOM     19  O   UNL     1       5.451  -3.536  21.119  0.00  0.00    -0.276 OA
ENDBRANCH   1  17
BRANCH   4  20
ATOM     20  C   UNL     1       7.123  -0.353  27.083  0.00  0.00    +0.372 C 
ATOM     21  O   UNL     1       6.022  -0.416  27.598  0.00  0.00    -0.242 OA
BRANCH  20  22
ATOM     22  O   UNL     1       8.142   0.383  27.576  0.00  0.00    -0.475 OA
ATOM     23  H   UNL     1       8.908   0.373  26.952  0.00  0.00    +0.296 HD
ENDBRANCH  20  22
ENDBRANCH   4  20
BRANCH   2  24
ATOM     24  C   UNL     1       9.951  -0.624  23.455  0.00  0.00    +0.191 C 
BRANCH  24  25
ATOM     25  O   UNL     1      10.202  -0.449  22.044  0.00  0.00    -0.373 OA
ATOM     26  C   UNL     1       9.115   0.063  21.288  0.00  0.00    +0.194 C 
ENDBRANCH  24  25
BRANCH  24  27
ATOM     27  C   UNL     1      10.380   0.639  24.253  0.00  0.00    +0.172 C 
BRANCH  27  28
ATOM     28  O   UNL     1      10.432   0.397  25.670  0.00  0.00    -0.387 OA
ATOM     29  H   UNL     1       9.493   0.418  25.950  0.00  0.00    +0.210 HD
ENDBRANCH  27  28
BRANCH  27  30
ATOM     30  C   UNL     1       9.480   1.858  23.995  0.00  0.00    +0.189 C 
BRANCH  30  31
ATOM     31  O   UNL     1       8.882   2.245  25.235  0.00  0.00    -0.392 OA
ATOM     32  H   UNL     1       8.712   3.203  25.175  0.00  0.00    +0.210 HD
ENDBRANCH  30  31
ENDBRANCH  27  30
ENDBRANCH  24  27
ENDBRANCH   2  24
TORSDOF 10
ENDMDL
MODEL 3
REMARK VINA RESULT:      -6.2      1.840      5.053
REMARK  Name = 
REMARK  12 active torsions:
REMARK  status: ('A' for Active; 'I' for Inactive)
REMARK    1  A    between atoms: C_1  and  C_2
REMARK    2  A    between atoms: N_4  and  C_5
REMARK    3  A    between atoms: C_7  and  N_26
REMARK    4  A    between atoms: C_10  and  C_23
REMARK    5  A    between atoms: C_12  and  C_14
REMARK    6  A    between atoms: C_14  and  C_16
REMARK    7  A    between atoms: C_14  and  O_21
REMARK    8  A    between atoms: C_16  and  C_18
REMARK    9  A    between atoms: C_16  and  O_20
REMARK   10  A    between atoms: C_18  and  O_19
REMARK   11  A    between atoms: O_21  and  C_22
REMARK   12  A    between atoms: C_23  and  O_25
REMARK                            x       y       z     vdW  Elec       q    Type
REMARK                         _______ _______ _______ _____ _____    ______ ____
ROOT
ATOM      1  C   UNL     1       6.797  -3.584  24.066  0.00  0.00    +0.161 C 
ATOM      2  C   UNL     1       7.623  -2.274  23.892  0.00  0.00    +0.229 C 
ATOM      3  O   UNL     1       6.945  -1.048  24.201  0.00  0.00    -0.477 OA
ATOM      4  C   UNL     1       5.914  -1.063  25.107  0.00  0.00    +0.204 C 
ATOM      5  C   UNL     1       5.378  -2.168  25.627  0.00  0.00    +0.071 C 
ATOM      6  C   UNL     1       5.806  -3.540  25.254  0.00  0.00    +0.238 C 
ENDROOT
BRANCH   6   7
ATOM      7  N   UNL     1       6.436  -4.182  26.408  0.00  0.00    -0.104 NA
ATOM      8  C   UNL     1       6.320  -5.443  26.586  0.00  0.00    +0.377 C 
ATOM      9  N   UNL     1       6.947  -6.029  27.628  0.00  0.00    -0.289 N 
ATOM     10  H   UNL     1       6.364  -6.705  28.107  0.00  0.00    +0.255 HD
ATOM     11  H   UNL     1       7.295  -5.329  28.274  0.00  0.00    +0.255 HD
ATOM     12  N   UNL     1       5.636  -6.378  25.891  0.00  0.00    -0.289 N 
ATOM     13  H   UNL     1       6.119  -7.267  25.826  0.00  0.00    +0.255 HD
ATOM     14  H   UNL     1       5.249  -6.102  24.999  0.00  0.00    +0.255 HD
ENDBRANCH   6   7
BRANCH   1  17
ATOM     15  C   UNL     1       7.431  -5.929  22.264  0.00  0.00    +0.109 C 
ATOM     16  C   UNL     1       6.398  -4.893  21.904  0.00  0.00    +0.210 C 
ATOM     17  N   UNL     1       6.101  -3.907  22.798  0.00  0.00    -0.305 N 
ATOM     18  H   UNL     1       5.385  -3.273  22.460  0.00  0.00    +0.149 HD
ATOM     19  O   UNL     1       5.788  -4.932  20.835  0.00  0.00    -0.276 OA
ENDBRANCH   1  17
BRANCH   4  20
ATOM     20  C   UNL     1       5.363   0.258  25.544  0.00  0.00    +0.372 C 
ATOM     21  O   UNL     1       5.189   0.603  26.698  0.00  0.00    -0.242 OA
BRANCH  20  22
ATOM     22  O   UNL     1       5.084   1.036  24.478  0.00  0.00    -0.475 OA
ATOM     23  H   UNL     1       4.743   0.488  23.730  0.00  0.00    +0.296 HD
ENDBRANCH  20  22
ENDBRANCH   4  20
BRANCH   2  24
ATOM     24  C   UNL     1       9.038  -2.337  24.546  0.00  0.00    +0.191 C 
BRANCH  24  25
ATOM     25  O   UNL     1       9.629  -3.579  24.109  0.00  0.00    -0.373 OA
ATOM     26  C   UNL     1       9.810  -4.560  25.119  0.00  0.00    +0.194 C 
ENDBRANCH  24  25
BRANCH  24  27
ATOM     27  C   UNL     1       9.938  -1.130  24.160  0.00  0.00    +0.172 C 
BRANCH  27  28
ATOM     28  O   UNL     1       9.619   0.052  24.915  0.00  0.00    -0.387 OA
ATOM     29  H   UNL     1       9.617   0.768  24.246  0.00  0.00    +0.210 HD
ENDBRANCH  27  28
BRANCH  27  30
ATOM     30  C   UNL     1       9.889  -0.786  22.663  0.00  0.00    +0.189 C 
BRANCH  30  31
ATOM     31  O   UNL     1      10.598  -1.801  21.947  0.00  0.00    -0.392 OA
ATOM     32  H   UNL     1       9.925  -2.371  21.532  0.00  0.00    +0.210 HD
ENDBRANCH  30  31
ENDBRANCH  27  30
ENDBRANCH  24  27
ENDBRANCH   2  24
TORSDOF 10
ENDMDL
MODEL 4
REMARK VINA RESULT:      -6.2      1.791      4.722
REMARK  Name = 
REMARK  12 active torsions:
REMARK  status: ('A' for Active; 'I' for Inactive)
REMARK    1  A    between atoms: C_1  and  C_2
REMARK    2  A    between atoms: N_4  and  C_5
REMARK    3  A    between atoms: C_7  and  N_26
REMARK    4  A    between atoms: C_10  and  C_23
REMARK    5  A    between atoms: C_12  and  C_14
REMARK    6  A    between atoms: C_14  and  C_16
REMARK    7  A    between atoms: C_14  and  O_21
REMARK    8  A    between atoms: C_16  and  C_18
REMARK    9  A    between atoms: C_16  and  O_20
REMARK   10  A    between atoms: C_18  and  O_19
REMARK   11  A    between atoms: O_21  and  C_22
REMARK   12  A    between atoms: C_23  and  O_25
REMARK                            x       y       z     vdW  Elec       q    Type
REMARK                         _______ _______ _______ _____ _____    ______ ____
ROOT
ATOM      1  C   UNL     1       7.141  -3.227  23.265  0.00  0.00    +0.161 C 
ATOM      2  C   UNL     1       6.895  -1.691  23.175  0.00  0.00    +0.229 C 
ATOM      3  O   UNL     1       5.897  -1.153  24.054  0.00  0.00    -0.477 OA
ATOM      4  C   UNL     1       5.631  -1.795  25.237  0.00  0.00    +0.204 C 
ATOM      5  C   UNL     1       6.125  -2.986  25.582  0.00  0.00    +0.071 C 
ATOM      6  C   UNL     1       7.003  -3.794  24.699  0.00  0.00    +0.238 C 
ENDROOT
BRANCH   6   7
ATOM      7  N   UNL     1       8.337  -3.886  25.293  0.00  0.00    -0.104 NA
ATOM      8  C   UNL     1       8.616  -4.831  26.108  0.00  0.00    +0.377 C 
ATOM      9  N   UNL     1       9.865  -4.931  26.609  0.00  0.00    -0.289 N 
ATOM     10  H   UNL     1       9.874  -5.136  27.602  0.00  0.00    +0.255 HD
ATOM     11  H   UNL     1      10.398  -4.092  26.409  0.00  0.00    +0.255 HD
ATOM     12  N   UNL     1       7.849  -5.821  26.613  0.00  0.00    -0.289 N 
ATOM     13  H   UNL     1       8.342  -6.702  26.717  0.00  0.00    +0.255 HD
ATOM     14  H   UNL     1       6.935  -5.957  26.202  0.00  0.00    +0.255 HD
ENDBRANCH   6   7
BRANCH   1  17
ATOM     15  C   UNL     1       7.551  -6.036  22.221  0.00  0.00    +0.109 C 
ATOM     16  C   UNL     1       6.421  -5.158  21.749  0.00  0.00    +0.210 C 
ATOM     17  N   UNL     1       6.244  -3.932  22.319  0.00  0.00    -0.305 N 
ATOM     18  H   UNL     1       5.450  -3.432  21.937  0.00  0.00    +0.149 HD
ATOM     19  O   UNL     1       5.631  -5.531  20.881  0.00  0.00    -0.276 OA
ENDBRANCH   1  17
BRANCH   4  20
ATOM     20  C   UNL     1       4.727  -1.102  26.208  0.00  0.00    +0.372 C 
ATOM     21  O   UNL     1       4.318   0.038  26.101  0.00  0.00    -0.242 OA
BRANCH  20  22
ATOM     22  O   UNL     1       4.412  -1.920  27.234  0.00  0.00    -0.475 OA
ATOM     23  H   UNL     1       4.157  -1.394  28.030  0.00  0.00    +0.296 HD
ENDBRANCH  20  22
ENDBRANCH   4  20
BRANCH   2  24
ATOM     24  C   UNL     1       8.207  -0.847  23.197  0.00  0.00    +0.191 C 
BRANCH  24  25
ATOM     25  O   UNL     1       9.158  -1.556  22.375  0.00  0.00    -0.373 OA
ATOM     26  C   UNL     1      10.414  -1.820  22.980  0.00  0.00    +0.194 C 
ENDBRANCH  24  25
BRANCH  24  27
ATOM     27  C   UNL     1       8.002   0.605  22.680  0.00  0.00    +0.172 C 
BRANCH  27  28
ATOM     28  O   UNL     1       6.617   0.909  22.440  0.00  0.00    -0.387 OA
ATOM     29  H   UNL     1       6.178   0.032  22.437  0.00  0.00    +0.210 HD
ENDBRANCH  27  28
BRANCH  27  30
ATOM     30  C   UNL     1       8.803   0.916  21.405  0.00  0.00    +0.189 C 
BRANCH  30  31
ATOM     31  O   UNL     1       9.303   2.252  21.506  0.00  0.00    -0.392 OA
ATOM     32  H   UNL     1      10.156   2.266  21.034  0.00  0.00    +0.210 HD
ENDBRANCH  30  31
ENDBRANCH  27  30
ENDBRANCH  24  27
ENDBRANCH   2  24
TORSDOF 10
ENDMDL
MODEL 5
REMARK VINA RESULT:      -6.2      2.446      5.101
REMARK  Name = 
REMARK  12 active torsions:
REMARK  status: ('A' for Active; 'I' for Inactive)
REMARK    1  A    between atoms: C_1  and  C_2
REMARK    2  A    between atoms: N_4  and  C_5
REMARK    3  A    between atoms: C_7  and  N_26
REMARK    4  A    between atoms: C_10  and  C_23
REMARK    5  A    between atoms: C_12  and  C_14
REMARK    6  A    between atoms: C_14  and  C_16
REMARK    7  A    between atoms: C_14  and  O_21
REMARK    8  A    between atoms: C_16  and  C_18
REMARK    9  A    between atoms: C_16  and  O_20
REMARK   10  A    between atoms: C_18  and  O_19
REMARK   11  A    between atoms: O_21  and  C_22
REMARK   12  A    between atoms: C_23  and  O_25
REMARK                            x       y       z     vdW  Elec       q    Type
REMARK                         _______ _______ _______ _____ _____    ______ ____
ROOT
ATOM      1  C   UNL     1       6.456  -2.477  24.413  0.00  0.00    +0.161 C 
ATOM      2  C   UNL     1       7.306  -3.782  24.437  0.00  0.00    +0.229 C 
ATOM      3  O   UNL     1       6.941  -4.797  23.491  0.00  0.00    -0.477 OA
ATOM      4  C   UNL     1       6.326  -4.431  22.320  0.00  0.00    +0.204 C 
ATOM      5  C   UNL     1       5.895  -3.199  22.043  0.00  0.00    +0.071 C 
ATOM      6  C   UNL     1       5.990  -2.065  22.995  0.00  0.00    +0.238 C 
ENDROOT
BRANCH   6   7
ATOM      7  N   UNL     1       6.922  -1.067  22.471  0.00  0.00    -0.104 NA
ATOM      8  C   UNL     1       6.851   0.148  22.861  0.00  0.00    +0.377 C 
ATOM      9  N   UNL     1       7.750   1.047  22.406  0.00  0.00    -0.289 N 
ATOM     10  H   UNL     1       7.326   1.932  22.151  0.00  0.00    +0.255 HD
ATOM     11  H   UNL     1       8.278   0.662  21.631  0.00  0.00    +0.255 HD
ATOM     12  N   UNL     1       5.985   0.763  23.695  0.00  0.00    -0.289 N 
ATOM     13  H   UNL     1       6.419   1.468  24.282  0.00  0.00    +0.255 HD
ATOM     14  H   UNL     1       5.357   0.176  24.227  0.00  0.00    +0.255 HD
ENDBRANCH   6   7
BRANCH   1  17
ATOM     15  C   UNL     1       6.112  -0.979  27.019  0.00  0.00    +0.109 C 
ATOM     16  C   UNL     1       5.138  -2.034  26.561  0.00  0.00    +0.210 C 
ATOM     17  N   UNL     1       5.306  -2.613  25.338  0.00  0.00    -0.305 N 
ATOM     18  H   UNL     1       4.589  -3.298  25.126  0.00  0.00    +0.149 HD
ATOM     19  O   UNL     1       4.172  -2.366  27.250  0.00  0.00    -0.276 OA
ENDBRANCH   1  17
BRANCH   4  20
ATOM     20  C   UNL     1       6.136  -5.492  21.282  0.00  0.00    +0.372 C 
ATOM     21  O   UNL     1       5.942  -5.292  20.097  0.00  0.00    -0.242 OA
BRANCH  20  22
ATOM     22  O   UNL     1       6.217  -6.720  21.833  0.00  0.00    -0.475 OA
ATOM     23  H   UNL     1       5.860  -7.402  21.213  0.00  0.00    +0.296 HD
ENDBRANCH  20  22
ENDBRANCH   4  20
BRANCH   2  24
ATOM     24  C   UNL     1       8.844  -3.524  24.449  0.00  0.00    +0.191 C 
BRANCH  24  25
ATOM     25  O   UNL     1       9.028  -2.200  24.991  0.00  0.00    -0.373 OA
ATOM     26  C   UNL     1       9.940  -1.370  24.288  0.00  0.00    +0.194 C 
ENDBRANCH  24  25
BRANCH  24  27
ATOM     27  C   UNL     1       9.629  -4.577  25.282  0.00  0.00    +0.172 C 
BRANCH  27  28
ATOM     28  O   UNL     1       9.652  -5.867  24.648  0.00  0.00    -0.387 OA
ATOM     29  H   UNL     1      10.559  -5.937  24.283  0.00  0.00    +0.210 HD
ENDBRANCH  27  28
BRANCH  27  30
ATOM     30  C   UNL     1       9.095  -4.741  26.714  0.00  0.00    +0.189 C 
BRANCH  30  31
ATOM     31  O   UNL     1       8.365  -5.968  26.782  0.00  0.00    -0.392 OA
ATOM     32  H   UNL     1       7.814  -6.009  25.979  0.00  0.00    +0.210 HD
ENDBRANCH  30  31
ENDBRANCH  27  30
ENDBRANCH  24  27
ENDBRANCH   2  24
TORSDOF 10
ENDMDL
MODEL 6
REMARK VINA RESULT:      -6.1      2.501      4.347
REMARK  Name = 
REMARK  12 active torsions:
REMARK  status: ('A' for Active; 'I' for Inactive)
REMARK    1  A    between atoms: C_1  and  C_2
REMARK    2  A    between atoms: N_4  and  C_5
REMARK    3  A    between atoms: C_7  and  N_26
REMARK    4  A    between atoms: C_10  and  C_23
REMARK    5  A    between atoms: C_12  and  C_14
REMARK    6  A    between atoms: C_14  and  C_16
REMARK    7  A    between atoms: C_14  and  O_21
REMARK    8  A    between atoms: C_16  and  C_18
REMARK    9  A    between atoms: C_16  and  O_20
REMARK   10  A    between atoms: C_18  and  O_19
REMARK   11  A    between atoms: O_21  and  C_22
REMARK   12  A    between atoms: C_23  and  O_25
REMARK                            x       y       z     vdW  Elec       q    Type
REMARK                         _______ _______ _______ _____ _____    ______ ____
ROOT
ATOM      1  C   UNL     1       6.893  -1.806  24.381  0.00  0.00    +0.161 C 
ATOM      2  C   UNL     1       6.393  -3.125  25.045  0.00  0.00    +0.229 C 
ATOM      3  O   UNL     1       5.834  -4.109  24.163  0.00  0.00    -0.477 OA
ATOM      4  C   UNL     1       6.239  -4.142  22.853  0.00  0.00    +0.204 C 
ATOM      5  C   UNL     1       7.017  -3.224  22.276  0.00  0.00    +0.071 C 
ATOM      6  C   UNL     1       7.513  -2.014  22.977  0.00  0.00    +0.238 C 
ENDROOT
BRANCH   6   7
ATOM      7  N   UNL     1       8.967  -2.097  23.120  0.00  0.00    -0.104 NA
ATOM      8  C   UNL     1       9.731  -1.510  22.280  0.00  0.00    +0.377 C 
ATOM      9  N   UNL     1      11.069  -1.554  22.452  0.00  0.00    -0.289 N 
ATOM     10  H   UNL     1      11.571  -1.729  21.589  0.00  0.00    +0.255 HD
ATOM     11  H   UNL     1      11.315  -2.239  23.159  0.00  0.00    +0.255 HD
ATOM     12  N   UNL     1       9.446  -0.806  21.163  0.00  0.00    -0.289 N 
ATOM     13  H   UNL     1      10.056  -0.008  21.021  0.00  0.00    +0.255 HD
ATOM     14  H   UNL     1       8.478  -0.564  21.001  0.00  0.00    +0.255 HD
ENDBRANCH   6   7
BRANCH   1  17
ATOM     15  C   UNL     1       7.108   1.103  25.180  0.00  0.00    +0.109 C 
ATOM     16  C   UNL     1       5.802   0.476  24.766  0.00  0.00    +0.210 C 
ATOM     17  N   UNL     1       5.788  -0.819  24.339  0.00  0.00    -0.305 N 
ATOM     18  H   UNL     1       4.862  -1.136  24.074  0.00  0.00    +0.149 HD
ATOM     19  O   UNL     1       4.748   1.112  24.772  0.00  0.00    -0.276 OA
ENDBRANCH   1  17
BRANCH   4  20
ATOM     20  C   UNL     1       5.779  -5.297  22.019  0.00  0.00    +0.372 C 
ATOM     21  O   UNL     1       5.883  -5.379  20.809  0.00  0.00    -0.242 OA
BRANCH  20  22
ATOM     22  O   UNL     1       5.232  -6.257  22.793  0.00  0.00    -0.475 OA
ATOM     23  H   UNL     1       5.272  -5.998  23.745  0.00  0.00    +0.296 HD
ENDBRANCH  20  22
ENDBRANCH   4  20
BRANCH   2  24
ATOM     24  C   UNL     1       7.420  -3.750  26.038  0.00  0.00    +0.191 C 
BRANCH  24  25
ATOM     25  O   UNL     1       6.806  -3.692  27.343  0.00  0.00    -0.373 OA
ATOM     26  C   UNL     1       5.407  -3.454  27.352  0.00  0.00    +0.194 C 
ENDBRANCH  24  25
BRANCH  24  27
ATOM     27  C   UNL     1       7.804  -5.212  25.673  0.00  0.00    +0.172 C 
BRANCH  27  28
ATOM     28  O   UNL     1       7.924  -6.051  26.834  0.00  0.00    -0.387 OA
ATOM     29  H   UNL     1       7.066  -5.942  27.297  0.00  0.00    +0.210 HD
ENDBRANCH  27  28
BRANCH  27  30
ATOM     30  C   UNL     1       9.100  -5.315  24.854  0.00  0.00    +0.189 C 
BRANCH  30  31
ATOM     31  O   UNL     1      10.168  -5.644  25.746  0.00  0.00    -0.392 OA
ATOM     32  H   UNL     1       9.811  -6.293  26.380  0.00  0.00    +0.210 HD
ENDBRANCH  30  31
ENDBRANCH  27  30
ENDBRANCH  24  27
ENDBRANCH   2  24
TORSDOF 10
ENDMDL
MODEL 7
REMARK VINA RESULT:      -6.1      1.729      4.925
REMARK  Name = 
REMARK  12 active torsions:
REMARK  status: ('A' for Active; 'I' for Inactive)
REMARK    1  A    between atoms: C_1  and  C_2
REMARK    2  A    between atoms: N_4  and  C_5
REMARK    3  A    between atoms: C_7  and  N_26
REMARK    4  A    between atoms: C_10  and  C_23
REMARK    5  A    between atoms: C_12  and  C_14
REMARK    6  A    between atoms: C_14  and  C_16
REMARK    7  A    between atoms: C_14  and  O_21
REMARK    8  A    between atoms: C_16  and  C_18
REMARK    9  A    between atoms: C_16  and  O_20
REMARK   10  A    between atoms: C_18  and  O_19
REMARK   11  A    between atoms: O_21  and  C_22
REMARK   12  A    between atoms: C_23  and  O_25
REMARK                            x       y       z     vdW  Elec       q    Type
REMARK                         _______ _______ _______ _____ _____    ______ ____
ROOT
ATOM      1  C   UNL     1       7.265  -3.348  23.506  0.00  0.00    +0.161 C 
ATOM      2  C   UNL     1       7.783  -1.882  23.394  0.00  0.00    +0.229 C 
ATOM      3  O   UNL     1       6.904  -0.857  23.881  0.00  0.00    -0.477 OA
ATOM      4  C   UNL     1       5.998  -1.164  24.865  0.00  0.00    +0.204 C 
ATOM      5  C   UNL     1       5.757  -2.397  25.316  0.00  0.00    +0.071 C 
ATOM      6  C   UNL     1       6.416  -3.611  24.773  0.00  0.00    +0.238 C 
ENDROOT
BRANCH   6   7
ATOM      7  N   UNL     1       7.280  -4.194  25.799  0.00  0.00    -0.104 NA
ATOM      8  C   UNL     1       7.003  -5.337  26.301  0.00  0.00    +0.377 C 
ATOM      9  N   UNL     1       7.837  -5.884  27.211  0.00  0.00    -0.289 N 
ATOM     10  H   UNL     1       7.345  -6.302  27.993  0.00  0.00    +0.255 HD
ATOM     11  H   UNL     1       8.512  -5.200  27.533  0.00  0.00    +0.255 HD
ATOM     12  N   UNL     1       5.958  -6.167  26.093  0.00  0.00    -0.289 N 
ATOM     13  H   UNL     1       6.214  -7.149  26.100  0.00  0.00    +0.255 HD
ATOM     14  H   UNL     1       5.341  -5.952  25.323  0.00  0.00    +0.255 HD
ENDBRANCH   6   7
BRANCH   1  17
ATOM     15  C   UNL     1       7.222  -6.087  22.224  0.00  0.00    +0.109 C 
ATOM     16  C   UNL     1       6.534  -4.897  21.606  0.00  0.00    +0.210 C 
ATOM     17  N   UNL     1       6.522  -3.710  22.276  0.00  0.00    -0.305 N 
ATOM     18  H   UNL     1       6.023  -2.982  21.777  0.00  0.00    +0.149 HD
ATOM     19  O   UNL     1       5.952  -4.976  20.523  0.00  0.00    -0.276 OA
ENDBRANCH   1  17
BRANCH   4  20
ATOM     20  C   UNL     1       5.237  -0.031  25.477  0.00  0.00    +0.372 C 
ATOM     21  O   UNL     1       4.849   0.018  26.629  0.00  0.00    -0.242 OA
BRANCH  20  22
ATOM     22  O   UNL     1       5.038   0.953  24.575  0.00  0.00    -0.475 OA
ATOM     23  H   UNL     1       5.876   1.156  24.094  0.00  0.00    +0.296 HD
ENDBRANCH  20  22
ENDBRANCH   4  20
BRANCH   2  24
ATOM     24  C   UNL     1       9.241  -1.694  23.916  0.00  0.00    +0.191 C 
BRANCH  24  25
ATOM     25  O   UNL     1      10.071  -1.531  22.746  0.00  0.00    -0.373 OA
ATOM     26  C   UNL     1       9.459  -0.871  21.648  0.00  0.00    +0.194 C 
ENDBRANCH  24  25
BRANCH  24  27
ATOM     27  C   UNL     1       9.390  -0.479  24.873  0.00  0.00    +0.172 C 
BRANCH  27  28
ATOM     28  O   UNL     1      10.681   0.144  24.768  0.00  0.00    -0.387 OA
ATOM     29  H   UNL     1      11.156  -0.154  25.572  0.00  0.00    +0.210 HD
ENDBRANCH  27  28
BRANCH  27  30
ATOM     30  C   UNL     1       9.131  -0.829  26.347  0.00  0.00    +0.189 C 
BRANCH  30  31
ATOM     31  O   UNL     1       8.477   0.283  26.964  0.00  0.00    -0.392 OA
ATOM     32  H   UNL     1       8.835   1.085  26.542  0.00  0.00    +0.210 HD
ENDBRANCH  30  31
ENDBRANCH  27  30
ENDBRANCH  24  27
ENDBRANCH   2  24
TORSDOF 10
ENDMDL
MODEL 8
REMARK VINA RESULT:      -6.1      2.658      5.117
REMARK  Name = 
REMARK  12 active torsions:
REMARK  status: ('A' for Active; 'I' for Inactive)
REMARK    1  A    between atoms: C_1  and  C_2
REMARK    2  A    between atoms: N_4  and  C_5
REMARK    3  A    between atoms: C_7  and  N_26
REMARK    4  A    between atoms: C_10  and  C_23
REMARK    5  A    between atoms: C_12  and  C_14
REMARK    6  A    between atoms: C_14  and  C_16
REMARK    7  A    between atoms: C_14  and  O_21
REMARK    8  A    between atoms: C_16  and  C_18
REMARK    9  A    between atoms: C_16  and  O_20
REMARK   10  A    between atoms: C_18  and  O_19
REMARK   11  A    between atoms: O_21  and  C_22
REMARK   12  A    between atoms: C_23  and  O_25
REMARK                            x       y       z     vdW  Elec       q    Type
REMARK                         _______ _______ _______ _____ _____    ______ ____
ROOT
ATOM      1  C   UNL     1       5.675  -4.106  26.266  0.00  0.00    +0.161 C 
ATOM      2  C   UNL     1       5.954  -4.292  24.744  0.00  0.00    +0.229 C 
ATOM      3  O   UNL     1       7.291  -4.016  24.304  0.00  0.00    -0.477 OA
ATOM      4  C   UNL     1       8.330  -4.160  25.187  0.00  0.00    +0.204 C 
ATOM      5  C   UNL     1       8.189  -4.399  26.493  0.00  0.00    +0.071 C 
ATOM      6  C   UNL     1       6.871  -4.496  27.169  0.00  0.00    +0.238 C 
ENDROOT
BRANCH   6   7
ATOM      7  N   UNL     1       6.668  -5.866  27.642  0.00  0.00    -0.104 NA
ATOM      8  C   UNL     1       6.004  -6.086  28.711  0.00  0.00    +0.377 C 
ATOM      9  N   UNL     1       5.783  -7.357  29.109  0.00  0.00    -0.289 N 
ATOM     10  H   UNL     1       5.916  -7.486  30.105  0.00  0.00    +0.255 HD
ATOM     11  H   UNL     1       6.361  -8.001  28.580  0.00  0.00    +0.255 HD
ATOM     12  N   UNL     1       5.441  -5.236  29.597  0.00  0.00    -0.289 N 
ATOM     13  H   UNL     1       4.553  -5.562  29.963  0.00  0.00    +0.255 HD
ATOM     14  H   UNL     1       5.397  -4.259  29.339  0.00  0.00    +0.255 HD
ENDBRANCH   6   7
BRANCH   1  17
ATOM     15  C   UNL     1       2.823  -3.108  26.122  0.00  0.00    +0.109 C 
ATOM     16  C   UNL     1       3.986  -2.188  26.394  0.00  0.00    +0.210 C 
ATOM     17  N   UNL     1       5.236  -2.714  26.527  0.00  0.00    -0.305 N 
ATOM     18  H   UNL     1       5.940  -2.011  26.720  0.00  0.00    +0.149 HD
ATOM     19  O   UNL     1       3.832  -0.974  26.531  0.00  0.00    -0.276 OA
ENDBRANCH   1  17
BRANCH   4  20
ATOM     20  C   UNL     1       9.719  -4.049  24.641  0.00  0.00    +0.372 C 
ATOM     21  O   UNL     1      10.148  -3.117  23.987  0.00  0.00    -0.242 OA
BRANCH  20  22
ATOM     22  O   UNL     1      10.452  -5.131  24.977  0.00  0.00    -0.475 OA
ATOM     23  H   UNL     1       9.916  -5.955  24.881  0.00  0.00    +0.296 HD
ENDBRANCH  20  22
ENDBRANCH   4  20
BRANCH   2  24
ATOM     24  C   UNL     1       5.420  -5.641  24.173  0.00  0.00    +0.191 C 
BRANCH  24  25
ATOM     25  O   UNL     1       4.207  -5.936  24.898  0.00  0.00    -0.373 OA
ATOM     26  C   UNL     1       4.132  -7.235  25.464  0.00  0.00    +0.194 C 
ENDBRANCH  24  25
BRANCH  24  27
ATOM     27  C   UNL     1       5.150  -5.586  22.643  0.00  0.00    +0.172 C 
BRANCH  27  28
ATOM     28  O   UNL     1       3.905  -6.211  22.286  0.00  0.00    -0.387 OA
ATOM     29  H   UNL     1       3.951  -6.293  21.309  0.00  0.00    +0.210 HD
ENDBRANCH  27  28
BRANCH  27  30
ATOM     30  C   UNL     1       6.274  -6.212  21.802  0.00  0.00    +0.189 C 
BRANCH  30  31
ATOM     31  O   UNL     1       7.331  -5.256  21.685  0.00  0.00    -0.392 OA
ATOM     32  H   UNL     1       7.684  -5.341  20.781  0.00  0.00    +0.210 HD
ENDBRANCH  30  31
ENDBRANCH  27  30
ENDBRANCH  24  27
ENDBRANCH   2  24
TORSDOF 10
ENDMDL
MODEL 9
REMARK VINA RESULT:      -5.9      5.077      7.906
REMARK  Name = 
REMARK  12 active torsions:
REMARK  status: ('A' for Active; 'I' for Inactive)
REMARK    1  A    between atoms: C_1  and  C_2
REMARK    2  A    between atoms: N_4  and  C_5
REMARK    3  A    between atoms: C_7  and  N_26
REMARK    4  A    between atoms: C_10  and  C_23
REMARK    5  A    between atoms: C_12  and  C_14
REMARK    6  A    between atoms: C_14  and  C_16
REMARK    7  A    between atoms: C_14  and  O_21
REMARK    8  A    between atoms: C_16  and  C_18
REMARK    9  A    between atoms: C_16  and  O_20
REMARK   10  A    between atoms: C_18  and  O_19
REMARK   11  A    between atoms: O_21  and  C_22
REMARK   12  A    between atoms: C_23  and  O_25
REMARK                            x       y       z     vdW  Elec       q    Type
REMARK                         _______ _______ _______ _____ _____    ______ ____
ROOT
ATOM      1  C   UNL     1       8.720   2.327  24.009  0.00  0.00    +0.161 C 
ATOM      2  C   UNL     1       8.496   3.822  23.631  0.00  0.00    +0.229 C 
ATOM      3  O   UNL     1       9.648   4.676  23.700  0.00  0.00    -0.477 OA
ATOM      4  C   UNL     1      10.896   4.132  23.530  0.00  0.00    +0.204 C 
ATOM      5  C   UNL     1      11.148   2.823  23.449  0.00  0.00    +0.071 C 
ATOM      6  C   UNL     1      10.103   1.778  23.579  0.00  0.00    +0.238 C 
ENDROOT
BRANCH   6   7
ATOM      7  N   UNL     1       9.950   1.083  22.301  0.00  0.00    -0.104 NA
ATOM      8  C   UNL     1       9.797  -0.186  22.272  0.00  0.00    +0.377 C 
ATOM      9  N   UNL     1       9.607  -0.807  21.089  0.00  0.00    -0.289 N 
ATOM     10  H   UNL     1      10.144  -1.662  21.004  0.00  0.00    +0.255 HD
ATOM     11  H   UNL     1       9.807  -0.177  20.319  0.00  0.00    +0.255 HD
ATOM     12  N   UNL     1       9.794  -1.102  23.265  0.00  0.00    -0.289 N 
ATOM     13  H   UNL     1       9.121  -1.848  23.125  0.00  0.00    +0.255 HD
ATOM     14  H   UNL     1       9.770  -0.757  24.215  0.00  0.00    +0.255 HD
ENDBRANCH   6   7
BRANCH   1  17
ATOM     15  C   UNL     1       6.639   0.514  25.246  0.00  0.00    +0.109 C 
ATOM     16  C   UNL     1       7.523   1.409  26.075  0.00  0.00    +0.210 C 
ATOM     17  N   UNL     1       8.496   2.140  25.462  0.00  0.00    -0.305 N 
ATOM     18  H   UNL     1       9.039   2.696  26.113  0.00  0.00    +0.149 HD
ATOM     19  O   UNL     1       7.411   1.474  27.300  0.00  0.00    -0.276 OA
ENDBRANCH   1  17
BRANCH   4  20
ATOM     20  C   UNL     1      12.050   5.077  23.418  0.00  0.00    +0.372 C 
ATOM     21  O   UNL     1      12.574   5.665  24.346  0.00  0.00    -0.242 OA
BRANCH  20  22
ATOM     22  O   UNL     1      12.449   5.194  22.134  0.00  0.00    -0.475 OA
ATOM     23  H   UNL     1      13.050   4.448  21.891  0.00  0.00    +0.296 HD
ENDBRANCH  20  22
ENDBRANCH   4  20
BRANCH   2  24
ATOM     24  C   UNL     1       7.706   4.017  22.301  0.00  0.00    +0.191 C 
BRANCH  24  25
ATOM     25  O   UNL     1       6.808   2.893  22.195  0.00  0.00    -0.373 OA
ATOM     26  C   UNL     1       5.452   3.160  22.517  0.00  0.00    +0.194 C 
ENDBRANCH  24  25
BRANCH  24  27
ATOM     27  C   UNL     1       6.921   5.358  22.254  0.00  0.00    +0.172 C 
BRANCH  27  28
ATOM     28  O   UNL     1       7.432   6.255  21.252  0.00  0.00    -0.387 OA
ATOM     29  H   UNL     1       7.978   5.681  20.674  0.00  0.00    +0.210 HD
ENDBRANCH  27  28
BRANCH  27  30
ATOM     30  C   UNL     1       6.889   6.093  23.603  0.00  0.00    +0.189 C 
BRANCH  30  31
ATOM     31  O   UNL     1       7.898   7.107  23.586  0.00  0.00    -0.392 OA
ATOM     32  H   UNL     1       8.745   6.659  23.763  0.00  0.00    +0.210 HD
ENDBRANCH  30  31
ENDBRANCH  27  30
ENDBRANCH  24  27
ENDBRANCH   2  24
TORSDOF 10
ENDMDL
