MODEL 1
REMARK VINA RESULT:      -6.6      0.000      0.000
REMARK  Name = 
REMARK  9 active torsions:
REMARK  status: ('A' for Active; 'I' for Inactive)
REMARK    1  A    between atoms: C_1  and  C_2
REMARK    2  A    between atoms: N_4  and  C_5
REMARK    3  A    between atoms: C_7  and  N_24
REMARK    4  A    between atoms: C_10  and  C_21
REMARK    5  A    between atoms: C_13  and  C_16
REMARK    6  A    between atoms: C_16  and  C_18
REMARK    7  A    between atoms: C_16  and  O_20
REMARK    8  A    between atoms: C_18  and  O_19
REMARK    9  A    between atoms: C_21  and  O_23
REMARK                            x       y       z     vdW  Elec       q    Type
REMARK                         _______ _______ _______ _____ _____    ______ ____
ROOT
ATOM      1  C   UNL     1       8.393  -1.588  24.163  0.00  0.00    +0.192 C 
ATOM      2  C   UNL     1       8.768  -3.056  24.167  0.00  0.00    +0.264 C 
ATOM      3  O   UNL     1      10.173  -3.353  24.200  0.00  0.00    -0.323 OA
ATOM      4  C   UNL     1       9.464  -3.576  25.420  0.00  0.00    +0.227 C 
ATOM      5  O   UNL     1       7.944  -4.010  23.458  0.00  0.00    -0.449 OA
ATOM      6  C   UNL     1       7.279  -3.532  22.344  0.00  0.00    +0.207 C 
ATOM      7  C   UNL     1       7.137  -2.237  22.039  0.00  0.00    +0.072 C 
ATOM      8  C   UNL     1       7.660  -1.123  22.877  0.00  0.00    +0.241 C 
ENDROOT
BRANCH   8   9
ATOM      9  N   UNL     1       8.592  -0.320  22.071  0.00  0.00    -0.104 NA
ATOM     10  C   UNL     1       8.559   0.956  22.100  0.00  0.00    +0.377 C 
ATOM     11  N   UNL     1       9.443   1.673  21.375  0.00  0.00    -0.289 N 
ATOM     12  H   UNL     1       9.028   2.477  20.918  0.00  0.00    +0.255 HD
ATOM     13  H   UNL     1       9.919   1.082  20.699  0.00  0.00    +0.255 HD
ATOM     14  N   UNL     1       7.731   1.801  22.753  0.00  0.00    -0.289 N 
ATOM     15  H   UNL     1       8.199   2.626  23.111  0.00  0.00    +0.255 HD
ATOM     16  H   UNL     1       7.111   1.395  23.439  0.00  0.00    +0.255 HD
ENDBRANCH   8   9
BRANCH   1  19
ATOM     17  C   UNL     1       6.956   0.118  27.264  0.00  0.00    +0.109 C 
ATOM     18  C   UNL     1       7.786   0.005  26.015  0.00  0.00    +0.210 C 
ATOM     19  N   UNL     1       7.672  -1.215  25.395  0.00  0.00    -0.303 N 
ATOM     20  H   UNL     1       7.138  -1.946  25.848  0.00  0.00    +0.149 HD
ATOM     21  O   UNL     1       8.476   0.928  25.597  0.00  0.00    -0.276 OA
ENDBRANCH   1  19
BRANCH   6  22
ATOM     22  C   UNL     1       6.616  -4.532  21.450  0.00  0.00    +0.372 C 
ATOM     23  O   UNL     1       5.704  -4.290  20.675  0.00  0.00    -0.242 OA
BRANCH  22  24
ATOM     24  O   UNL     1       7.145  -5.764  21.608  0.00  0.00    -0.475 OA
ATOM     25  H   UNL     1       7.529  -5.861  22.501  0.00  0.00    +0.296 HD
ENDBRANCH  22  24
ENDBRANCH   6  22
BRANCH   4  26
ATOM     26  C   UNL     1       9.302  -4.980  25.896  0.00  0.00    +0.175 C 
BRANCH  26  27
ATOM     27  O   UNL     1       9.711  -5.863  24.837  0.00  0.00    -0.387 OA
ATOM     28  H   UNL     1       9.220  -6.697  24.980  0.00  0.00    +0.210 HD
ENDBRANCH  26  27
BRANCH  26  29
ATOM     29  C   UNL     1       7.877  -5.363  26.309  0.00  0.00    +0.190 C 
BRANCH  29  30
ATOM     30  O   UNL     1       7.913  -5.966  27.607  0.00  0.00    -0.392 OA
ATOM     31  H   UNL     1       8.847  -6.065  27.863  0.00  0.00    +0.210 HD
ENDBRANCH  29  30
ENDBRANCH  26  29
ENDBRANCH   4  26
TORSDOF 8
ENDMDL
MODEL 2
REMARK VINA RESULT:      -6.4      4.205      8.071
REMARK  Name = 
REMARK  9 active torsions:
REMARK  status: ('A' for Active; 'I' for Inactive)
REMARK    1  A    between atoms: C_1  and  C_2
REMARK    2  A    between atoms: N_4  and  C_5
REMARK    3  A    between atoms: C_7  and  N_24
REMARK    4  A    between atoms: C_10  and  C_21
REMARK    5  A    between atoms: C_13  and  C_16
REMARK    6  A    between atoms: C_16  and  C_18
REMARK    7  A    between atoms: C_16  and  O_20
REMARK    8  A    between atoms: C_18  and  O_19
REMARK    9  A    between atoms: C_21  and  O_23
REMARK                            x       y       z     vdW  Elec       q    Type
REMARK                         _______ _______ _______ _____ _____    ______ ____
ROOT
ATOM      1  C   UNL     1       8.826   2.212  24.003  0.00  0.00    +0.192 C 
ATOM      2  C   UNL     1       8.619   3.622  23.486  0.00  0.00    +0.264 C 
ATOM      3  O   UNL     1       7.730   3.764  22.367  0.00  0.00    -0.323 OA
ATOM      4  C   UNL     1       7.213   4.197  23.627  0.00  0.00    +0.227 C 
ATOM      5  O   UNL     1       9.703   4.576  23.548  0.00  0.00    -0.449 OA
ATOM      6  C   UNL     1      10.981   4.055  23.461  0.00  0.00    +0.207 C 
ATOM      7  C   UNL     1      11.284   2.757  23.586  0.00  0.00    +0.072 C 
ATOM      8  C   UNL     1      10.281   1.692  23.862  0.00  0.00    +0.241 C 
ENDROOT
BRANCH   8   9
ATOM      9  N   UNL     1      10.322   0.708  22.770  0.00  0.00    -0.104 NA
ATOM     10  C   UNL     1      10.160  -0.538  22.998  0.00  0.00    +0.377 C 
ATOM     11  N   UNL     1      10.172  -1.421  21.978  0.00  0.00    -0.289 N 
ATOM     12  H   UNL     1      10.680  -2.273  22.191  0.00  0.00    +0.255 HD
ATOM     13  H   UNL     1      10.535  -0.990  21.132  0.00  0.00    +0.255 HD
ATOM     14  N   UNL     1       9.982  -1.204  24.160  0.00  0.00    -0.289 N 
ATOM     15  H   UNL     1       9.325  -1.973  24.087  0.00  0.00    +0.255 HD
ATOM     16  H   UNL     1       9.815  -0.648  24.986  0.00  0.00    +0.255 HD
ENDBRANCH   8   9
BRANCH   1  19
ATOM     17  C   UNL     1       7.138   1.079  27.236  0.00  0.00    +0.109 C 
ATOM     18  C   UNL     1       7.570   0.975  25.800  0.00  0.00    +0.210 C 
ATOM     19  N   UNL     1       8.298   2.059  25.371  0.00  0.00    -0.303 N 
ATOM     20  H   UNL     1       8.407   2.851  25.992  0.00  0.00    +0.149 HD
ATOM     21  O   UNL     1       7.306   0.004  25.101  0.00  0.00    -0.276 OA
ENDBRANCH   1  19
BRANCH   6  22
ATOM     22  C   UNL     1      12.111   5.017  23.278  0.00  0.00    +0.372 C 
ATOM     23  O   UNL     1      12.684   5.612  24.177  0.00  0.00    -0.242 OA
BRANCH  22  24
ATOM     24  O   UNL     1      12.429   5.165  21.973  0.00  0.00    -0.475 OA
ATOM     25  H   UNL     1      12.135   6.036  21.646  0.00  0.00    +0.296 HD
ENDBRANCH  22  24
ENDBRANCH   6  22
BRANCH   4  26
ATOM     26  C   UNL     1       6.966   5.654  23.825  0.00  0.00    +0.175 C 
BRANCH  26  27
ATOM     27  O   UNL     1       5.832   5.802  24.697  0.00  0.00    -0.387 OA
ATOM     28  H   UNL     1       6.148   5.557  25.590  0.00  0.00    +0.210 HD
ENDBRANCH  26  27
BRANCH  26  29
ATOM     29  C   UNL     1       6.684   6.442  22.542  0.00  0.00    +0.190 C 
BRANCH  29  30
ATOM     30  O   UNL     1       7.841   6.392  21.700  0.00  0.00    -0.392 OA
ATOM     31  H   UNL     1       8.573   6.827  22.173  0.00  0.00    +0.210 HD
ENDBRANCH  29  30
ENDBRANCH  26  29
ENDBRANCH   4  26
TORSDOF 8
ENDMDL
MODEL 3
REMARK VINA RESULT:      -6.3      1.854      4.492
REMARK  Name = 
REMARK  9 active torsions:
REMARK  status: ('A' for Active; 'I' for Inactive)
REMARK    1  A    between atoms: C_1  and  C_2
REMARK    2  A    between atoms: N_4  and  C_5
REMARK    3  A    between atoms: C_7  and  N_24
REMARK    4  A    between atoms: C_10  and  C_21
REMARK    5  A    between atoms: C_13  and  C_16
REMARK    6  A    between atoms: C_16  and  C_18
REMARK    7  A    between atoms: C_16  and  O_20
REMARK    8  A    between atoms: C_18  and  O_19
REMARK    9  A    between atoms: C_21  and  O_23
REMARK                            x       y       z     vdW  Elec       q    Type
REMARK                         _______ _______ _______ _____ _____    ______ ____
ROOT
ATOM      1  C   UNL     1       7.458  -1.426  24.220  0.00  0.00    +0.192 C 
ATOM      2  C   UNL     1       6.801  -2.781  24.044  0.00  0.00    +0.264 C 
ATOM      3  O   UNL     1       5.370  -2.782  23.917  0.00  0.00    -0.323 OA
ATOM      4  C   UNL     1       6.100  -3.028  22.712  0.00  0.00    +0.227 C 
ATOM      5  O   UNL     1       7.373  -3.945  24.684  0.00  0.00    -0.449 OA
ATOM      6  C   UNL     1       8.045  -3.721  25.871  0.00  0.00    +0.207 C 
ATOM      7  C   UNL     1       8.420  -2.516  26.317  0.00  0.00    +0.072 C 
ATOM      8  C   UNL     1       8.182  -1.244  25.580  0.00  0.00    +0.241 C 
ENDROOT
BRANCH   8   9
ATOM      9  N   UNL     1       7.376  -0.350  26.424  0.00  0.00    -0.104 NA
ATOM     10  C   UNL     1       7.522   0.918  26.369  0.00  0.00    +0.377 C 
ATOM     11  N   UNL     1       6.751   1.722  27.131  0.00  0.00    -0.289 N 
ATOM     12  H   UNL     1       7.264   2.491  27.547  0.00  0.00    +0.255 HD
ATOM     13  H   UNL     1       6.266   1.186  27.845  0.00  0.00    +0.255 HD
ATOM     14  N   UNL     1       8.382   1.675  25.652  0.00  0.00    -0.289 N 
ATOM     15  H   UNL     1       7.970   2.534  25.307  0.00  0.00    +0.255 HD
ATOM     16  H   UNL     1       8.920   1.205  24.939  0.00  0.00    +0.255 HD
ENDBRANCH   8   9
BRANCH   1  19
ATOM     17  C   UNL     1       9.288   0.202  21.290  0.00  0.00    +0.109 C 
ATOM     18  C   UNL     1       8.333   0.134  22.449  0.00  0.00    +0.210 C 
ATOM     19  N   UNL     1       8.317  -1.092  23.069  0.00  0.00    -0.303 N 
ATOM     20  H   UNL     1       8.851  -1.851  22.664  0.00  0.00    +0.149 HD
ATOM     21  O   UNL     1       7.659   1.093  22.805  0.00  0.00    -0.276 OA
ENDBRANCH   1  19
BRANCH   6  22
ATOM     22  C   UNL     1       8.438  -4.914  26.682  0.00  0.00    +0.372 C 
ATOM     23  O   UNL     1       7.689  -5.556  27.401  0.00  0.00    -0.242 OA
BRANCH  22  24
ATOM     24  O   UNL     1       9.750  -5.202  26.534  0.00  0.00    -0.475 OA
ATOM     25  H   UNL     1      10.251  -4.401  26.292  0.00  0.00    +0.296 HD
ENDBRANCH  22  24
ENDBRANCH   6  22
BRANCH   4  26
ATOM     26  C   UNL     1       6.012  -4.384  22.098  0.00  0.00    +0.175 C 
BRANCH  26  27
ATOM     27  O   UNL     1       5.804  -4.224  20.685  0.00  0.00    -0.387 OA
ATOM     28  H   UNL     1       6.326  -4.933  20.256  0.00  0.00    +0.210 HD
ENDBRANCH  26  27
BRANCH  26  29
ATOM     29  C   UNL     1       4.887  -5.269  22.645  0.00  0.00    +0.190 C 
BRANCH  29  30
ATOM     30  O   UNL     1       5.332  -5.895  23.855  0.00  0.00    -0.392 OA
ATOM     31  H   UNL     1       4.777  -6.680  24.005  0.00  0.00    +0.210 HD
ENDBRANCH  29  30
ENDBRANCH  26  29
ENDBRANCH   4  26
TORSDOF 8
ENDMDL
MODEL 4
REMARK VINA RESULT:      -6.3      2.860      6.373
REMARK  Name = 
REMARK  9 active torsions:
REMARK  status: ('A' for Active; 'I' for Inactive)
REMARK    1  A    between atoms: C_1  and  C_2
REMARK    2  A    between atoms: N_4  and  C_5
REMARK    3  A    between atoms: C_7  and  N_24
REMARK    4  A    between atoms: C_10  and  C_21
REMARK    5  A    between atoms: C_13  and  C_16
REMARK    6  A    between atoms: C_16  and  C_18
REMARK    7  A    between atoms: C_16  and  O_20
REMARK    8  A    between atoms: C_18  and  O_19
REMARK    9  A    between atoms: C_21  and  O_23
REMARK                            x       y       z     vdW  Elec       q    Type
REMARK                         _______ _______ _______ _____ _____    ______ ____
ROOT
ATOM      1  C   UNL     1       7.435  -3.146  24.001  0.00  0.00    +0.192 C 
ATOM      2  C   UNL     1       7.949  -1.734  23.802  0.00  0.00    +0.264 C 
ATOM      3  O   UNL     1       9.358  -1.537  23.999  0.00  0.00    -0.323 OA
ATOM      4  C   UNL     1       8.914  -1.521  22.641  0.00  0.00    +0.227 C 
ATOM      5  O   UNL     1       7.107  -0.609  24.141  0.00  0.00    -0.449 OA
ATOM      6  C   UNL     1       6.201  -0.811  25.166  0.00  0.00    +0.207 C 
ATOM      7  C   UNL     1       5.877  -2.008  25.670  0.00  0.00    +0.072 C 
ATOM      8  C   UNL     1       6.433  -3.297  25.176  0.00  0.00    +0.241 C 
ENDROOT
BRANCH   8   9
ATOM      9  N   UNL     1       7.114  -3.978  26.287  0.00  0.00    -0.104 NA
ATOM     10  C   UNL     1       6.951  -5.227  26.496  0.00  0.00    +0.377 C 
ATOM     11  N   UNL     1       7.608  -5.837  27.504  0.00  0.00    -0.289 N 
ATOM     12  H   UNL     1       7.034  -6.499  28.014  0.00  0.00    +0.255 HD
ATOM     13  H   UNL     1       8.014  -5.153  28.136  0.00  0.00    +0.255 HD
ATOM     14  N   UNL     1       6.168  -6.130  25.864  0.00  0.00    -0.289 N 
ATOM     15  H   UNL     1       6.602  -7.041  25.769  0.00  0.00    +0.255 HD
ATOM     16  H   UNL     1       5.729  -5.833  25.005  0.00  0.00    +0.255 HD
ENDBRANCH   8   9
BRANCH   1  19
ATOM     17  C   UNL     1       6.472  -5.339  21.026  0.00  0.00    +0.109 C 
ATOM     18  C   UNL     1       7.074  -5.027  22.368  0.00  0.00    +0.210 C 
ATOM     19  N   UNL     1       6.922  -3.714  22.740  0.00  0.00    -0.303 N 
ATOM     20  H   UNL     1       6.520  -3.062  22.078  0.00  0.00    +0.149 HD
ATOM     21  O   UNL     1       7.625  -5.878  23.056  0.00  0.00    -0.276 OA
ENDBRANCH   1  19
BRANCH   6  22
ATOM     22  C   UNL     1       5.487   0.386  25.707  0.00  0.00    +0.372 C 
ATOM     23  O   UNL     1       5.471   0.730  26.878  0.00  0.00    -0.242 OA
BRANCH  22  24
ATOM     24  O   UNL     1       4.836   1.056  24.731  0.00  0.00    -0.475 OA
ATOM     25  H   UNL     1       4.586   0.451  24.008  0.00  0.00    +0.296 HD
ENDBRANCH  22  24
ENDBRANCH   6  22
BRANCH   4  26
ATOM     26  C   UNL     1       8.985  -0.234  21.891  0.00  0.00    +0.175 C 
BRANCH  26  27
ATOM     27  O   UNL     1       9.319  -0.528  20.524  0.00  0.00    -0.387 OA
ATOM     28  H   UNL     1       9.474   0.338  20.095  0.00  0.00    +0.210 HD
ENDBRANCH  26  27
BRANCH  26  29
ATOM     29  C   UNL     1      10.013   0.770  22.425  0.00  0.00    +0.190 C 
BRANCH  29  30
ATOM     30  O   UNL     1      10.032   1.918  21.570  0.00  0.00    -0.392 OA
ATOM     31  H   UNL     1       9.422   1.749  20.830  0.00  0.00    +0.210 HD
ENDBRANCH  29  30
ENDBRANCH  26  29
ENDBRANCH   4  26
TORSDOF 8
ENDMDL
MODEL 5
REMARK VINA RESULT:      -5.9      3.223      6.087
REMARK  Name = 
REMARK  9 active torsions:
REMARK  status: ('A' for Active; 'I' for Inactive)
REMARK    1  A    between atoms: C_1  and  C_2
REMARK    2  A    between atoms: N_4  and  C_5
REMARK    3  A    between atoms: C_7  and  N_24
REMARK    4  A    between atoms: C_10  and  C_21
REMARK    5  A    between atoms: C_13  and  C_16
REMARK    6  A    between atoms: C_16  and  C_18
REMARK    7  A    between atoms: C_16  and  O_20
REMARK    8  A    between atoms: C_18  and  O_19
REMARK    9  A    between atoms: C_21  and  O_23
REMARK                            x       y       z     vdW  Elec       q    Type
REMARK                         _______ _______ _______ _____ _____    ______ ____
ROOT
ATOM      1  C   UNL     1       7.717  -4.181  24.624  0.00  0.00    +0.192 C 
ATOM      2  C   UNL     1       8.155  -2.746  24.410  0.00  0.00    +0.264 C 
ATOM      3  O   UNL     1       9.446  -2.392  24.933  0.00  0.00    -0.323 OA
ATOM      4  C   UNL     1       9.370  -2.534  23.513  0.00  0.00    +0.227 C 
ATOM      5  O   UNL     1       7.171  -1.687  24.405  0.00  0.00    -0.449 OA
ATOM      6  C   UNL     1       6.049  -1.893  25.186  0.00  0.00    +0.207 C 
ATOM      7  C   UNL     1       5.697  -3.070  25.717  0.00  0.00    +0.072 C 
ATOM      8  C   UNL     1       6.459  -4.334  25.519  0.00  0.00    +0.241 C 
ENDROOT
BRANCH   8   9
ATOM      9  N   UNL     1       6.878  -4.846  26.832  0.00  0.00    -0.104 NA
ATOM     10  C   UNL     1       6.365  -5.909  27.320  0.00  0.00    +0.377 C 
ATOM     11  N   UNL     1       6.786  -6.378  28.513  0.00  0.00    -0.289 N 
ATOM     12  H   UNL     1       6.030  -6.709  29.103  0.00  0.00    +0.255 HD
ATOM     13  H   UNL     1       7.340  -5.679  29.000  0.00  0.00    +0.255 HD
ATOM     14  N   UNL     1       5.389  -6.714  26.845  0.00  0.00    -0.289 N 
ATOM     15  H   UNL     1       5.556  -7.698  27.025  0.00  0.00    +0.255 HD
ATOM     16  H   UNL     1       5.085  -6.553  25.896  0.00  0.00    +0.255 HD
ENDBRANCH   8   9
BRANCH   1  19
ATOM     17  C   UNL     1       6.656  -5.614  21.246  0.00  0.00    +0.109 C 
ATOM     18  C   UNL     1       6.543  -4.749  22.471  0.00  0.00    +0.210 C 
ATOM     19  N   UNL     1       7.594  -4.901  23.343  0.00  0.00    -0.303 N 
ATOM     20  H   UNL     1       8.286  -5.615  23.154  0.00  0.00    +0.149 HD
ATOM     21  O   UNL     1       5.609  -3.977  22.648  0.00  0.00    -0.276 OA
ENDBRANCH   1  19
BRANCH   6  22
ATOM     22  C   UNL     1       5.129  -0.733  25.399  0.00  0.00    +0.372 C 
ATOM     23  O   UNL     1       4.229  -0.688  26.223  0.00  0.00    -0.242 OA
BRANCH  22  24
ATOM     24  O   UNL     1       5.406   0.280  24.549  0.00  0.00    -0.475 OA
ATOM     25  H   UNL     1       4.607   0.816  24.384  0.00  0.00    +0.296 HD
ENDBRANCH  22  24
ENDBRANCH   6  22
BRANCH   4  26
ATOM     26  C   UNL     1       9.534  -1.314  22.672  0.00  0.00    +0.175 C 
BRANCH  26  27
ATOM     27  O   UNL     1      10.301  -1.669  21.509  0.00  0.00    -0.387 OA
ATOM     28  H   UNL     1      10.795  -2.478  21.752  0.00  0.00    +0.210 HD
ENDBRANCH  26  27
BRANCH  26  29
ATOM     29  C   UNL     1      10.238  -0.142  23.364  0.00  0.00    +0.190 C 
BRANCH  29  30
ATOM     30  O   UNL     1       9.313   0.505  24.245  0.00  0.00    -0.392 OA
ATOM     31  H   UNL     1       9.816   0.850  25.004  0.00  0.00    +0.210 HD
ENDBRANCH  29  30
ENDBRANCH  26  29
ENDBRANCH   4  26
TORSDOF 8
ENDMDL
MODEL 6
REMARK VINA RESULT:      -5.9      1.886      2.397
REMARK  Name = 
REMARK  9 active torsions:
REMARK  status: ('A' for Active; 'I' for Inactive)
REMARK    1  A    between atoms: C_1  and  C_2
REMARK    2  A    between atoms: N_4  and  C_5
REMARK    3  A    between atoms: C_7  and  N_24
REMARK    4  A    between atoms: C_10  and  C_21
REMARK    5  A    between atoms: C_13  and  C_16
REMARK    6  A    between atoms: C_16  and  C_18
REMARK    7  A    between atoms: C_16  and  O_20
REMARK    8  A    between atoms: C_18  and  O_19
REMARK    9  A    between atoms: C_21  and  O_23
REMARK                            x       y       z     vdW  Elec       q    Type
REMARK                         _______ _______ _______ _____ _____    ______ ____
ROOT
ATOM      1  C   UNL     1       7.084  -2.655  24.663  0.00  0.00    +0.192 C 
ATOM      2  C   UNL     1       6.880  -4.129  24.951  0.00  0.00    +0.264 C 
ATOM      3  O   UNL     1       7.840  -4.744  25.825  0.00  0.00    -0.323 OA
ATOM      4  C   UNL     1       6.552  -4.498  26.394  0.00  0.00    +0.227 C 
ATOM      5  O   UNL     1       6.319  -4.989  23.933  0.00  0.00    -0.449 OA
ATOM      6  C   UNL     1       6.580  -4.634  22.623  0.00  0.00    +0.207 C 
ATOM      7  C   UNL     1       7.070  -3.450  22.238  0.00  0.00    +0.072 C 
ATOM      8  C   UNL     1       7.383  -2.335  23.174  0.00  0.00    +0.241 C 
ENDROOT
BRANCH   8   9
ATOM      9  N   UNL     1       8.807  -1.993  23.046  0.00  0.00    -0.104 NA
ATOM     10  C   UNL     1       9.201  -0.779  23.091  0.00  0.00    +0.377 C 
ATOM     11  N   UNL     1      10.515  -0.490  23.000  0.00  0.00    -0.289 N 
ATOM     12  H   UNL     1      10.709   0.315  22.414  0.00  0.00    +0.255 HD
ATOM     13  H   UNL     1      11.042  -1.299  22.683  0.00  0.00    +0.255 HD
ATOM     14  N   UNL     1       8.499   0.371  23.200  0.00  0.00    -0.289 N 
ATOM     15  H   UNL     1       8.953   1.065  23.782  0.00  0.00    +0.255 HD
ATOM     16  H   UNL     1       7.516   0.288  23.414  0.00  0.00    +0.255 HD
ENDBRANCH   8   9
BRANCH   1  19
ATOM     17  C   UNL     1       4.859  -0.017  26.301  0.00  0.00    +0.109 C 
ATOM     18  C   UNL     1       6.148  -0.625  25.821  0.00  0.00    +0.210 C 
ATOM     19  N   UNL     1       5.980  -1.843  25.208  0.00  0.00    -0.303 N 
ATOM     20  H   UNL     1       5.060  -2.266  25.206  0.00  0.00    +0.149 HD
ATOM     21  O   UNL     1       7.230  -0.066  25.955  0.00  0.00    -0.276 OA
ENDBRANCH   1  19
BRANCH   6  22
ATOM     22  C   UNL     1       6.229  -5.620  21.554  0.00  0.00    +0.372 C 
ATOM     23  O   UNL     1       5.938  -5.339  20.402  0.00  0.00    -0.242 OA
BRANCH  22  24
ATOM     24  O   UNL     1       6.260  -6.887  22.021  0.00  0.00    -0.475 OA
ATOM     25  H   UNL     1       7.005  -7.379  21.628  0.00  0.00    +0.296 HD
ENDBRANCH  22  24
ENDBRANCH   6  22
BRANCH   4  26
ATOM     26  C   UNL     1       5.699  -5.672  26.741  0.00  0.00    +0.175 C 
BRANCH  26  27
ATOM     27  O   UNL     1       4.322  -5.284  26.595  0.00  0.00    -0.387 OA
ATOM     28  H   UNL     1       4.334  -4.327  26.390  0.00  0.00    +0.210 HD
ENDBRANCH  26  27
BRANCH  26  29
ATOM     29  C   UNL     1       5.891  -6.214  28.161  0.00  0.00    +0.190 C 
BRANCH  29  30
ATOM     30  O   UNL     1       7.288  -6.428  28.394  0.00  0.00    -0.392 OA
ATOM     31  H   UNL     1       7.466  -6.242  29.333  0.00  0.00    +0.210 HD
ENDBRANCH  29  30
ENDBRANCH  26  29
ENDBRANCH   4  26
TORSDOF 8
ENDMDL
MODEL 7
REMARK VINA RESULT:      -5.8      3.720      6.557
REMARK  Name = 
REMARK  9 active torsions:
REMARK  status: ('A' for Active; 'I' for Inactive)
REMARK    1  A    between atoms: C_1  and  C_2
REMARK    2  A    between atoms: N_4  and  C_5
REMARK    3  A    between atoms: C_7  and  N_24
REMARK    4  A    between atoms: C_10  and  C_21
REMARK    5  A    between atoms: C_13  and  C_16
REMARK    6  A    between atoms: C_16  and  C_18
REMARK    7  A    between atoms: C_16  and  O_20
REMARK    8  A    between atoms: C_18  and  O_19
REMARK    9  A    between atoms: C_21  and  O_23
REMARK                            x       y       z     vdW  Elec       q    Type
REMARK                         _______ _______ _______ _____ _____    ______ ____
ROOT
ATOM      1  C   UNL     1       5.453  -4.900  24.663  0.00  0.00    +0.192 C 
ATOM      2  C   UNL     1       4.224  -5.626  25.175  0.00  0.00    +0.264 C 
ATOM      3  O   UNL     1       2.984  -4.905  25.102  0.00  0.00    -0.323 OA
ATOM      4  C   UNL     1       3.150  -5.952  24.143  0.00  0.00    +0.227 C 
ATOM      5  O   UNL     1       4.345  -6.552  26.279  0.00  0.00    -0.449 OA
ATOM      6  C   UNL     1       5.345  -6.283  27.195  0.00  0.00    +0.207 C 
ATOM      7  C   UNL     1       6.342  -5.412  26.999  0.00  0.00    +0.072 C 
ATOM      8  C   UNL     1       6.525  -4.623  25.750  0.00  0.00    +0.241 C 
ENDROOT
BRANCH   8   9
ATOM      9  N   UNL     1       6.495  -3.192  26.083  0.00  0.00    -0.104 NA
ATOM     10  C   UNL     1       7.257  -2.359  25.487  0.00  0.00    +0.377 C 
ATOM     11  N   UNL     1       7.192  -1.045  25.788  0.00  0.00    -0.289 N 
ATOM     12  H   UNL     1       8.103  -0.602  25.848  0.00  0.00    +0.255 HD
ATOM     13  H   UNL     1       6.664  -0.897  26.643  0.00  0.00    +0.255 HD
ATOM     14  N   UNL     1       8.211  -2.553  24.549  0.00  0.00    -0.289 N 
ATOM     15  H   UNL     1       8.238  -1.824  23.846  0.00  0.00    +0.255 HD
ATOM     16  H   UNL     1       8.265  -3.473  24.136  0.00  0.00    +0.255 HD
ENDBRANCH   8   9
BRANCH   1  19
ATOM     17  C   UNL     1       6.968  -5.813  21.278  0.00  0.00    +0.109 C 
ATOM     18  C   UNL     1       6.467  -4.896  22.359  0.00  0.00    +0.210 C 
ATOM     19  N   UNL     1       6.010  -5.564  23.470  0.00  0.00    -0.303 N 
ATOM     20  H   UNL     1       5.960  -6.574  23.446  0.00  0.00    +0.149 HD
ATOM     21  O   UNL     1       6.489  -3.676  22.251  0.00  0.00    -0.276 OA
ENDBRANCH   1  19
BRANCH   6  22
ATOM     22  C   UNL     1       5.350  -7.069  28.467  0.00  0.00    +0.372 C 
ATOM     23  O   UNL     1       6.335  -7.305  29.148  0.00  0.00    -0.242 OA
BRANCH  22  24
ATOM     24  O   UNL     1       4.111  -7.507  28.782  0.00  0.00    -0.475 OA
ATOM     25  H   UNL     1       4.102  -7.894  29.678  0.00  0.00    +0.296 HD
ENDBRANCH  22  24
ENDBRANCH   6  22
BRANCH   4  26
ATOM     26  C   UNL     1       2.278  -7.156  24.256  0.00  0.00    +0.175 C 
BRANCH  26  27
ATOM     27  O   UNL     1       3.114  -8.324  24.188  0.00  0.00    -0.387 OA
ATOM     28  H   UNL     1       4.024  -7.993  24.045  0.00  0.00    +0.210 HD
ENDBRANCH  26  27
BRANCH  26  29
ATOM     29  C   UNL     1       1.202  -7.280  23.172  0.00  0.00    +0.190 C 
BRANCH  29  30
ATOM     30  O   UNL     1       1.726  -8.041  22.078  0.00  0.00    -0.392 OA
ATOM     31  H   UNL     1       2.673  -8.192  22.247  0.00  0.00    +0.210 HD
ENDBRANCH  29  30
ENDBRANCH  26  29
ENDBRANCH   4  26
TORSDOF 8
ENDMDL
MODEL 8
REMARK VINA RESULT:      -5.6      2.523      4.575
REMARK  Name = 
REMARK  9 active torsions:
REMARK  status: ('A' for Active; 'I' for Inactive)
REMARK    1  A    between atoms: C_1  and  C_2
REMARK    2  A    between atoms: N_4  and  C_5
REMARK    3  A    between atoms: C_7  and  N_24
REMARK    4  A    between atoms: C_10  and  C_21
REMARK    5  A    between atoms: C_13  and  C_16
REMARK    6  A    between atoms: C_16  and  C_18
REMARK    7  A    between atoms: C_16  and  O_20
REMARK    8  A    between atoms: C_18  and  O_19
REMARK    9  A    between atoms: C_21  and  O_23
REMARK                            x       y       z     vdW  Elec       q    Type
REMARK                         _______ _______ _______ _____ _____    ______ ____
ROOT
ATOM      1  C   UNL     1       8.676  -1.375  24.316  0.00  0.00    +0.192 C 
ATOM      2  C   UNL     1       7.232  -1.355  24.778  0.00  0.00    +0.264 C 
ATOM      3  O   UNL     1       7.014  -1.530  26.187  0.00  0.00    -0.323 OA
ATOM      4  C   UNL     1       6.829  -0.202  25.692  0.00  0.00    +0.227 C 
ATOM      5  O   UNL     1       6.195  -1.872  23.915  0.00  0.00    -0.449 OA
ATOM      6  C   UNL     1       6.566  -2.889  23.055  0.00  0.00    +0.207 C 
ATOM      7  C   UNL     1       7.831  -3.235  22.787  0.00  0.00    +0.072 C 
ATOM      8  C   UNL     1       9.021  -2.551  23.364  0.00  0.00    +0.241 C 
ENDROOT
BRANCH   8   9
ATOM      9  N   UNL     1       9.821  -3.536  24.108  0.00  0.00    -0.104 NA
ATOM     10  C   UNL     1       9.284  -4.299  24.980  0.00  0.00    +0.377 C 
ATOM     11  N   UNL     1      10.031  -5.216  25.629  0.00  0.00    -0.289 N 
ATOM     12  H   UNL     1       9.816  -5.280  26.619  0.00  0.00    +0.255 HD
ATOM     13  H   UNL     1      11.021  -5.039  25.489  0.00  0.00    +0.255 HD
ATOM     14  N   UNL     1       8.012  -4.360  25.432  0.00  0.00    -0.289 N 
ATOM     15  H   UNL     1       7.694  -5.306  25.611  0.00  0.00    +0.255 HD
ATOM     16  H   UNL     1       7.321  -3.822  24.930  0.00  0.00    +0.255 HD
ENDBRANCH   8   9
BRANCH   1  19
ATOM     17  C   UNL     1      10.331   1.977  23.535  0.00  0.00    +0.109 C 
ATOM     18  C   UNL     1      10.140   0.671  24.255  0.00  0.00    +0.210 C 
ATOM     19  N   UNL     1       9.085  -0.066  23.775  0.00  0.00    -0.303 N 
ATOM     20  H   UNL     1       8.485   0.342  23.068  0.00  0.00    +0.149 HD
ATOM     21  O   UNL     1      10.874   0.309  25.166  0.00  0.00    -0.276 OA
ENDBRANCH   1  19
BRANCH   6  22
ATOM     22  C   UNL     1       5.480  -3.612  22.325  0.00  0.00    +0.372 C 
ATOM     23  O   UNL     1       4.484  -4.097  22.839  0.00  0.00    -0.242 OA
BRANCH  22  24
ATOM     24  O   UNL     1       5.735  -3.679  21.000  0.00  0.00    -0.475 OA
ATOM     25  H   UNL     1       4.904  -3.647  20.489  0.00  0.00    +0.296 HD
ENDBRANCH  22  24
ENDBRANCH   6  22
BRANCH   4  26
ATOM     26  C   UNL     1       5.450   0.366  25.694  0.00  0.00    +0.175 C 
BRANCH  26  27
ATOM     27  O   UNL     1       5.536   1.750  26.076  0.00  0.00    -0.387 OA
ATOM     28  H   UNL     1       4.955   1.847  26.858  0.00  0.00    +0.210 HD
ENDBRANCH  26  27
BRANCH  26  29
ATOM     29  C   UNL     1       4.467  -0.327  26.643  0.00  0.00    +0.190 C 
BRANCH  29  30
ATOM     30  O   UNL     1       3.982  -1.523  26.020  0.00  0.00    -0.392 OA
ATOM     31  H   UNL     1       3.033  -1.601  26.225  0.00  0.00    +0.210 HD
ENDBRANCH  29  30
ENDBRANCH  26  29
ENDBRANCH   4  26
TORSDOF 8
ENDMDL
MODEL 9
REMARK VINA RESULT:      -5.6      2.790      5.209
REMARK  Name = 
REMARK  9 active torsions:
REMARK  status: ('A' for Active; 'I' for Inactive)
REMARK    1  A    between atoms: C_1  and  C_2
REMARK    2  A    between atoms: N_4  and  C_5
REMARK    3  A    between atoms: C_7  and  N_24
REMARK    4  A    between atoms: C_10  and  C_21
REMARK    5  A    between atoms: C_13  and  C_16
REMARK    6  A    between atoms: C_16  and  C_18
REMARK    7  A    between atoms: C_16  and  O_20
REMARK    8  A    between atoms: C_18  and  O_19
REMARK    9  A    between atoms: C_21  and  O_23
REMARK                            x       y       z     vdW  Elec       q    Type
REMARK                         _______ _______ _______ _____ _____    ______ ____
ROOT
ATOM      1  C   UNL     1       8.488  -2.079  24.311  0.00  0.00    +0.192 C 
ATOM      2  C   UNL     1       7.713  -1.544  25.499  0.00  0.00    +0.264 C 
ATOM      3  O   UNL     1       8.433  -1.454  26.738  0.00  0.00    -0.323 OA
ATOM      4  C   UNL     1       8.185  -0.213  26.074  0.00  0.00    +0.227 C 
ATOM      5  O   UNL     1       6.298  -1.819  25.615  0.00  0.00    -0.449 OA
ATOM      6  C   UNL     1       5.859  -3.006  25.059  0.00  0.00    +0.207 C 
ATOM      7  C   UNL     1       6.575  -3.764  24.219  0.00  0.00    +0.072 C 
ATOM      8  C   UNL     1       7.944  -3.418  23.748  0.00  0.00    +0.241 C 
ENDROOT
BRANCH   8   9
ATOM      9  N   UNL     1       8.866  -4.497  24.135  0.00  0.00    -0.104 NA
ATOM     10  C   UNL     1       8.980  -4.862  25.353  0.00  0.00    +0.377 C 
ATOM     11  N   UNL     1       9.811  -5.874  25.681  0.00  0.00    -0.289 N 
ATOM     12  H   UNL     1      10.342  -5.698  26.528  0.00  0.00    +0.255 HD
ATOM     13  H   UNL     1      10.431  -6.096  24.909  0.00  0.00    +0.255 HD
ATOM     14  N   UNL     1       8.400  -4.381  26.474  0.00  0.00    -0.289 N 
ATOM     15  H   UNL     1       8.153  -5.104  27.141  0.00  0.00    +0.255 HD
ATOM     16  H   UNL     1       7.652  -3.714  26.353  0.00  0.00    +0.255 HD
ENDBRANCH   8   9
BRANCH   1  19
ATOM     17  C   UNL     1       9.653   0.184  21.463  0.00  0.00    +0.109 C 
ATOM     18  C   UNL     1       9.728  -0.973  22.420  0.00  0.00    +0.210 C 
ATOM     19  N   UNL     1       8.651  -1.048  23.268  0.00  0.00    -0.303 N 
ATOM     20  H   UNL     1       7.964  -0.304  23.253  0.00  0.00    +0.149 HD
ATOM     21  O   UNL     1      10.658  -1.771  22.416  0.00  0.00    -0.276 OA
ENDBRANCH   1  19
BRANCH   6  22
ATOM     22  C   UNL     1       4.462  -3.441  25.366  0.00  0.00    +0.372 C 
ATOM     23  O   UNL     1       4.080  -4.599  25.427  0.00  0.00    -0.242 OA
BRANCH  22  24
ATOM     24  O   UNL     1       3.646  -2.382  25.563  0.00  0.00    -0.475 OA
ATOM     25  H   UNL     1       3.484  -2.247  26.516  0.00  0.00    +0.296 HD
ENDBRANCH  22  24
ENDBRANCH   6  22
BRANCH   4  26
ATOM     26  C   UNL     1       7.248   0.754  26.713  0.00  0.00    +0.175 C 
BRANCH  26  27
ATOM     27  O   UNL     1       7.704   2.085  26.415  0.00  0.00    -0.387 OA
ATOM     28  H   UNL     1       7.209   2.678  27.017  0.00  0.00    +0.210 HD
ENDBRANCH  26  27
BRANCH  26  29
ATOM     29  C   UNL     1       7.123   0.625  28.235  0.00  0.00    +0.190 C 
BRANCH  29  30
ATOM     30  O   UNL     1       8.428   0.434  28.795  0.00  0.00    -0.392 OA
ATOM     31  H   UNL     1       8.343   0.467  29.765  0.00  0.00    +0.210 HD
ENDBRANCH  29  30
ENDBRANCH  26  29
ENDBRANCH   4  26
TORSDOF 8
ENDMDL
