MODEL 1
REMARK VINA RESULT:      -6.2      0.000      0.000
REMARK  Name = 
REMARK  3 active torsions:
REMARK  status: ('A' for Active; 'I' for Inactive)
REMARK    1  A    between atoms: C_2  and  N_10
REMARK    2  A    between atoms: C_5  and  C_8
REMARK    3  A    between atoms: C_8  and  O_9
REMARK                            x       y       z     vdW  Elec       q    Type
REMARK                         _______ _______ _______ _____ _____    ______ ____
ROOT
ATOM      1  N   UNL     1       9.157  -1.354  23.556  0.00  0.00    -0.269 N 
ATOM      2  C   UNL     1       9.649  -0.270  24.296  0.00  0.00    +0.352 A 
ATOM      3  O   UNL     1       9.718  -0.329  25.521  0.00  0.00    -0.244 OA
ATOM      4  N   UNL     1      10.021   0.876  23.626  0.00  0.00    -0.175 NA
ATOM      5  C   UNL     1       9.864   0.957  22.337  0.00  0.00    +0.159 A 
ATOM      6  N   UNL     1      10.258   2.118  21.726  0.00  0.00    -0.341 N 
ATOM      7  H   UNL     1      10.395   2.892  22.367  0.00  0.00    +0.144 HD
ATOM      8  H   UNL     1       9.805   2.361  20.853  0.00  0.00    +0.144 HD
ATOM      9  C   UNL     1       9.272  -0.144  21.546  0.00  0.00    +0.179 A 
ATOM     10  F   UNL     1       9.079   0.045  20.230  0.00  0.00    -0.200 F 
ATOM     11  C   UNL     1       8.946  -1.256  22.195  0.00  0.00    +0.135 A 
ENDROOT
BRANCH   1  16
ATOM     12  C   UNL     1       7.500  -3.188  23.679  0.00  0.00    +0.126 C 
ATOM     13  S   UNL     1       7.513  -4.877  24.302  0.00  0.00    -0.123 S 
ATOM     14  C   UNL     1       9.263  -4.771  24.768  0.00  0.00    +0.203 C 
ATOM     15  O   UNL     1       9.793  -3.509  24.335  0.00  0.00    -0.340 OA
ATOM     16  C   UNL     1       8.735  -2.535  24.308  0.00  0.00    +0.235 C 
BRANCH  14  17
ATOM     17  C   UNL     1       9.437  -4.977  26.285  0.00  0.00    +0.198 C 
BRANCH  17  18
ATOM     18  O   UNL     1       8.390  -5.754  26.868  0.00  0.00    -0.392 OA
ATOM     19  H   UNL     1       8.810  -6.540  27.267  0.00  0.00    +0.210 HD
ENDBRANCH  17  18
ENDBRANCH  14  17
ENDBRANCH   1  16
TORSDOF 3
ENDMDL
MODEL 2
REMARK VINA RESULT:      -6.0      3.548      5.850
REMARK  Name = 
REMARK  3 active torsions:
REMARK  status: ('A' for Active; 'I' for Inactive)
REMARK    1  A    between atoms: C_2  and  N_10
REMARK    2  A    between atoms: C_5  and  C_8
REMARK    3  A    between atoms: C_8  and  O_9
REMARK                            x       y       z     vdW  Elec       q    Type
REMARK                         _______ _______ _______ _____ _____    ______ ____
ROOT
ATOM      1  N   UNL     1       9.042  -1.657  24.497  0.00  0.00    -0.269 N 
ATOM      2  C   UNL     1       9.839  -2.653  23.914  0.00  0.00    +0.352 A 
ATOM      3  O   UNL     1      10.481  -2.421  22.892  0.00  0.00    -0.244 OA
ATOM      4  N   UNL     1       9.862  -3.906  24.489  0.00  0.00    -0.175 NA
ATOM      5  C   UNL     1       9.112  -4.161  25.521  0.00  0.00    +0.159 A 
ATOM      6  N   UNL     1       9.182  -5.422  26.052  0.00  0.00    -0.341 N 
ATOM      7  H   UNL     1       9.615  -6.103  25.438  0.00  0.00    +0.144 HD
ATOM      8  H   UNL     1       8.371  -5.759  26.558  0.00  0.00    +0.144 HD
ATOM      9  C   UNL     1       8.203  -3.150  26.104  0.00  0.00    +0.179 A 
ATOM     10  F   UNL     1       7.410  -3.515  27.126  0.00  0.00    -0.200 F 
ATOM     11  C   UNL     1       8.212  -1.937  25.563  0.00  0.00    +0.135 A 
ENDROOT
BRANCH   1  16
ATOM     12  C   UNL     1       7.584   0.172  23.692  0.00  0.00    +0.126 C 
ATOM     13  S   UNL     1       7.774   1.948  23.467  0.00  0.00    -0.123 S 
ATOM     14  C   UNL     1       9.465   1.927  24.127  0.00  0.00    +0.203 C 
ATOM     15  O   UNL     1       9.775   0.604  24.591  0.00  0.00    -0.340 OA
ATOM     16  C   UNL     1       9.015  -0.355  23.833  0.00  0.00    +0.235 C 
BRANCH  14  17
ATOM     17  C   UNL     1      10.470   2.413  23.066  0.00  0.00    +0.198 C 
BRANCH  17  18
ATOM     18  O   UNL     1       9.990   2.264  21.730  0.00  0.00    -0.392 OA
ATOM     19  H   UNL     1       9.037   2.473  21.747  0.00  0.00    +0.210 HD
ENDBRANCH  17  18
ENDBRANCH  14  17
ENDBRANCH   1  16
TORSDOF 3
ENDMDL
MODEL 3
REMARK VINA RESULT:      -5.9      2.415      2.779
REMARK  Name = 
REMARK  3 active torsions:
REMARK  status: ('A' for Active; 'I' for Inactive)
REMARK    1  A    between atoms: C_2  and  N_10
REMARK    2  A    between atoms: C_5  and  C_8
REMARK    3  A    between atoms: C_8  and  O_9
REMARK                            x       y       z     vdW  Elec       q    Type
REMARK                         _______ _______ _______ _____ _____    ______ ____
ROOT
ATOM      1  N   UNL     1       8.431  -1.436  22.608  0.00  0.00    -0.269 N 
ATOM      2  C   UNL     1       9.726  -1.054  22.228  0.00  0.00    +0.352 A 
ATOM      3  O   UNL     1      10.641  -1.873  22.215  0.00  0.00    -0.244 OA
ATOM      4  N   UNL     1       9.959   0.266  21.901  0.00  0.00    -0.175 NA
ATOM      5  C   UNL     1       9.000   1.140  22.000  0.00  0.00    +0.159 A 
ATOM      6  N   UNL     1       9.291   2.434  21.658  0.00  0.00    -0.341 N 
ATOM      7  H   UNL     1      10.285   2.631  21.605  0.00  0.00    +0.144 HD
ATOM      8  H   UNL     1       8.733   3.165  22.083  0.00  0.00    +0.144 HD
ATOM      9  C   UNL     1       7.648   0.775  22.477  0.00  0.00    +0.179 A 
ATOM     10  F   UNL     1       6.734   1.750  22.617  0.00  0.00    -0.200 F 
ATOM     11  C   UNL     1       7.424  -0.504  22.757  0.00  0.00    +0.135 A 
ENDROOT
BRANCH   1  16
ATOM     12  C   UNL     1       8.099  -2.993  24.502  0.00  0.00    +0.126 C 
ATOM     13  S   UNL     1       7.266  -4.573  24.720  0.00  0.00    -0.123 S 
ATOM     14  C   UNL     1       6.679  -4.587  23.003  0.00  0.00    +0.203 C 
ATOM     15  O   UNL     1       7.041  -3.351  22.369  0.00  0.00    -0.340 OA
ATOM     16  C   UNL     1       8.235  -2.835  22.984  0.00  0.00    +0.235 C 
BRANCH  14  17
ATOM     17  C   UNL     1       7.239  -5.806  22.245  0.00  0.00    +0.198 C 
BRANCH  17  18
ATOM     18  O   UNL     1       6.252  -6.805  21.985  0.00  0.00    -0.392 OA
ATOM     19  H   UNL     1       5.385  -6.404  22.185  0.00  0.00    +0.210 HD
ENDBRANCH  17  18
ENDBRANCH  14  17
ENDBRANCH   1  16
TORSDOF 3
ENDMDL
MODEL 4
REMARK VINA RESULT:      -5.8      1.976      2.183
REMARK  Name = 
REMARK  3 active torsions:
REMARK  status: ('A' for Active; 'I' for Inactive)
REMARK    1  A    between atoms: C_2  and  N_10
REMARK    2  A    between atoms: C_5  and  C_8
REMARK    3  A    between atoms: C_8  and  O_9
REMARK                            x       y       z     vdW  Elec       q    Type
REMARK                         _______ _______ _______ _____ _____    ______ ____
ROOT
ATOM      1  N   UNL     1       9.037  -1.163  23.736  0.00  0.00    -0.269 N 
ATOM      2  C   UNL     1       9.948  -1.072  22.674  0.00  0.00    +0.352 A 
ATOM      3  O   UNL     1      10.743  -1.983  22.453  0.00  0.00    -0.244 OA
ATOM      4  N   UNL     1       9.960   0.073  21.905  0.00  0.00    -0.175 NA
ATOM      5  C   UNL     1       9.172   1.064  22.202  0.00  0.00    +0.159 A 
ATOM      6  N   UNL     1       9.224   2.172  21.399  0.00  0.00    -0.341 N 
ATOM      7  H   UNL     1      10.048   2.212  20.808  0.00  0.00    +0.144 HD
ATOM      8  H   UNL     1       8.949   3.057  21.808  0.00  0.00    +0.144 HD
ATOM      9  C   UNL     1       8.259   1.023  23.366  0.00  0.00    +0.179 A 
ATOM     10  F   UNL     1       7.529   2.115  23.646  0.00  0.00    -0.200 F 
ATOM     11  C   UNL     1       8.232  -0.096  24.081  0.00  0.00    +0.135 A 
ENDROOT
BRANCH   1  16
ATOM     12  C   UNL     1       8.497  -2.136  25.945  0.00  0.00    +0.126 C 
ATOM     13  S   UNL     1       8.063  -3.778  26.542  0.00  0.00    -0.123 S 
ATOM     14  C   UNL     1       8.103  -4.479  24.869  0.00  0.00    +0.203 C 
ATOM     15  O   UNL     1       8.332  -3.427  23.920  0.00  0.00    -0.340 OA
ATOM     16  C   UNL     1       9.085  -2.375  24.551  0.00  0.00    +0.235 C 
BRANCH  14  17
ATOM     17  C   UNL     1       9.168  -5.587  24.766  0.00  0.00    +0.198 C 
BRANCH  17  18
ATOM     18  O   UNL     1      10.155  -5.511  25.796  0.00  0.00    -0.392 OA
ATOM     19  H   UNL     1       9.713  -5.760  26.630  0.00  0.00    +0.210 HD
ENDBRANCH  17  18
ENDBRANCH  14  17
ENDBRANCH   1  16
TORSDOF 3
ENDMDL
MODEL 5
REMARK VINA RESULT:      -5.8      3.588      5.877
REMARK  Name = 
REMARK  3 active torsions:
REMARK  status: ('A' for Active; 'I' for Inactive)
REMARK    1  A    between atoms: C_2  and  N_10
REMARK    2  A    between atoms: C_5  and  C_8
REMARK    3  A    between atoms: C_8  and  O_9
REMARK                            x       y       z     vdW  Elec       q    Type
REMARK                         _______ _______ _______ _____ _____    ______ ____
ROOT
ATOM      1  N   UNL     1       8.682  -2.350  25.014  0.00  0.00    -0.269 N 
ATOM      2  C   UNL     1       7.744  -2.351  26.056  0.00  0.00    +0.352 A 
ATOM      3  O   UNL     1       7.182  -1.311  26.392  0.00  0.00    -0.244 OA
ATOM      4  N   UNL     1       7.490  -3.533  26.719  0.00  0.00    -0.175 NA
ATOM      5  C   UNL     1       8.153  -4.609  26.409  0.00  0.00    +0.159 A 
ATOM      6  N   UNL     1       7.853  -5.753  27.099  0.00  0.00    -0.341 N 
ATOM      7  H   UNL     1       7.327  -5.593  27.951  0.00  0.00    +0.144 HD
ATOM      8  H   UNL     1       8.578  -6.457  27.170  0.00  0.00    +0.144 HD
ATOM      9  C   UNL     1       9.205  -4.612  25.369  0.00  0.00    +0.179 A 
ATOM     10  F   UNL     1       9.893  -5.747  25.158  0.00  0.00    -0.200 F 
ATOM     11  C   UNL     1       9.420  -3.477  24.714  0.00  0.00    +0.135 A 
ENDROOT
BRANCH   1  16
ATOM     12  C   UNL     1       9.873  -0.191  25.218  0.00  0.00    +0.126 C 
ATOM     13  S   UNL     1      10.580   0.989  24.056  0.00  0.00    -0.123 S 
ATOM     14  C   UNL     1      10.147  -0.044  22.628  0.00  0.00    +0.203 C 
ATOM     15  O   UNL     1       9.589  -1.282  23.092  0.00  0.00    -0.340 OA
ATOM     16  C   UNL     1       8.952  -1.069  24.364  0.00  0.00    +0.235 C 
BRANCH  14  17
ATOM     17  C   UNL     1       9.185   0.704  21.686  0.00  0.00    +0.198 C 
BRANCH  17  18
ATOM     18  O   UNL     1       9.619   2.029  21.379  0.00  0.00    -0.392 OA
ATOM     19  H   UNL     1       9.176   2.286  20.548  0.00  0.00    +0.210 HD
ENDBRANCH  17  18
ENDBRANCH  14  17
ENDBRANCH   1  16
TORSDOF 3
ENDMDL
MODEL 6
REMARK VINA RESULT:      -5.5      3.763      5.911
REMARK  Name = 
REMARK  3 active torsions:
REMARK  status: ('A' for Active; 'I' for Inactive)
REMARK    1  A    between atoms: C_2  and  N_10
REMARK    2  A    between atoms: C_5  and  C_8
REMARK    3  A    between atoms: C_8  and  O_9
REMARK                            x       y       z     vdW  Elec       q    Type
REMARK                         _______ _______ _______ _____ _____    ______ ____
ROOT
ATOM      1  N   UNL     1       6.961  -2.759  22.951  0.00  0.00    -0.269 N 
ATOM      2  C   UNL     1       5.682  -2.818  23.523  0.00  0.00    +0.352 A 
ATOM      3  O   UNL     1       5.255  -1.884  24.197  0.00  0.00    -0.244 OA
ATOM      4  N   UNL     1       4.928  -3.959  23.344  0.00  0.00    -0.175 NA
ATOM      5  C   UNL     1       5.425  -4.973  22.699  0.00  0.00    +0.159 A 
ATOM      6  N   UNL     1       4.627  -6.076  22.549  0.00  0.00    -0.341 N 
ATOM      7  H   UNL     1       3.825  -6.089  23.170  0.00  0.00    +0.144 HD
ATOM      8  H   UNL     1       5.086  -6.970  22.425  0.00  0.00    +0.144 HD
ATOM      9  C   UNL     1       6.802  -4.964  22.157  0.00  0.00    +0.179 A 
ATOM     10  F   UNL     1       7.265  -6.078  21.566  0.00  0.00    -0.200 F 
ATOM     11  C   UNL     1       7.509  -3.849  22.306  0.00  0.00    +0.135 A 
ENDROOT
BRANCH   1  16
ATOM     12  C   UNL     1       8.745  -1.753  24.339  0.00  0.00    +0.126 C 
ATOM     13  S   UNL     1       9.987  -0.474  24.088  0.00  0.00    -0.123 S 
ATOM     14  C   UNL     1       9.483  -0.219  22.364  0.00  0.00    +0.203 C 
ATOM     15  O   UNL     1       8.478  -1.183  22.016  0.00  0.00    -0.340 OA
ATOM     16  C   UNL     1       7.744  -1.549  23.198  0.00  0.00    +0.235 C 
BRANCH  14  17
ATOM     17  C   UNL     1       8.994   1.226  22.146  0.00  0.00    +0.198 C 
BRANCH  17  18
ATOM     18  O   UNL     1       9.956   2.049  21.487  0.00  0.00    -0.392 OA
ATOM     19  H   UNL     1      10.837   1.725  21.755  0.00  0.00    +0.210 HD
ENDBRANCH  17  18
ENDBRANCH  14  17
ENDBRANCH   1  16
TORSDOF 3
ENDMDL
MODEL 7
REMARK VINA RESULT:      -5.5      2.088      2.487
REMARK  Name = 
REMARK  3 active torsions:
REMARK  status: ('A' for Active; 'I' for Inactive)
REMARK    1  A    between atoms: C_2  and  N_10
REMARK    2  A    between atoms: C_5  and  C_8
REMARK    3  A    between atoms: C_8  and  O_9
REMARK                            x       y       z     vdW  Elec       q    Type
REMARK                         _______ _______ _______ _____ _____    ______ ____
ROOT
ATOM      1  N   UNL     1       9.050  -1.310  23.867  0.00  0.00    -0.269 N 
ATOM      2  C   UNL     1       8.552  -1.081  22.577  0.00  0.00    +0.352 A 
ATOM      3  O   UNL     1       7.810  -1.900  22.038  0.00  0.00    -0.244 OA
ATOM      4  N   UNL     1       8.937   0.063  21.910  0.00  0.00    -0.175 NA
ATOM      5  C   UNL     1       9.789   0.879  22.458  0.00  0.00    +0.159 A 
ATOM      6  N   UNL     1      10.130   2.001  21.749  0.00  0.00    -0.341 N 
ATOM      7  H   UNL     1       9.882   1.957  20.767  0.00  0.00    +0.144 HD
ATOM      8  H   UNL     1      11.032   2.418  21.944  0.00  0.00    +0.144 HD
ATOM      9  C   UNL     1      10.390   0.617  23.784  0.00  0.00    +0.179 A 
ATOM     10  F   UNL     1      11.314   1.474  24.249  0.00  0.00    -0.200 F 
ATOM     11  C   UNL     1       9.988  -0.470  24.432  0.00  0.00    +0.135 A 
ENDROOT
BRANCH   1  16
ATOM     12  C   UNL     1       9.731  -3.630  24.392  0.00  0.00    +0.126 C 
ATOM     13  S   UNL     1       9.379  -4.791  25.723  0.00  0.00    -0.123 S 
ATOM     14  C   UNL     1       8.356  -3.582  26.609  0.00  0.00    +0.203 C 
ATOM     15  O   UNL     1       8.412  -2.322  25.923  0.00  0.00    -0.340 OA
ATOM     16  C   UNL     1       8.649  -2.554  24.523  0.00  0.00    +0.235 C 
BRANCH  14  17
ATOM     17  C   UNL     1       6.910  -4.093  26.754  0.00  0.00    +0.198 C 
BRANCH  17  18
ATOM     18  O   UNL     1       6.648  -5.259  25.973  0.00  0.00    -0.392 OA
ATOM     19  H   UNL     1       5.793  -5.617  26.278  0.00  0.00    +0.210 HD
ENDBRANCH  17  18
ENDBRANCH  14  17
ENDBRANCH   1  16
TORSDOF 3
ENDMDL
MODEL 8
REMARK VINA RESULT:      -5.5      4.236      6.183
REMARK  Name = 
REMARK  3 active torsions:
REMARK  status: ('A' for Active; 'I' for Inactive)
REMARK    1  A    between atoms: C_2  and  N_10
REMARK    2  A    between atoms: C_5  and  C_8
REMARK    3  A    between atoms: C_8  and  O_9
REMARK                            x       y       z     vdW  Elec       q    Type
REMARK                         _______ _______ _______ _____ _____    ______ ____
ROOT
ATOM      1  N   UNL     1       6.489  -3.760  23.637  0.00  0.00    -0.269 N 
ATOM      2  C   UNL     1       5.573  -3.728  22.576  0.00  0.00    +0.352 A 
ATOM      3  O   UNL     1       5.568  -2.791  21.782  0.00  0.00    -0.244 OA
ATOM      4  N   UNL     1       4.655  -4.751  22.462  0.00  0.00    -0.175 NA
ATOM      5  C   UNL     1       4.615  -5.693  23.357  0.00  0.00    +0.159 A 
ATOM      6  N   UNL     1       3.686  -6.685  23.187  0.00  0.00    -0.341 N 
ATOM      7  H   UNL     1       2.955  -6.452  22.523  0.00  0.00    +0.144 HD
ATOM      8  H   UNL     1       3.369  -7.174  24.016  0.00  0.00    +0.144 HD
ATOM      9  C   UNL     1       5.519  -5.704  24.529  0.00  0.00    +0.179 A 
ATOM     10  F   UNL     1       5.367  -6.675  25.446  0.00  0.00    -0.200 F 
ATOM     11  C   UNL     1       6.421  -4.733  24.613  0.00  0.00    +0.135 A 
ENDROOT
BRANCH   1  16
ATOM     12  C   UNL     1       7.388  -2.018  25.147  0.00  0.00    +0.126 C 
ATOM     13  S   UNL     1       8.952  -1.139  25.289  0.00  0.00    -0.123 S 
ATOM     14  C   UNL     1       9.686  -2.069  23.914  0.00  0.00    +0.203 C 
ATOM     15  O   UNL     1       8.762  -3.077  23.478  0.00  0.00    -0.340 OA
ATOM     16  C   UNL     1       7.419  -2.637  23.746  0.00  0.00    +0.235 C 
BRANCH  14  17
ATOM     17  C   UNL     1      10.086  -1.122  22.767  0.00  0.00    +0.198 C 
BRANCH  17  18
ATOM     18  O   UNL     1      10.006  -1.737  21.481  0.00  0.00    -0.392 OA
ATOM     19  H   UNL     1      10.016  -1.017  20.822  0.00  0.00    +0.210 HD
ENDBRANCH  17  18
ENDBRANCH  14  17
ENDBRANCH   1  16
TORSDOF 3
ENDMDL
MODEL 9
REMARK VINA RESULT:      -5.4      3.358      5.707
REMARK  Name = 
REMARK  3 active torsions:
REMARK  status: ('A' for Active; 'I' for Inactive)
REMARK    1  A    between atoms: C_2  and  N_10
REMARK    2  A    between atoms: C_5  and  C_8
REMARK    3  A    between atoms: C_8  and  O_9
REMARK                            x       y       z     vdW  Elec       q    Type
REMARK                         _______ _______ _______ _____ _____    ______ ____
ROOT
ATOM      1  N   UNL     1       8.672  -2.215  24.460  0.00  0.00    -0.269 N 
ATOM      2  C   UNL     1       8.653  -2.215  25.862  0.00  0.00    +0.352 A 
ATOM      3  O   UNL     1       8.828  -1.174  26.490  0.00  0.00    -0.244 OA
ATOM      4  N   UNL     1       8.468  -3.412  26.523  0.00  0.00    -0.175 NA
ATOM      5  C   UNL     1       8.367  -4.519  25.848  0.00  0.00    +0.159 A 
ATOM      6  N   UNL     1       8.179  -5.674  26.559  0.00  0.00    -0.341 N 
ATOM      7  H   UNL     1       8.391  -5.587  27.547  0.00  0.00    +0.144 HD
ATOM      8  H   UNL     1       8.488  -6.540  26.131  0.00  0.00    +0.144 HD
ATOM      9  C   UNL     1       8.466  -4.553  24.372  0.00  0.00    +0.179 A 
ATOM     10  F   UNL     1       8.423  -5.746  23.755  0.00  0.00    -0.200 F 
ATOM     11  C   UNL     1       8.612  -3.393  23.743  0.00  0.00    +0.135 A 
ENDROOT
BRANCH   1  16
ATOM     12  C   UNL     1       9.771  -1.102  22.543  0.00  0.00    +0.126 C 
ATOM     13  S   UNL     1       9.439   0.372  21.564  0.00  0.00    -0.123 S 
ATOM     14  C   UNL     1       7.915   0.730  22.482  0.00  0.00    +0.203 C 
ATOM     15  O   UNL     1       7.662  -0.334  23.412  0.00  0.00    -0.340 OA
ATOM     16  C   UNL     1       8.911  -0.933  23.800  0.00  0.00    +0.235 C 
BRANCH  14  17
ATOM     17  C   UNL     1       8.010   2.097  23.186  0.00  0.00    +0.198 C 
BRANCH  17  18
ATOM     18  O   UNL     1       8.564   3.117  22.354  0.00  0.00    -0.392 OA
ATOM     19  H   UNL     1       8.603   2.753  21.449  0.00  0.00    +0.210 HD
ENDBRANCH  17  18
ENDBRANCH  14  17
ENDBRANCH   1  16
TORSDOF 3
ENDMDL
