MODEL 1
REMARK VINA RESULT:      -7.1      0.000      0.000
REMARK  Name = 
REMARK  10 active torsions:
REMARK  status: ('A' for Active; 'I' for Inactive)
REMARK    1  A    between atoms: C_1  and  C_2
REMARK    2  A    between atoms: C_4  and  C_19
REMARK    3  A    between atoms: C_6  and  C_18
REMARK    4  A    between atoms: C_7  and  O_8
REMARK    5  A    between atoms: O_8  and  C_9
REMARK    6  A    between atoms: C_9  and  C_10
REMARK    7  A    between atoms: C_10  and  C_11
REMARK    8  A    between atoms: C_11  and  C_12
REMARK    9  A    between atoms: C_14  and  C_17
REMARK   10  A    between atoms: C_22  and  C_24
REMARK                            x       y       z     vdW  Elec       q    Type
REMARK                         _______ _______ _______ _____ _____    ______ ____
ROOT
ATOM      1  C   UNL     1       3.902  -3.032  24.898  0.00  0.00    +0.047 C 
ATOM      2  C   UNL     1       5.005  -3.353  23.926  0.00  0.00    -0.008 A 
ATOM      3  C   UNL     1       4.955  -4.373  22.953  0.00  0.00    +0.126 A 
ATOM      4  C   UNL     1       6.090  -4.630  22.151  0.00  0.00    -0.008 A 
ATOM      5  C   UNL     1       6.088  -5.729  21.121  0.00  0.00    +0.047 C 
ATOM      6  C   UNL     1       7.249  -3.854  22.303  0.00  0.00    +0.018 A 
ATOM      7  C   UNL     1       7.308  -2.824  23.243  0.00  0.00    +0.023 A 
ATOM      8  C   UNL     1       6.185  -2.585  24.043  0.00  0.00    +0.018 A 
ENDROOT
BRANCH   7   9
ATOM      9  C   UNL     1       8.524  -2.035  23.383  0.00  0.00    +0.202 A 
ATOM     10  N   UNL     1       8.488  -0.696  23.716  0.00  0.00    -0.184 NA
ATOM     11  C   UNL     1       9.766  -0.363  23.744  0.00  0.00    +0.332 A 
ATOM     12  O   UNL     1      10.589  -1.411  23.448  0.00  0.00    -0.328 OA
ATOM     13  N   UNL     1       9.770  -2.512  23.212  0.00  0.00    -0.056 NA
BRANCH  11  14
ATOM     14  C   UNL     1      10.426   0.933  24.044  0.00  0.00    +0.472 C 
ATOM     15  F   UNL     1       9.694   1.691  24.905  0.00  0.00    -0.162 F 
ATOM     16  F   UNL     1      10.611   1.685  22.926  0.00  0.00    -0.162 F 
ATOM     17  F   UNL     1      11.652   0.784  24.614  0.00  0.00    -0.162 F 
ENDBRANCH  11  14
ENDBRANCH   7   9
BRANCH   3  18
ATOM     18  O   UNL     1       3.913  -5.236  22.721  0.00  0.00    -0.491 OA
BRANCH  18  19
ATOM     19  C   UNL     1       3.389  -5.959  23.827  0.00  0.00    +0.229 C 
BRANCH  19  20
ATOM     20  C   UNL     1       4.449  -6.920  24.355  0.00  0.00    +0.049 C 
BRANCH  20  21
ATOM     21  C   UNL     1       4.524  -6.824  25.878  0.00  0.00    +0.080 C 
BRANCH  21  22
ATOM     22  C   UNL     1       5.746  -6.124  26.322  0.00  0.00    +0.138 A 
ATOM     23  O   UNL     1       5.832  -5.820  27.645  0.00  0.00    -0.359 OA
ATOM     24  N   UNL     1       7.032  -5.175  27.889  0.00  0.00    -0.083 NA
ATOM     25  C   UNL     1       7.650  -5.094  26.704  0.00  0.00    +0.081 A 
ATOM     26  C   UNL     1       8.971  -4.441  26.591  0.00  0.00    +0.069 C 
ATOM     27  C   UNL     1       6.879  -5.688  25.682  0.00  0.00    +0.070 A 
ENDBRANCH  21  22
ENDBRANCH  20  21
ENDBRANCH  19  20
ENDBRANCH  18  19
ENDBRANCH   3  18
TORSDOF 7
ENDMDL
MODEL 2
REMARK VINA RESULT:      -7.0      1.490      2.392
REMARK  Name = 
REMARK  10 active torsions:
REMARK  status: ('A' for Active; 'I' for Inactive)
REMARK    1  A    between atoms: C_1  and  C_2
REMARK    2  A    between atoms: C_4  and  C_19
REMARK    3  A    between atoms: C_6  and  C_18
REMARK    4  A    between atoms: C_7  and  O_8
REMARK    5  A    between atoms: O_8  and  C_9
REMARK    6  A    between atoms: C_9  and  C_10
REMARK    7  A    between atoms: C_10  and  C_11
REMARK    8  A    between atoms: C_11  and  C_12
REMARK    9  A    between atoms: C_14  and  C_17
REMARK   10  A    between atoms: C_22  and  C_24
REMARK                            x       y       z     vdW  Elec       q    Type
REMARK                         _______ _______ _______ _____ _____    ______ ____
ROOT
ATOM      1  C   UNL     1       6.789  -6.402  22.140  0.00  0.00    +0.047 C 
ATOM      2  C   UNL     1       6.489  -5.052  22.736  0.00  0.00    -0.008 A 
ATOM      3  C   UNL     1       5.381  -4.758  23.557  0.00  0.00    +0.126 A 
ATOM      4  C   UNL     1       5.165  -3.429  23.989  0.00  0.00    -0.008 A 
ATOM      5  C   UNL     1       3.977  -3.068  24.843  0.00  0.00    +0.047 C 
ATOM      6  C   UNL     1       6.064  -2.416  23.624  0.00  0.00    +0.018 A 
ATOM      7  C   UNL     1       7.179  -2.693  22.832  0.00  0.00    +0.023 A 
ATOM      8  C   UNL     1       7.379  -4.009  22.398  0.00  0.00    +0.018 A 
ENDROOT
BRANCH   7   9
ATOM      9  C   UNL     1       8.096  -1.623  22.466  0.00  0.00    +0.202 A 
ATOM     10  N   UNL     1       7.805  -0.298  22.718  0.00  0.00    -0.184 NA
ATOM     11  C   UNL     1       8.866   0.333  22.250  0.00  0.00    +0.332 A 
ATOM     12  O   UNL     1       9.793  -0.518  21.722  0.00  0.00    -0.328 OA
ATOM     13  N   UNL     1       9.285  -1.806  21.865  0.00  0.00    -0.056 NA
BRANCH  11  14
ATOM     14  C   UNL     1       9.199   1.780  22.213  0.00  0.00    +0.472 C 
ATOM     15  F   UNL     1       9.174   2.340  23.453  0.00  0.00    -0.162 F 
ATOM     16  F   UNL     1       8.324   2.489  21.450  0.00  0.00    -0.162 F 
ATOM     17  F   UNL     1      10.437   2.027  21.707  0.00  0.00    -0.162 F 
ENDBRANCH  11  14
ENDBRANCH   7   9
BRANCH   3  18
ATOM     18  O   UNL     1       4.401  -5.631  23.956  0.00  0.00    -0.491 OA
BRANCH  18  19
ATOM     19  C   UNL     1       4.767  -6.684  24.837  0.00  0.00    +0.229 C 
BRANCH  19  20
ATOM     20  C   UNL     1       4.351  -6.327  26.260  0.00  0.00    +0.049 C 
BRANCH  20  21
ATOM     21  C   UNL     1       5.555  -6.428  27.195  0.00  0.00    +0.080 C 
BRANCH  21  22
ATOM     22  C   UNL     1       6.578  -5.410  26.880  0.00  0.00    +0.138 A 
ATOM     23  O   UNL     1       7.726  -5.853  26.302  0.00  0.00    -0.359 OA
ATOM     24  N   UNL     1       8.567  -4.778  26.072  0.00  0.00    -0.083 NA
ATOM     25  C   UNL     1       7.912  -3.700  26.523  0.00  0.00    +0.081 A 
ATOM     26  C   UNL     1       8.533  -2.361  26.447  0.00  0.00    +0.069 C 
ATOM     27  C   UNL     1       6.645  -4.048  27.037  0.00  0.00    +0.070 A 
ENDBRANCH  21  22
ENDBRANCH  20  21
ENDBRANCH  19  20
ENDBRANCH  18  19
ENDBRANCH   3  18
TORSDOF 7
ENDMDL
MODEL 3
REMARK VINA RESULT:      -6.9      3.261      4.844
REMARK  Name = 
REMARK  10 active torsions:
REMARK  status: ('A' for Active; 'I' for Inactive)
REMARK    1  A    between atoms: C_1  and  C_2
REMARK    2  A    between atoms: C_4  and  C_19
REMARK    3  A    between atoms: C_6  and  C_18
REMARK    4  A    between atoms: C_7  and  O_8
REMARK    5  A    between atoms: O_8  and  C_9
REMARK    6  A    between atoms: C_9  and  C_10
REMARK    7  A    between atoms: C_10  and  C_11
REMARK    8  A    between atoms: C_11  and  C_12
REMARK    9  A    between atoms: C_14  and  C_17
REMARK   10  A    between atoms: C_22  and  C_24
REMARK                            x       y       z     vdW  Elec       q    Type
REMARK                         _______ _______ _______ _____ _____    ______ ____
ROOT
ATOM      1  C   UNL     1       8.537  -0.847  26.569  0.00  0.00    +0.047 C 
ATOM      2  C   UNL     1       8.898  -0.393  25.180  0.00  0.00    -0.008 A 
ATOM      3  C   UNL     1       8.844  -1.199  24.025  0.00  0.00    +0.126 A 
ATOM      4  C   UNL     1       9.288  -0.679  22.788  0.00  0.00    -0.008 A 
ATOM      5  C   UNL     1       9.273  -1.517  21.536  0.00  0.00    +0.047 C 
ATOM      6  C   UNL     1       9.753   0.643  22.707  0.00  0.00    +0.018 A 
ATOM      7  C   UNL     1       9.792   1.463  23.836  0.00  0.00    +0.023 A 
ATOM      8  C   UNL     1       9.363   0.936  25.059  0.00  0.00    +0.018 A 
ENDROOT
BRANCH   7   9
ATOM      9  C   UNL     1      10.282   2.829  23.725  0.00  0.00    +0.202 A 
ATOM     10  N   UNL     1      11.584   3.109  23.361  0.00  0.00    -0.184 NA
ATOM     11  C   UNL     1      11.619   4.428  23.374  0.00  0.00    +0.332 A 
ATOM     12  O   UNL     1      10.423   4.983  23.726  0.00  0.00    -0.328 OA
ATOM     13  N   UNL     1       9.542   3.928  23.956  0.00  0.00    -0.056 NA
BRANCH  11  14
ATOM     14  C   UNL     1      12.723   5.374  23.071  0.00  0.00    +0.472 C 
ATOM     15  F   UNL     1      13.943   4.844  23.359  0.00  0.00    -0.162 F 
ATOM     16  F   UNL     1      12.623   6.527  23.786  0.00  0.00    -0.162 F 
ATOM     17  F   UNL     1      12.765   5.738  21.761  0.00  0.00    -0.162 F 
ENDBRANCH  11  14
ENDBRANCH   7   9
BRANCH   3  18
ATOM     18  O   UNL     1       8.455  -2.514  23.959  0.00  0.00    -0.491 OA
BRANCH  18  19
ATOM     19  C   UNL     1       9.333  -3.494  24.494  0.00  0.00    +0.229 C 
BRANCH  19  20
ATOM     20  C   UNL     1       8.669  -4.865  24.429  0.00  0.00    +0.049 C 
BRANCH  20  21
ATOM     21  C   UNL     1       7.168  -4.728  24.680  0.00  0.00    +0.080 C 
BRANCH  21  22
ATOM     22  C   UNL     1       6.819  -5.025  26.085  0.00  0.00    +0.138 A 
ATOM     23  O   UNL     1       7.661  -5.848  26.765  0.00  0.00    -0.359 OA
ATOM     24  N   UNL     1       7.193  -6.017  28.056  0.00  0.00    -0.083 NA
ATOM     25  C   UNL     1       6.068  -5.295  28.133  0.00  0.00    +0.081 A 
ATOM     26  C   UNL     1       5.286  -5.258  29.386  0.00  0.00    +0.069 C 
ATOM     27  C   UNL     1       5.793  -4.642  26.912  0.00  0.00    +0.070 A 
ENDBRANCH  21  22
ENDBRANCH  20  21
ENDBRANCH  19  20
ENDBRANCH  18  19
ENDBRANCH   3  18
TORSDOF 7
ENDMDL
MODEL 4
REMARK VINA RESULT:      -6.7      3.348      5.133
REMARK  Name = 
REMARK  10 active torsions:
REMARK  status: ('A' for Active; 'I' for Inactive)
REMARK    1  A    between atoms: C_1  and  C_2
REMARK    2  A    between atoms: C_4  and  C_19
REMARK    3  A    between atoms: C_6  and  C_18
REMARK    4  A    between atoms: C_7  and  O_8
REMARK    5  A    between atoms: O_8  and  C_9
REMARK    6  A    between atoms: C_9  and  C_10
REMARK    7  A    between atoms: C_10  and  C_11
REMARK    8  A    between atoms: C_11  and  C_12
REMARK    9  A    between atoms: C_14  and  C_17
REMARK   10  A    between atoms: C_22  and  C_24
REMARK                            x       y       z     vdW  Elec       q    Type
REMARK                         _______ _______ _______ _____ _____    ______ ____
ROOT
ATOM      1  C   UNL     1       9.197  -1.563  21.701  0.00  0.00    +0.047 C 
ATOM      2  C   UNL     1       9.259  -0.768  22.978  0.00  0.00    -0.008 A 
ATOM      3  C   UNL     1       8.857  -1.238  24.245  0.00  0.00    +0.126 A 
ATOM      4  C   UNL     1       8.888  -0.366  25.356  0.00  0.00    -0.008 A 
ATOM      5  C   UNL     1       8.440  -0.821  26.721  0.00  0.00    +0.047 C 
ATOM      6  C   UNL     1       9.344   0.953  25.203  0.00  0.00    +0.018 A 
ATOM      7  C   UNL     1       9.768   1.428  23.961  0.00  0.00    +0.023 A 
ATOM      8  C   UNL     1       9.722   0.562  22.863  0.00  0.00    +0.018 A 
ENDROOT
BRANCH   7   9
ATOM      9  C   UNL     1      10.233   2.801  23.829  0.00  0.00    +0.202 A 
ATOM     10  N   UNL     1      11.521   3.098  23.431  0.00  0.00    -0.184 NA
ATOM     11  C   UNL     1      11.536   4.418  23.433  0.00  0.00    +0.332 A 
ATOM     12  O   UNL     1      10.339   4.957  23.809  0.00  0.00    -0.328 OA
ATOM     13  N   UNL     1       9.482   3.891  24.068  0.00  0.00    -0.056 NA
BRANCH  11  14
ATOM     14  C   UNL     1      12.617   5.378  23.096  0.00  0.00    +0.472 C 
ATOM     15  F   UNL     1      12.554   5.783  21.799  0.00  0.00    -0.162 F 
ATOM     16  F   UNL     1      13.855   4.842  23.275  0.00  0.00    -0.162 F 
ATOM     17  F   UNL     1      12.578   6.509  23.852  0.00  0.00    -0.162 F 
ENDBRANCH  11  14
ENDBRANCH   7   9
BRANCH   3  18
ATOM     18  O   UNL     1       8.352  -2.481  24.537  0.00  0.00    -0.491 OA
BRANCH  18  19
ATOM     19  C   UNL     1       9.274  -3.550  24.704  0.00  0.00    +0.229 C 
BRANCH  19  20
ATOM     20  C   UNL     1       8.809  -4.450  25.844  0.00  0.00    +0.049 C 
BRANCH  20  21
ATOM     21  C   UNL     1       7.517  -5.163  25.450  0.00  0.00    +0.080 C 
BRANCH  21  22
ATOM     22  C   UNL     1       6.779  -5.650  26.633  0.00  0.00    +0.138 A 
ATOM     23  O   UNL     1       7.507  -5.888  27.756  0.00  0.00    -0.359 OA
ATOM     24  N   UNL     1       6.667  -6.331  28.763  0.00  0.00    -0.083 NA
ATOM     25  C   UNL     1       5.440  -6.359  28.226  0.00  0.00    +0.081 A 
ATOM     26  C   UNL     1       4.282  -6.804  29.029  0.00  0.00    +0.069 C 
ATOM     27  C   UNL     1       5.458  -5.929  26.882  0.00  0.00    +0.070 A 
ENDBRANCH  21  22
ENDBRANCH  20  21
ENDBRANCH  19  20
ENDBRANCH  18  19
ENDBRANCH   3  18
TORSDOF 7
ENDMDL
MODEL 5
REMARK VINA RESULT:      -6.7      2.307      3.155
REMARK  Name = 
REMARK  10 active torsions:
REMARK  status: ('A' for Active; 'I' for Inactive)
REMARK    1  A    between atoms: C_1  and  C_2
REMARK    2  A    between atoms: C_4  and  C_19
REMARK    3  A    between atoms: C_6  and  C_18
REMARK    4  A    between atoms: C_7  and  O_8
REMARK    5  A    between atoms: O_8  and  C_9
REMARK    6  A    between atoms: C_9  and  C_10
REMARK    7  A    between atoms: C_10  and  C_11
REMARK    8  A    between atoms: C_11  and  C_12
REMARK    9  A    between atoms: C_14  and  C_17
REMARK   10  A    between atoms: C_22  and  C_24
REMARK                            x       y       z     vdW  Elec       q    Type
REMARK                         _______ _______ _______ _____ _____    ______ ____
ROOT
ATOM      1  C   UNL     1       5.809  -3.167  21.878  0.00  0.00    +0.047 C 
ATOM      2  C   UNL     1       7.009  -3.139  22.787  0.00  0.00    -0.008 A 
ATOM      3  C   UNL     1       7.540  -4.258  23.461  0.00  0.00    +0.126 A 
ATOM      4  C   UNL     1       8.624  -4.087  24.352  0.00  0.00    -0.008 A 
ATOM      5  C   UNL     1       9.202  -5.252  25.113  0.00  0.00    +0.047 C 
ATOM      6  C   UNL     1       9.184  -2.815  24.542  0.00  0.00    +0.018 A 
ATOM      7  C   UNL     1       8.687  -1.700  23.866  0.00  0.00    +0.023 A 
ATOM      8  C   UNL     1       7.605  -1.876  22.995  0.00  0.00    +0.018 A 
ENDROOT
BRANCH   7   9
ATOM      9  C   UNL     1       9.284  -0.391  24.083  0.00  0.00    +0.202 A 
ATOM     10  N   UNL     1       8.651   0.772  23.695  0.00  0.00    -0.184 NA
ATOM     11  C   UNL     1       9.501   1.712  24.065  0.00  0.00    +0.332 A 
ATOM     12  O   UNL     1      10.621   1.203  24.657  0.00  0.00    -0.328 OA
ATOM     13  N   UNL     1      10.477  -0.182  24.669  0.00  0.00    -0.056 NA
BRANCH  11  14
ATOM     14  C   UNL     1       9.427   3.190  23.947  0.00  0.00    +0.472 C 
ATOM     15  F   UNL     1       8.932   3.768  25.075  0.00  0.00    -0.162 F 
ATOM     16  F   UNL     1       8.622   3.584  22.924  0.00  0.00    -0.162 F 
ATOM     17  F   UNL     1      10.640   3.765  23.724  0.00  0.00    -0.162 F 
ENDBRANCH  11  14
ENDBRANCH   7   9
BRANCH   3  18
ATOM     18  O   UNL     1       7.072  -5.547  23.407  0.00  0.00    -0.491 OA
BRANCH  18  19
ATOM     19  C   UNL     1       5.716  -5.777  23.762  0.00  0.00    +0.229 C 
BRANCH  19  20
ATOM     20  C   UNL     1       5.539  -5.570  25.262  0.00  0.00    +0.049 C 
BRANCH  20  21
ATOM     21  C   UNL     1       4.432  -4.550  25.520  0.00  0.00    +0.080 C 
BRANCH  21  22
ATOM     22  C   UNL     1       4.978  -3.202  25.774  0.00  0.00    +0.138 A 
ATOM     23  O   UNL     1       4.403  -2.170  25.100  0.00  0.00    -0.359 OA
ATOM     24  N   UNL     1       5.027  -0.987  25.455  0.00  0.00    -0.083 NA
ATOM     25  C   UNL     1       5.977  -1.326  26.336  0.00  0.00    +0.081 A 
ATOM     26  C   UNL     1       6.858  -0.294  26.921  0.00  0.00    +0.069 C 
ATOM     27  C   UNL     1       5.980  -2.717  26.577  0.00  0.00    +0.070 A 
ENDBRANCH  21  22
ENDBRANCH  20  21
ENDBRANCH  19  20
ENDBRANCH  18  19
ENDBRANCH   3  18
TORSDOF 7
ENDMDL
MODEL 6
REMARK VINA RESULT:      -6.6      4.185      7.266
REMARK  Name = 
REMARK  10 active torsions:
REMARK  status: ('A' for Active; 'I' for Inactive)
REMARK    1  A    between atoms: C_1  and  C_2
REMARK    2  A    between atoms: C_4  and  C_19
REMARK    3  A    between atoms: C_6  and  C_18
REMARK    4  A    between atoms: C_7  and  O_8
REMARK    5  A    between atoms: O_8  and  C_9
REMARK    6  A    between atoms: C_9  and  C_10
REMARK    7  A    between atoms: C_10  and  C_11
REMARK    8  A    between atoms: C_11  and  C_12
REMARK    9  A    between atoms: C_14  and  C_17
REMARK   10  A    between atoms: C_22  and  C_24
REMARK                            x       y       z     vdW  Elec       q    Type
REMARK                         _______ _______ _______ _____ _____    ______ ____
ROOT
ATOM      1  C   UNL     1      11.414   0.588  24.826  0.00  0.00    +0.047 C 
ATOM      2  C   UNL     1      10.283   0.288  23.880  0.00  0.00    -0.008 A 
ATOM      3  C   UNL     1       9.641   1.238  23.058  0.00  0.00    +0.126 A 
ATOM      4  C   UNL     1       8.534   0.847  22.271  0.00  0.00    -0.008 A 
ATOM      5  C   UNL     1       7.804   1.837  21.402  0.00  0.00    +0.047 C 
ATOM      6  C   UNL     1       8.096  -0.486  22.286  0.00  0.00    +0.018 A 
ATOM      7  C   UNL     1       8.733  -1.445  23.075  0.00  0.00    +0.023 A 
ATOM      8  C   UNL     1       9.820  -1.047  23.861  0.00  0.00    +0.018 A 
ENDROOT
BRANCH   7   9
ATOM      9  C   UNL     1       8.257  -2.820  23.075  0.00  0.00    +0.202 A 
ATOM     10  N   UNL     1       7.398  -3.293  22.104  0.00  0.00    -0.184 NA
ATOM     11  C   UNL     1       7.218  -4.553  22.455  0.00  0.00    +0.332 A 
ATOM     12  O   UNL     1       7.910  -4.889  23.583  0.00  0.00    -0.328 OA
ATOM     13  N   UNL     1       8.595  -3.747  23.990  0.00  0.00    -0.056 NA
BRANCH  11  14
ATOM     14  C   UNL     1       6.409  -5.630  21.830  0.00  0.00    +0.472 C 
ATOM     15  F   UNL     1       5.156  -5.700  22.358  0.00  0.00    -0.162 F 
ATOM     16  F   UNL     1       6.970  -6.858  21.999  0.00  0.00    -0.162 F 
ATOM     17  F   UNL     1       6.249  -5.463  20.489  0.00  0.00    -0.162 F 
ENDBRANCH  11  14
ENDBRANCH   7   9
BRANCH   3  18
ATOM     18  O   UNL     1       9.930   2.577  22.972  0.00  0.00    -0.491 OA
BRANCH  18  19
ATOM     19  C   UNL     1       9.829   3.356  24.156  0.00  0.00    +0.229 C 
BRANCH  19  20
ATOM     20  C   UNL     1       8.414   3.912  24.281  0.00  0.00    +0.049 C 
BRANCH  20  21
ATOM     21  C   UNL     1       7.800   3.475  25.609  0.00  0.00    +0.080 C 
BRANCH  21  22
ATOM     22  C   UNL     1       7.173   2.141  25.509  0.00  0.00    +0.138 A 
ATOM     23  O   UNL     1       6.160   2.004  24.612  0.00  0.00    -0.359 OA
ATOM     24  N   UNL     1       5.693   0.702  24.643  0.00  0.00    -0.083 NA
ATOM     25  C   UNL     1       6.432   0.072  25.566  0.00  0.00    +0.081 A 
ATOM     26  C   UNL     1       6.190  -1.353  25.873  0.00  0.00    +0.069 C 
ATOM     27  C   UNL     1       7.388   0.939  26.137  0.00  0.00    +0.070 A 
ENDBRANCH  21  22
ENDBRANCH  20  21
ENDBRANCH  19  20
ENDBRANCH  18  19
ENDBRANCH   3  18
TORSDOF 7
ENDMDL
MODEL 7
REMARK VINA RESULT:      -6.6      4.051      7.413
REMARK  Name = 
REMARK  10 active torsions:
REMARK  status: ('A' for Active; 'I' for Inactive)
REMARK    1  A    between atoms: C_1  and  C_2
REMARK    2  A    between atoms: C_4  and  C_19
REMARK    3  A    between atoms: C_6  and  C_18
REMARK    4  A    between atoms: C_7  and  O_8
REMARK    5  A    between atoms: O_8  and  C_9
REMARK    6  A    between atoms: C_9  and  C_10
REMARK    7  A    between atoms: C_10  and  C_11
REMARK    8  A    between atoms: C_11  and  C_12
REMARK    9  A    between atoms: C_14  and  C_17
REMARK   10  A    between atoms: C_22  and  C_24
REMARK                            x       y       z     vdW  Elec       q    Type
REMARK                         _______ _______ _______ _____ _____    ______ ____
ROOT
ATOM      1  C   UNL     1       7.198   1.025  27.054  0.00  0.00    +0.047 C 
ATOM      2  C   UNL     1       7.070   0.641  25.604  0.00  0.00    -0.008 A 
ATOM      3  C   UNL     1       7.045   1.550  24.526  0.00  0.00    +0.126 A 
ATOM      4  C   UNL     1       6.838   1.070  23.212  0.00  0.00    -0.008 A 
ATOM      5  C   UNL     1       6.776   2.010  22.037  0.00  0.00    +0.047 C 
ATOM      6  C   UNL     1       6.687  -0.306  22.982  0.00  0.00    +0.018 A 
ATOM      7  C   UNL     1       6.733  -1.222  24.034  0.00  0.00    +0.023 A 
ATOM      8  C   UNL     1       6.926  -0.738  25.333  0.00  0.00    +0.018 A 
ENDROOT
BRANCH   7   9
ATOM      9  C   UNL     1       6.571  -2.644  23.769  0.00  0.00    +0.202 A 
ATOM     10  N   UNL     1       6.519  -3.143  22.483  0.00  0.00    -0.184 NA
ATOM     11  C   UNL     1       6.374  -4.442  22.674  0.00  0.00    +0.332 A 
ATOM     12  O   UNL     1       6.331  -4.777  23.996  0.00  0.00    -0.328 OA
ATOM     13  N   UNL     1       6.462  -3.592  24.717  0.00  0.00    -0.056 NA
BRANCH  11  14
ATOM     14  C   UNL     1       6.258  -5.560  21.703  0.00  0.00    +0.472 C 
ATOM     15  F   UNL     1       5.213  -6.381  21.993  0.00  0.00    -0.162 F 
ATOM     16  F   UNL     1       7.372  -6.341  21.686  0.00  0.00    -0.162 F 
ATOM     17  F   UNL     1       6.068  -5.135  20.425  0.00  0.00    -0.162 F 
ENDBRANCH  11  14
ENDBRANCH   7   9
BRANCH   3  18
ATOM     18  O   UNL     1       7.135   2.917  24.602  0.00  0.00    -0.491 OA
BRANCH  18  19
ATOM     19  C   UNL     1       8.383   3.480  24.983  0.00  0.00    +0.229 C 
BRANCH  19  20
ATOM     20  C   UNL     1       9.169   3.872  23.736  0.00  0.00    +0.049 C 
BRANCH  20  21
ATOM     21  C   UNL     1      10.526   3.171  23.735  0.00  0.00    +0.080 C 
BRANCH  21  22
ATOM     22  C   UNL     1      10.407   1.748  23.355  0.00  0.00    +0.138 A 
ATOM     23  O   UNL     1      10.173   1.482  22.042  0.00  0.00    -0.359 OA
ATOM     24  N   UNL     1      10.094   0.112  21.860  0.00  0.00    -0.083 NA
ATOM     25  C   UNL     1      10.276  -0.427  23.073  0.00  0.00    +0.081 A 
ATOM     26  C   UNL     1      10.239  -1.894  23.252  0.00  0.00    +0.069 C 
ATOM     27  C   UNL     1      10.486   0.568  24.051  0.00  0.00    +0.070 A 
ENDBRANCH  21  22
ENDBRANCH  20  21
ENDBRANCH  19  20
ENDBRANCH  18  19
ENDBRANCH   3  18
TORSDOF 7
ENDMDL
MODEL 8
REMARK VINA RESULT:      -6.5      2.276      3.189
REMARK  Name = 
REMARK  10 active torsions:
REMARK  status: ('A' for Active; 'I' for Inactive)
REMARK    1  A    between atoms: C_1  and  C_2
REMARK    2  A    between atoms: C_4  and  C_19
REMARK    3  A    between atoms: C_6  and  C_18
REMARK    4  A    between atoms: C_7  and  O_8
REMARK    5  A    between atoms: O_8  and  C_9
REMARK    6  A    between atoms: C_9  and  C_10
REMARK    7  A    between atoms: C_10  and  C_11
REMARK    8  A    between atoms: C_11  and  C_12
REMARK    9  A    between atoms: C_14  and  C_17
REMARK   10  A    between atoms: C_22  and  C_24
REMARK                            x       y       z     vdW  Elec       q    Type
REMARK                         _______ _______ _______ _____ _____    ______ ____
ROOT
ATOM      1  C   UNL     1       9.367  -5.256  25.234  0.00  0.00    +0.047 C 
ATOM      2  C   UNL     1       8.724  -4.155  24.433  0.00  0.00    -0.008 A 
ATOM      3  C   UNL     1       7.653  -4.329  23.532  0.00  0.00    +0.126 A 
ATOM      4  C   UNL     1       7.190  -3.228  22.776  0.00  0.00    -0.008 A 
ATOM      5  C   UNL     1       6.068  -3.378  21.782  0.00  0.00    +0.047 C 
ATOM      6  C   UNL     1       7.774  -1.964  22.945  0.00  0.00    +0.018 A 
ATOM      7  C   UNL     1       8.818  -1.768  23.850  0.00  0.00    +0.023 A 
ATOM      8  C   UNL     1       9.280  -2.866  24.584  0.00  0.00    +0.018 A 
ENDROOT
BRANCH   7   9
ATOM      9  C   UNL     1       9.409  -0.446  24.004  0.00  0.00    +0.202 A 
ATOM     10  N   UNL     1       8.755   0.696  23.590  0.00  0.00    -0.184 NA
ATOM     11  C   UNL     1       9.605   1.656  23.904  0.00  0.00    +0.332 A 
ATOM     12  O   UNL     1      10.745   1.179  24.485  0.00  0.00    -0.328 OA
ATOM     13  N   UNL     1      10.614  -0.206  24.551  0.00  0.00    -0.056 NA
BRANCH  11  14
ATOM     14  C   UNL     1       9.515   3.128  23.734  0.00  0.00    +0.472 C 
ATOM     15  F   UNL     1       8.666   3.475  22.730  0.00  0.00    -0.162 F 
ATOM     16  F   UNL     1      10.719   3.685  23.434  0.00  0.00    -0.162 F 
ATOM     17  F   UNL     1       9.067   3.765  24.850  0.00  0.00    -0.162 F 
ENDBRANCH  11  14
ENDBRANCH   7   9
BRANCH   3  18
ATOM     18  O   UNL     1       7.015  -5.507  23.232  0.00  0.00    -0.491 OA
BRANCH  18  19
ATOM     19  C   UNL     1       5.693  -5.689  23.720  0.00  0.00    +0.229 C 
BRANCH  19  20
ATOM     20  C   UNL     1       5.699  -5.639  25.244  0.00  0.00    +0.049 C 
BRANCH  20  21
ATOM     21  C   UNL     1       4.619  -4.678  25.737  0.00  0.00    +0.080 C 
BRANCH  21  22
ATOM     22  C   UNL     1       5.124  -3.293  25.839  0.00  0.00    +0.138 A 
ATOM     23  O   UNL     1       4.567  -2.374  25.007  0.00  0.00    -0.359 OA
ATOM     24  N   UNL     1       5.147  -1.138  25.235  0.00  0.00    -0.083 NA
ATOM     25  C   UNL     1       6.053  -1.335  26.202  0.00  0.00    +0.081 A 
ATOM     26  C   UNL     1       6.880  -0.212  26.691  0.00  0.00    +0.069 C 
ATOM     27  C   UNL     1       6.070  -2.681  26.623  0.00  0.00    +0.070 A 
ENDBRANCH  21  22
ENDBRANCH  20  21
ENDBRANCH  19  20
ENDBRANCH  18  19
ENDBRANCH   3  18
TORSDOF 7
ENDMDL
MODEL 9
REMARK VINA RESULT:      -6.5      4.933      8.786
REMARK  Name = 
REMARK  10 active torsions:
REMARK  status: ('A' for Active; 'I' for Inactive)
REMARK    1  A    between atoms: C_1  and  C_2
REMARK    2  A    between atoms: C_4  and  C_19
REMARK    3  A    between atoms: C_6  and  C_18
REMARK    4  A    between atoms: C_7  and  O_8
REMARK    5  A    between atoms: O_8  and  C_9
REMARK    6  A    between atoms: C_9  and  C_10
REMARK    7  A    between atoms: C_10  and  C_11
REMARK    8  A    between atoms: C_11  and  C_12
REMARK    9  A    between atoms: C_14  and  C_17
REMARK   10  A    between atoms: C_22  and  C_24
REMARK                            x       y       z     vdW  Elec       q    Type
REMARK                         _______ _______ _______ _____ _____    ______ ____
ROOT
ATOM      1  C   UNL     1       9.843   1.509  21.973  0.00  0.00    +0.047 C 
ATOM      2  C   UNL     1       8.645   0.852  22.605  0.00  0.00    -0.008 A 
ATOM      3  C   UNL     1       7.657   1.521  23.357  0.00  0.00    +0.126 A 
ATOM      4  C   UNL     1       6.622   0.778  23.969  0.00  0.00    -0.008 A 
ATOM      5  C   UNL     1       5.564   1.452  24.804  0.00  0.00    +0.047 C 
ATOM      6  C   UNL     1       6.564  -0.614  23.806  0.00  0.00    +0.018 A 
ATOM      7  C   UNL     1       7.520  -1.290  23.046  0.00  0.00    +0.023 A 
ATOM      8  C   UNL     1       8.548  -0.549  22.453  0.00  0.00    +0.018 A 
ENDROOT
BRANCH   7   9
ATOM      9  C   UNL     1       7.439  -2.736  22.894  0.00  0.00    +0.202 A 
ATOM     10  N   UNL     1       6.516  -3.329  22.056  0.00  0.00    -0.184 NA
ATOM     11  C   UNL     1       6.769  -4.617  22.200  0.00  0.00    +0.332 A 
ATOM     12  O   UNL     1       7.789  -4.858  23.074  0.00  0.00    -0.328 OA
ATOM     13  N   UNL     1       8.230  -3.618  23.531  0.00  0.00    -0.056 NA
BRANCH  11  14
ATOM     14  C   UNL     1       6.140  -5.807  21.573  0.00  0.00    +0.472 C 
ATOM     15  F   UNL     1       4.855  -5.982  21.985  0.00  0.00    -0.162 F 
ATOM     16  F   UNL     1       6.803  -6.956  21.873  0.00  0.00    -0.162 F 
ATOM     17  F   UNL     1       6.099  -5.731  20.215  0.00  0.00    -0.162 F 
ENDBRANCH  11  14
ENDBRANCH   7   9
BRANCH   3  18
ATOM     18  O   UNL     1       7.608   2.864  23.637  0.00  0.00    -0.491 OA
BRANCH  18  19
ATOM     19  C   UNL     1       7.210   3.745  22.596  0.00  0.00    +0.229 C 
BRANCH  19  20
ATOM     20  C   UNL     1       7.712   5.153  22.899  0.00  0.00    +0.049 C 
BRANCH  20  21
ATOM     21  C   UNL     1       8.452   5.165  24.235  0.00  0.00    +0.080 C 
BRANCH  21  22
ATOM     22  C   UNL     1       9.905   5.358  24.053  0.00  0.00    +0.138 A 
ATOM     23  O   UNL     1      10.472   6.404  24.711  0.00  0.00    -0.359 OA
ATOM     24  N   UNL     1      11.828   6.438  24.437  0.00  0.00    -0.083 NA
ATOM     25  C   UNL     1      12.057   5.409  23.610  0.00  0.00    +0.081 A 
ATOM     26  C   UNL     1      13.419   5.151  23.097  0.00  0.00    +0.069 C 
ATOM     27  C   UNL     1      10.872   4.690  23.344  0.00  0.00    +0.070 A 
ENDBRANCH  21  22
ENDBRANCH  20  21
ENDBRANCH  19  20
ENDBRANCH  18  19
ENDBRANCH   3  18
TORSDOF 7
ENDMDL
