MODEL 1
REMARK VINA RESULT:      -5.9      0.000      0.000
REMARK  Name = 
REMARK  5 active torsions:
REMARK  status: ('A' for Active; 'I' for Inactive)
REMARK    1  A    between atoms: C3*_2  and  O3*_22
REMARK    2  A    between atoms: C4*_4  and  C5*_20
REMARK    3  A    between atoms: C1*_7  and  N_9
REMARK    4  A    between atoms: C_11  and  C_17
REMARK    5  A    between atoms: C5*_20  and  O5*_21
REMARK                            x       y       z     vdW  Elec       q    Type
REMARK                         _______ _______ _______ _____ _____    ______ ____
ROOT
ATOM      1  N   UNL     1       7.586  -5.223  24.878  0.00  0.00    -0.273 N 
ATOM      2  C   UNL     1       8.611  -5.343  25.810  0.00  0.00    +0.331 A 
ATOM      3  O   UNL     1       9.801  -5.198  25.543  0.00  0.00    -0.246 OA
ATOM      4  N   UNL     1       8.223  -5.631  27.087  0.00  0.00    -0.274 N 
ATOM      5  H   UNL     1       8.955  -5.699  27.778  0.00  0.00    +0.173 HD
ATOM      6  C   UNL     1       6.939  -5.674  27.551  0.00  0.00    +0.261 A 
ATOM      7  O   UNL     1       6.692  -5.813  28.745  0.00  0.00    -0.267 OA
ATOM      8  C   UNL     1       5.863  -5.528  26.525  0.00  0.00    +0.056 A 
ATOM      9  C   UNL     1       6.258  -5.294  25.263  0.00  0.00    +0.106 A 
ENDROOT
BRANCH   1  11
ATOM     10  C2* UNL     1       6.852  -5.032  22.483  0.00  0.00    +0.088 C 
ATOM     11  C1* UNL     1       7.978  -4.872  23.509  0.00  0.00    +0.226 C 
ATOM     12  O4* UNL     1       8.417  -3.493  23.432  0.00  0.00    -0.348 OA
ATOM     13  C4* UNL     1       7.635  -2.831  22.428  0.00  0.00    +0.175 C 
ATOM     14  C3* UNL     1       6.339  -3.623  22.347  0.00  0.00    +0.150 C 
BRANCH  14  15
ATOM     15  O3* UNL     1       5.619  -3.389  21.150  0.00  0.00    -0.389 OA
ATOM     16  H3* UNL     1       6.068  -2.686  20.644  0.00  0.00    +0.210 HD
ENDBRANCH  14  15
BRANCH  13  17
ATOM     17  C5* UNL     1       7.395  -1.358  22.749  0.00  0.00    +0.190 C 
BRANCH  17  18
ATOM     18  O5* UNL     1       6.046  -1.117  23.135  0.00  0.00    -0.392 OA
ATOM     19  H5* UNL     1       5.910  -0.149  23.180  0.00  0.00    +0.210 HD
ENDBRANCH  17  18
ENDBRANCH  13  17
ENDBRANCH   1  11
BRANCH   8  20
ATOM     20  C   UNL     1       4.474  -5.534  26.950  0.00  0.00    +0.022 C 
ATOM     21  C   UNL     1       3.630  -6.569  26.851  0.00  0.00    +0.052 C 
ATOM     22 BR   UNL     1       1.858  -6.517  27.399  0.00  0.00    -0.059 Br
ENDBRANCH   8  20
TORSDOF 5
ENDMDL
MODEL 2
REMARK VINA RESULT:      -5.9      2.091      2.601
REMARK  Name = 
REMARK  5 active torsions:
REMARK  status: ('A' for Active; 'I' for Inactive)
REMARK    1  A    between atoms: C3*_2  and  O3*_22
REMARK    2  A    between atoms: C4*_4  and  C5*_20
REMARK    3  A    between atoms: C1*_7  and  N_9
REMARK    4  A    between atoms: C_11  and  C_17
REMARK    5  A    between atoms: C5*_20  and  O5*_21
REMARK                            x       y       z     vdW  Elec       q    Type
REMARK                         _______ _______ _______ _____ _____    ______ ____
ROOT
ATOM      1  N   UNL     1       8.270  -3.893  24.939  0.00  0.00    -0.273 N 
ATOM      2  C   UNL     1       9.052  -4.962  25.360  0.00  0.00    +0.331 A 
ATOM      3  O   UNL     1      10.126  -5.269  24.851  0.00  0.00    -0.246 OA
ATOM      4  N   UNL     1       8.559  -5.680  26.413  0.00  0.00    -0.274 N 
ATOM      5  H   UNL     1       9.127  -6.445  26.743  0.00  0.00    +0.173 HD
ATOM      6  C   UNL     1       7.461  -5.365  27.161  0.00  0.00    +0.261 A 
ATOM      7  O   UNL     1       7.169  -5.999  28.171  0.00  0.00    -0.267 OA
ATOM      8  C   UNL     1       6.652  -4.202  26.687  0.00  0.00    +0.056 A 
ATOM      9  C   UNL     1       7.120  -3.534  25.621  0.00  0.00    +0.106 A 
ENDROOT
BRANCH   1  11
ATOM     10  C2* UNL     1       7.768  -2.149  23.201  0.00  0.00    +0.088 C 
ATOM     11  C1* UNL     1       8.801  -3.083  23.837  0.00  0.00    +0.226 C 
ATOM     12  O4* UNL     1       9.896  -2.247  24.288  0.00  0.00    -0.348 OA
ATOM     13  C4* UNL     1       9.582  -0.886  23.957  0.00  0.00    +0.175 C 
ATOM     14  C3* UNL     1       8.065  -0.835  23.875  0.00  0.00    +0.150 C 
BRANCH  14  15
ATOM     15  O3* UNL     1       7.584   0.293  23.165  0.00  0.00    -0.389 OA
ATOM     16  H3* UNL     1       7.842   1.101  23.646  0.00  0.00    +0.210 HD
ENDBRANCH  14  15
BRANCH  13  17
ATOM     17  C5* UNL     1      10.142   0.108  24.972  0.00  0.00    +0.190 C 
BRANCH  17  18
ATOM     18  O5* UNL     1       9.105   0.828  25.628  0.00  0.00    -0.392 OA
ATOM     19  H5* UNL     1       8.246   0.446  25.353  0.00  0.00    +0.210 HD
ENDBRANCH  17  18
ENDBRANCH  13  17
ENDBRANCH   1  11
BRANCH   8  20
ATOM     20  C   UNL     1       5.488  -3.791  27.452  0.00  0.00    +0.022 C 
ATOM     21  C   UNL     1       4.225  -4.170  27.218  0.00  0.00    +0.052 C 
ATOM     22 BR   UNL     1       2.770  -3.604  28.221  0.00  0.00    -0.059 Br
ENDBRANCH   8  20
TORSDOF 5
ENDMDL
MODEL 3
REMARK VINA RESULT:      -5.9      3.859      5.606
REMARK  Name = 
REMARK  5 active torsions:
REMARK  status: ('A' for Active; 'I' for Inactive)
REMARK    1  A    between atoms: C3*_2  and  O3*_22
REMARK    2  A    between atoms: C4*_4  and  C5*_20
REMARK    3  A    between atoms: C1*_7  and  N_9
REMARK    4  A    between atoms: C_11  and  C_17
REMARK    5  A    between atoms: C5*_20  and  O5*_21
REMARK                            x       y       z     vdW  Elec       q    Type
REMARK                         _______ _______ _______ _____ _____    ______ ____
ROOT
ATOM      1  N   UNL     1       8.027  -2.989  23.993  0.00  0.00    -0.273 N 
ATOM      2  C   UNL     1       9.401  -3.068  24.189  0.00  0.00    +0.331 A 
ATOM      3  O   UNL     1       9.985  -4.086  24.552  0.00  0.00    -0.246 OA
ATOM      4  N   UNL     1      10.105  -1.924  23.940  0.00  0.00    -0.274 N 
ATOM      5  H   UNL     1      11.105  -1.974  24.056  0.00  0.00    +0.173 HD
ATOM      6  C   UNL     1       9.609  -0.774  23.396  0.00  0.00    +0.261 A 
ATOM      7  O   UNL     1      10.344   0.159  23.087  0.00  0.00    -0.267 OA
ATOM      8  C   UNL     1       8.130  -0.728  23.187  0.00  0.00    +0.056 A 
ATOM      9  C   UNL     1       7.442  -1.843  23.481  0.00  0.00    +0.106 A 
ENDROOT
BRANCH   1  11
ATOM     10  C2* UNL     1       5.742  -4.005  24.229  0.00  0.00    +0.088 C 
ATOM     11  C1* UNL     1       7.259  -4.218  24.214  0.00  0.00    +0.226 C 
ATOM     12  O4* UNL     1       7.531  -5.194  23.177  0.00  0.00    -0.348 OA
ATOM     13  C4* UNL     1       6.281  -5.576  22.585  0.00  0.00    +0.175 C 
ATOM     14  C3* UNL     1       5.348  -4.400  22.830  0.00  0.00    +0.150 C 
BRANCH  14  15
ATOM     15  O3* UNL     1       3.980  -4.739  22.695  0.00  0.00    -0.389 OA
ATOM     16  H3* UNL     1       3.499  -3.972  22.334  0.00  0.00    +0.210 HD
ENDBRANCH  14  15
BRANCH  13  17
ATOM     17  C5* UNL     1       6.414  -5.912  21.101  0.00  0.00    +0.190 C 
BRANCH  17  18
ATOM     18  O5* UNL     1       5.808  -4.919  20.282  0.00  0.00    -0.392 OA
ATOM     19  H5* UNL     1       4.955  -5.271  19.956  0.00  0.00    +0.210 HD
ENDBRANCH  17  18
ENDBRANCH  13  17
ENDBRANCH   1  11
BRANCH   8  20
ATOM     20  C   UNL     1       7.537   0.452  22.583  0.00  0.00    +0.022 C 
ATOM     21  C   UNL     1       7.155   1.557  23.237  0.00  0.00    +0.052 C 
ATOM     22 BR   UNL     1       6.389   3.034  22.416  0.00  0.00    -0.059 Br
ENDBRANCH   8  20
TORSDOF 5
ENDMDL
MODEL 4
REMARK VINA RESULT:      -5.9      3.504      5.062
REMARK  Name = 
REMARK  5 active torsions:
REMARK  status: ('A' for Active; 'I' for Inactive)
REMARK    1  A    between atoms: C3*_2  and  O3*_22
REMARK    2  A    between atoms: C4*_4  and  C5*_20
REMARK    3  A    between atoms: C1*_7  and  N_9
REMARK    4  A    between atoms: C_11  and  C_17
REMARK    5  A    between atoms: C5*_20  and  O5*_21
REMARK                            x       y       z     vdW  Elec       q    Type
REMARK                         _______ _______ _______ _____ _____    ______ ____
ROOT
ATOM      1  N   UNL     1       7.442  -3.797  24.935  0.00  0.00    -0.273 N 
ATOM      2  C   UNL     1       7.864  -3.620  26.247  0.00  0.00    +0.331 A 
ATOM      3  O   UNL     1       7.745  -4.470  27.127  0.00  0.00    -0.246 OA
ATOM      4  N   UNL     1       8.449  -2.418  26.527  0.00  0.00    -0.274 N 
ATOM      5  H   UNL     1       8.779  -2.284  27.471  0.00  0.00    +0.173 HD
ATOM      6  C   UNL     1       8.774  -1.448  25.622  0.00  0.00    +0.261 A 
ATOM      7  O   UNL     1       9.417  -0.455  25.949  0.00  0.00    -0.267 OA
ATOM      8  C   UNL     1       8.318  -1.678  24.219  0.00  0.00    +0.056 A 
ATOM      9  C   UNL     1       7.700  -2.843  23.965  0.00  0.00    +0.106 A 
ENDROOT
BRANCH   1  11
ATOM     10  C2* UNL     1       5.319  -5.096  24.593  0.00  0.00    +0.088 C 
ATOM     11  C1* UNL     1       6.851  -5.098  24.603  0.00  0.00    +0.226 C 
ATOM     12  O4* UNL     1       7.274  -5.541  23.289  0.00  0.00    -0.348 OA
ATOM     13  C4* UNL     1       6.099  -5.807  22.509  0.00  0.00    +0.175 C 
ATOM     14  C3* UNL     1       5.007  -4.949  23.128  0.00  0.00    +0.150 C 
BRANCH  14  15
ATOM     15  O3* UNL     1       3.702  -5.372  22.775  0.00  0.00    -0.389 OA
ATOM     16  H3* UNL     1       3.094  -5.163  23.509  0.00  0.00    +0.210 HD
ENDBRANCH  14  15
BRANCH  13  17
ATOM     17  C5* UNL     1       6.301  -5.508  21.025  0.00  0.00    +0.190 C 
BRANCH  17  18
ATOM     18  O5* UNL     1       5.777  -4.233  20.670  0.00  0.00    -0.392 OA
ATOM     19  H5* UNL     1       6.463  -3.559  20.854  0.00  0.00    +0.210 HD
ENDBRANCH  17  18
ENDBRANCH  13  17
ENDBRANCH   1  11
BRANCH   8  20
ATOM     20  C   UNL     1       8.655  -0.703  23.196  0.00  0.00    +0.022 C 
ATOM     21  C   UNL     1       7.949   0.396  22.899  0.00  0.00    +0.052 C 
ATOM     22 BR   UNL     1       8.420   1.603  21.572  0.00  0.00    -0.059 Br
ENDBRANCH   8  20
TORSDOF 5
ENDMDL
MODEL 5
REMARK VINA RESULT:      -5.8      2.186      2.537
REMARK  Name = 
REMARK  5 active torsions:
REMARK  status: ('A' for Active; 'I' for Inactive)
REMARK    1  A    between atoms: C3*_2  and  O3*_22
REMARK    2  A    between atoms: C4*_4  and  C5*_20
REMARK    3  A    between atoms: C1*_7  and  N_9
REMARK    4  A    between atoms: C_11  and  C_17
REMARK    5  A    between atoms: C5*_20  and  O5*_21
REMARK                            x       y       z     vdW  Elec       q    Type
REMARK                         _______ _______ _______ _____ _____    ______ ____
ROOT
ATOM      1  N   UNL     1       8.054  -3.681  25.398  0.00  0.00    -0.273 N 
ATOM      2  C   UNL     1       8.570  -4.656  26.244  0.00  0.00    +0.331 A 
ATOM      3  O   UNL     1       9.703  -4.625  26.717  0.00  0.00    -0.246 OA
ATOM      4  N   UNL     1       7.726  -5.687  26.548  0.00  0.00    -0.274 N 
ATOM      5  H   UNL     1       8.081  -6.390  27.178  0.00  0.00    +0.173 HD
ATOM      6  C   UNL     1       6.405  -5.774  26.214  0.00  0.00    +0.261 A 
ATOM      7  O   UNL     1       5.693  -6.677  26.642  0.00  0.00    -0.267 OA
ATOM      8  C   UNL     1       5.881  -4.702  25.315  0.00  0.00    +0.056 A 
ATOM      9  C   UNL     1       6.734  -3.719  24.983  0.00  0.00    +0.106 A 
ENDROOT
BRANCH   1  11
ATOM     10  C2* UNL     1       9.830  -2.765  23.876  0.00  0.00    +0.088 C 
ATOM     11  C1* UNL     1       8.929  -2.544  25.094  0.00  0.00    +0.226 C 
ATOM     12  O4* UNL     1       8.153  -1.349  24.825  0.00  0.00    -0.348 OA
ATOM     13  C4* UNL     1       8.539  -0.847  23.537  0.00  0.00    +0.175 C 
ATOM     14  C3* UNL     1       9.075  -2.055  22.784  0.00  0.00    +0.150 C 
BRANCH  14  15
ATOM     15  O3* UNL     1       9.876  -1.703  21.670  0.00  0.00    -0.389 OA
ATOM     16  H3* UNL     1      10.795  -1.574  21.970  0.00  0.00    +0.210 HD
ENDBRANCH  14  15
BRANCH  13  17
ATOM     17  C5* UNL     1       7.384  -0.170  22.802  0.00  0.00    +0.190 C 
BRANCH  17  18
ATOM     18  O5* UNL     1       6.145  -0.374  23.471  0.00  0.00    -0.392 OA
ATOM     19  H5* UNL     1       5.606   0.437  23.369  0.00  0.00    +0.210 HD
ENDBRANCH  17  18
ENDBRANCH  13  17
ENDBRANCH   1  11
BRANCH   8  20
ATOM     20  C   UNL     1       4.477  -4.713  24.944  0.00  0.00    +0.022 C 
ATOM     21  C   UNL     1       3.955  -5.329  23.875  0.00  0.00    +0.052 C 
ATOM     22 BR   UNL     1       2.152  -5.301  23.440  0.00  0.00    -0.059 Br
ENDBRANCH   8  20
TORSDOF 5
ENDMDL
MODEL 6
REMARK VINA RESULT:      -5.7      3.971      5.185
REMARK  Name = 
REMARK  5 active torsions:
REMARK  status: ('A' for Active; 'I' for Inactive)
REMARK    1  A    between atoms: C3*_2  and  O3*_22
REMARK    2  A    between atoms: C4*_4  and  C5*_20
REMARK    3  A    between atoms: C1*_7  and  N_9
REMARK    4  A    between atoms: C_11  and  C_17
REMARK    5  A    between atoms: C5*_20  and  O5*_21
REMARK                            x       y       z     vdW  Elec       q    Type
REMARK                         _______ _______ _______ _____ _____    ______ ____
ROOT
ATOM      1  N   UNL     1       8.997  -0.987  25.021  0.00  0.00    -0.273 N 
ATOM      2  C   UNL     1       8.652  -1.272  26.337  0.00  0.00    +0.331 A 
ATOM      3  O   UNL     1       9.034  -0.616  27.303  0.00  0.00    -0.246 OA
ATOM      4  N   UNL     1       7.831  -2.348  26.517  0.00  0.00    -0.274 N 
ATOM      5  H   UNL     1       7.555  -2.552  27.466  0.00  0.00    +0.173 HD
ATOM      6  C   UNL     1       7.220  -3.071  25.533  0.00  0.00    +0.261 A 
ATOM      7  O   UNL     1       6.394  -3.941  25.794  0.00  0.00    -0.267 OA
ATOM      8  C   UNL     1       7.603  -2.729  24.130  0.00  0.00    +0.056 A 
ATOM      9  C   UNL     1       8.450  -1.700  23.968  0.00  0.00    +0.106 A 
ENDROOT
BRANCH   1  11
ATOM     10  C2* UNL     1      10.450   0.264  23.398  0.00  0.00    +0.088 C 
ATOM     11  C1* UNL     1       9.844   0.190  24.802  0.00  0.00    +0.226 C 
ATOM     12  O4* UNL     1       9.092   1.414  24.995  0.00  0.00    -0.348 OA
ATOM     13  C4* UNL     1       9.217   2.207  23.805  0.00  0.00    +0.175 C 
ATOM     14  C3* UNL     1       9.516   1.213  22.694  0.00  0.00    +0.150 C 
BRANCH  14  15
ATOM     15  O3* UNL     1      10.076   1.819  21.543  0.00  0.00    -0.389 OA
ATOM     16  H3* UNL     1      10.926   1.386  21.341  0.00  0.00    +0.210 HD
ENDBRANCH  14  15
BRANCH  13  17
ATOM     17  C5* UNL     1       7.968   3.038  23.520  0.00  0.00    +0.190 C 
BRANCH  17  18
ATOM     18  O5* UNL     1       8.042   3.677  22.251  0.00  0.00    -0.392 OA
ATOM     19  H5* UNL     1       7.482   3.175  21.624  0.00  0.00    +0.210 HD
ENDBRANCH  17  18
ENDBRANCH  13  17
ENDBRANCH   1  11
BRANCH   8  20
ATOM     20  C   UNL     1       6.969  -3.436  23.031  0.00  0.00    +0.022 C 
ATOM     21  C   UNL     1       7.260  -4.680  22.630  0.00  0.00    +0.052 C 
ATOM     22 BR   UNL     1       6.427  -5.533  21.209  0.00  0.00    -0.059 Br
ENDBRANCH   8  20
TORSDOF 5
ENDMDL
MODEL 7
REMARK VINA RESULT:      -5.7      2.406      3.399
REMARK  Name = 
REMARK  5 active torsions:
REMARK  status: ('A' for Active; 'I' for Inactive)
REMARK    1  A    between atoms: C3*_2  and  O3*_22
REMARK    2  A    between atoms: C4*_4  and  C5*_20
REMARK    3  A    between atoms: C1*_7  and  N_9
REMARK    4  A    between atoms: C_11  and  C_17
REMARK    5  A    between atoms: C5*_20  and  O5*_21
REMARK                            x       y       z     vdW  Elec       q    Type
REMARK                         _______ _______ _______ _____ _____    ______ ____
ROOT
ATOM      1  N   UNL     1       6.392  -4.930  23.225  0.00  0.00    -0.273 N 
ATOM      2  C   UNL     1       5.653  -5.667  22.306  0.00  0.00    +0.331 A 
ATOM      3  O   UNL     1       5.788  -5.577  21.089  0.00  0.00    -0.246 OA
ATOM      4  N   UNL     1       4.742  -6.535  22.836  0.00  0.00    -0.274 N 
ATOM      5  H   UNL     1       4.214  -7.092  22.181  0.00  0.00    +0.173 HD
ATOM      6  C   UNL     1       4.590  -6.839  24.158  0.00  0.00    +0.261 A 
ATOM      7  O   UNL     1       3.832  -7.730  24.529  0.00  0.00    -0.267 OA
ATOM      8  C   UNL     1       5.410  -6.038  25.116  0.00  0.00    +0.056 A 
ATOM      9  C   UNL     1       6.268  -5.152  24.586  0.00  0.00    +0.106 A 
ENDROOT
BRANCH   1  11
ATOM     10  C2* UNL     1       6.842  -2.682  22.198  0.00  0.00    +0.088 C 
ATOM     11  C1* UNL     1       7.406  -4.022  22.678  0.00  0.00    +0.226 C 
ATOM     12  O4* UNL     1       8.418  -3.716  23.670  0.00  0.00    -0.348 OA
ATOM     13  C4* UNL     1       8.494  -2.289  23.803  0.00  0.00    +0.175 C 
ATOM     14  C3* UNL     1       7.132  -1.775  23.364  0.00  0.00    +0.150 C 
BRANCH  14  15
ATOM     15  O3* UNL     1       7.139  -0.398  23.030  0.00  0.00    -0.389 OA
ATOM     16  H3* UNL     1       7.773  -0.253  22.303  0.00  0.00    +0.210 HD
ENDBRANCH  14  15
BRANCH  13  17
ATOM     17  C5* UNL     1       8.851  -1.850  25.221  0.00  0.00    +0.190 C 
BRANCH  17  18
ATOM     18  O5* UNL     1       7.748  -1.228  25.871  0.00  0.00    -0.392 OA
ATOM     19  H5* UNL     1       7.006  -1.179  25.234  0.00  0.00    +0.210 HD
ENDBRANCH  17  18
ENDBRANCH  13  17
ENDBRANCH   1  11
BRANCH   8  20
ATOM     20  C   UNL     1       5.324  -6.329  26.537  0.00  0.00    +0.022 C 
ATOM     21  C   UNL     1       5.880  -5.607  27.518  0.00  0.00    +0.052 C 
ATOM     22 BR   UNL     1       5.749  -6.031  29.320  0.00  0.00    -0.059 Br
ENDBRANCH   8  20
TORSDOF 5
ENDMDL
MODEL 8
REMARK VINA RESULT:      -5.6      4.159      5.233
REMARK  Name = 
REMARK  5 active torsions:
REMARK  status: ('A' for Active; 'I' for Inactive)
REMARK    1  A    between atoms: C3*_2  and  O3*_22
REMARK    2  A    between atoms: C4*_4  and  C5*_20
REMARK    3  A    between atoms: C1*_7  and  N_9
REMARK    4  A    between atoms: C_11  and  C_17
REMARK    5  A    between atoms: C5*_20  and  O5*_21
REMARK                            x       y       z     vdW  Elec       q    Type
REMARK                         _______ _______ _______ _____ _____    ______ ____
ROOT
ATOM      1  N   UNL     1       9.032  -1.218  24.446  0.00  0.00    -0.273 N 
ATOM      2  C   UNL     1       9.210  -2.592  24.332  0.00  0.00    +0.331 A 
ATOM      3  O   UNL     1      10.240  -3.118  23.918  0.00  0.00    -0.246 OA
ATOM      4  N   UNL     1       8.153  -3.364  24.725  0.00  0.00    -0.274 N 
ATOM      5  H   UNL     1       8.278  -4.363  24.668  0.00  0.00    +0.173 HD
ATOM      6  C   UNL     1       7.015  -2.922  25.336  0.00  0.00    +0.261 A 
ATOM      7  O   UNL     1       6.175  -3.705  25.771  0.00  0.00    -0.267 OA
ATOM      8  C   UNL     1       6.863  -1.441  25.454  0.00  0.00    +0.056 A 
ATOM      9  C   UNL     1       7.888  -0.690  25.019  0.00  0.00    +0.106 A 
ENDROOT
BRANCH   1  11
ATOM     10  C2* UNL     1      10.226  -0.040  22.576  0.00  0.00    +0.088 C 
ATOM     11  C1* UNL     1      10.170  -0.373  24.070  0.00  0.00    +0.226 C 
ATOM     12  O4* UNL     1      10.134   0.892  24.776  0.00  0.00    -0.348 OA
ATOM     13  C4* UNL     1      10.171   1.947  23.804  0.00  0.00    +0.175 C 
ATOM     14  C3* UNL     1       9.612   1.334  22.529  0.00  0.00    +0.150 C 
BRANCH  14  15
ATOM     15  O3* UNL     1       9.945   2.070  21.366  0.00  0.00    -0.389 OA
ATOM     16  H3* UNL     1      10.916   2.132  21.299  0.00  0.00    +0.210 HD
ENDBRANCH  14  15
BRANCH  13  17
ATOM     17  C5* UNL     1       9.387   3.180  24.247  0.00  0.00    +0.190 C 
BRANCH  17  18
ATOM     18  O5* UNL     1       9.574   4.270  23.351  0.00  0.00    -0.392 OA
ATOM     19  H5* UNL     1      10.516   4.289  23.085  0.00  0.00    +0.210 HD
ENDBRANCH  17  18
ENDBRANCH  13  17
ENDBRANCH   1  11
BRANCH   8  20
ATOM     20  C   UNL     1       5.690  -0.900  26.120  0.00  0.00    +0.022 C 
ATOM     21  C   UNL     1       5.312   0.384  26.118  0.00  0.00    +0.052 C 
ATOM     22 BR   UNL     1       3.810   1.024  26.998  0.00  0.00    -0.059 Br
ENDBRANCH   8  20
TORSDOF 5
ENDMDL
MODEL 9
REMARK VINA RESULT:      -5.5      3.684      5.766
REMARK  Name = 
REMARK  5 active torsions:
REMARK  status: ('A' for Active; 'I' for Inactive)
REMARK    1  A    between atoms: C3*_2  and  O3*_22
REMARK    2  A    between atoms: C4*_4  and  C5*_20
REMARK    3  A    between atoms: C1*_7  and  N_9
REMARK    4  A    between atoms: C_11  and  C_17
REMARK    5  A    between atoms: C5*_20  and  O5*_21
REMARK                            x       y       z     vdW  Elec       q    Type
REMARK                         _______ _______ _______ _____ _____    ______ ____
ROOT
ATOM      1  N   UNL     1       9.062  -2.232  24.381  0.00  0.00    -0.273 N 
ATOM      2  C   UNL     1      10.036  -1.655  23.575  0.00  0.00    +0.331 A 
ATOM      3  O   UNL     1      10.658  -2.265  22.708  0.00  0.00    -0.246 OA
ATOM      4  N   UNL     1      10.276  -0.328  23.787  0.00  0.00    -0.274 N 
ATOM      5  H   UNL     1      10.965   0.108  23.194  0.00  0.00    +0.173 HD
ATOM      6  C   UNL     1       9.564   0.500  24.608  0.00  0.00    +0.261 A 
ATOM      7  O   UNL     1       9.771   1.709  24.636  0.00  0.00    -0.267 OA
ATOM      8  C   UNL     1       8.515  -0.150  25.450  0.00  0.00    +0.056 A 
ATOM      9  C   UNL     1       8.322  -1.467  25.267  0.00  0.00    +0.106 A 
ENDROOT
BRANCH   1  11
ATOM     10  C2* UNL     1       9.347  -4.592  25.191  0.00  0.00    +0.088 C 
ATOM     11  C1* UNL     1       8.759  -3.646  24.140  0.00  0.00    +0.226 C 
ATOM     12  O4* UNL     1       7.328  -3.876  24.128  0.00  0.00    -0.348 OA
ATOM     13  C4* UNL     1       7.032  -4.896  25.093  0.00  0.00    +0.175 C 
ATOM     14  C3* UNL     1       8.171  -4.835  26.100  0.00  0.00    +0.150 C 
BRANCH  14  15
ATOM     15  O3* UNL     1       8.284  -6.010  26.882  0.00  0.00    -0.389 OA
ATOM     16  H3* UNL     1       7.405  -6.424  26.958  0.00  0.00    +0.210 HD
ENDBRANCH  14  15
BRANCH  13  17
ATOM     17  C5* UNL     1       5.667  -4.704  25.749  0.00  0.00    +0.190 C 
BRANCH  17  18
ATOM     18  O5* UNL     1       5.230  -5.888  26.407  0.00  0.00    -0.392 OA
ATOM     19  H5* UNL     1       5.193  -6.609  25.746  0.00  0.00    +0.210 HD
ENDBRANCH  17  18
ENDBRANCH  13  17
ENDBRANCH   1  11
BRANCH   8  20
ATOM     20  C   UNL     1       7.698   0.673  26.323  0.00  0.00    +0.022 C 
ATOM     21  C   UNL     1       7.252   0.323  27.537  0.00  0.00    +0.052 C 
ATOM     22 BR   UNL     1       6.198   1.411  28.607  0.00  0.00    -0.059 Br
ENDBRANCH   8  20
TORSDOF 5
ENDMDL
