MODEL 1
REMARK VINA RESULT:      -6.1      0.000      0.000
REMARK  Name = 
REMARK  4 active torsions:
REMARK  status: ('A' for Active; 'I' for Inactive)
REMARK    1  A    between atoms: C3*_2  and  O3*_20
REMARK    2  A    between atoms: C4*_4  and  C5*_18
REMARK    3  A    between atoms: C1*_7  and  N_9
REMARK    4  A    between atoms: C5*_18  and  O5*_19
REMARK                            x       y       z     vdW  Elec       q    Type
REMARK                         _______ _______ _______ _____ _____    ______ ____
ROOT
ATOM      1  C2* UNL     1       9.874  -1.865  23.859  0.00  0.00    +0.088 C 
ATOM      2  C1* UNL     1       8.508  -1.238  24.152  0.00  0.00    +0.226 C 
ATOM      3  O4* UNL     1       8.454   0.035  23.482  0.00  0.00    -0.348 OA
ATOM      4  C4* UNL     1       9.745   0.261  22.867  0.00  0.00    +0.175 C 
ATOM      5  C3* UNL     1      10.349  -1.119  22.634  0.00  0.00    +0.150 C 
ENDROOT
BRANCH   2   6
ATOM      6  N   UNL     1       7.385  -2.082  23.750  0.00  0.00    -0.273 N 
ATOM      7  C   UNL     1       6.119  -1.659  24.128  0.00  0.00    +0.331 A 
ATOM      8  O   UNL     1       5.898  -0.641  24.780  0.00  0.00    -0.246 OA
ATOM      9  N   UNL     1       5.084  -2.468  23.741  0.00  0.00    -0.274 N 
ATOM     10  H   UNL     1       4.155  -2.168  23.992  0.00  0.00    +0.173 HD
ATOM     11  C   UNL     1       5.188  -3.664  23.082  0.00  0.00    +0.267 A 
ATOM     12  O   UNL     1       4.188  -4.316  22.805  0.00  0.00    -0.267 OA
ATOM     13  C   UNL     1       6.572  -4.100  22.754  0.00  0.00    +0.094 A 
ATOM     14  I   UNL     1       6.883  -5.890  21.817  0.00  0.00    -0.037 I 
ATOM     15  C   UNL     1       7.580  -3.288  23.101  0.00  0.00    +0.113 A 
ENDBRANCH   2   6
BRANCH   5  16
ATOM     16  O3* UNL     1       9.836  -1.738  21.459  0.00  0.00    -0.389 OA
ATOM     17  H3* UNL     1       9.049  -2.254  21.712  0.00  0.00    +0.210 HD
ENDBRANCH   5  16
BRANCH   4  18
ATOM     18  C5* UNL     1       9.553   1.114  21.621  0.00  0.00    +0.190 C 
BRANCH  18  19
ATOM     19  O5* UNL     1      10.315   2.316  21.759  0.00  0.00    -0.392 OA
ATOM     20  H5* UNL     1      10.723   2.472  20.885  0.00  0.00    +0.210 HD
ENDBRANCH  18  19
ENDBRANCH   4  18
TORSDOF 4
ENDMDL
MODEL 2
REMARK VINA RESULT:      -6.1      3.459      4.099
REMARK  Name = 
REMARK  4 active torsions:
REMARK  status: ('A' for Active; 'I' for Inactive)
REMARK    1  A    between atoms: C3*_2  and  O3*_20
REMARK    2  A    between atoms: C4*_4  and  C5*_18
REMARK    3  A    between atoms: C1*_7  and  N_9
REMARK    4  A    between atoms: C5*_18  and  O5*_19
REMARK                            x       y       z     vdW  Elec       q    Type
REMARK                         _______ _______ _______ _____ _____    ______ ____
ROOT
ATOM      1  C2* UNL     1       7.691  -1.796  23.416  0.00  0.00    +0.088 C 
ATOM      2  C1* UNL     1       8.759  -2.788  23.884  0.00  0.00    +0.226 C 
ATOM      3  O4* UNL     1       9.942  -2.039  24.218  0.00  0.00    -0.348 OA
ATOM      4  C4* UNL     1       9.686  -0.651  23.897  0.00  0.00    +0.175 C 
ATOM      5  C3* UNL     1       8.174  -0.473  23.965  0.00  0.00    +0.150 C 
ENDROOT
BRANCH   2   6
ATOM      6  N   UNL     1       8.332  -3.609  25.015  0.00  0.00    -0.273 N 
ATOM      7  C   UNL     1       9.175  -4.644  25.392  0.00  0.00    +0.331 A 
ATOM      8  O   UNL     1      10.234  -4.909  24.827  0.00  0.00    -0.246 OA
ATOM      9  N   UNL     1       8.751  -5.399  26.452  0.00  0.00    -0.274 N 
ATOM     10  H   UNL     1       9.359  -6.146  26.750  0.00  0.00    +0.173 HD
ATOM     11  C   UNL     1       7.564  -5.267  27.122  0.00  0.00    +0.267 A 
ATOM     12  O   UNL     1       7.279  -6.019  28.048  0.00  0.00    -0.267 OA
ATOM     13  C   UNL     1       6.669  -4.180  26.640  0.00  0.00    +0.094 A 
ATOM     14  I   UNL     1       4.842  -3.900  27.512  0.00  0.00    -0.037 I 
ATOM     15  C   UNL     1       7.104  -3.419  25.626  0.00  0.00    +0.113 A 
ENDBRANCH   2   6
BRANCH   5  16
ATOM     16  O3* UNL     1       7.713  -0.306  25.303  0.00  0.00    -0.389 OA
ATOM     17  H3* UNL     1       8.170  -0.962  25.860  0.00  0.00    +0.210 HD
ENDBRANCH   5  16
BRANCH   4  18
ATOM     18  C5* UNL     1      10.495   0.229  24.839  0.00  0.00    +0.190 C 
BRANCH  18  19
ATOM     19  O5* UNL     1       9.862   1.508  24.938  0.00  0.00    -0.392 OA
ATOM     20  H5* UNL     1       9.092   1.468  24.339  0.00  0.00    +0.210 HD
ENDBRANCH  18  19
ENDBRANCH   4  18
TORSDOF 4
ENDMDL
MODEL 3
REMARK VINA RESULT:      -6.0      3.485      4.425
REMARK  Name = 
REMARK  4 active torsions:
REMARK  status: ('A' for Active; 'I' for Inactive)
REMARK    1  A    between atoms: C3*_2  and  O3*_20
REMARK    2  A    between atoms: C4*_4  and  C5*_18
REMARK    3  A    between atoms: C1*_7  and  N_9
REMARK    4  A    between atoms: C5*_18  and  O5*_19
REMARK                            x       y       z     vdW  Elec       q    Type
REMARK                         _______ _______ _______ _____ _____    ______ ____
ROOT
ATOM      1  C2* UNL     1       6.645  -4.060  22.453  0.00  0.00    +0.088 C 
ATOM      2  C1* UNL     1       7.897  -4.137  23.331  0.00  0.00    +0.226 C 
ATOM      3  O4* UNL     1       8.469  -2.818  23.402  0.00  0.00    -0.348 OA
ATOM      4  C4* UNL     1       7.684  -1.955  22.544  0.00  0.00    +0.175 C 
ATOM      5  C3* UNL     1       6.301  -2.589  22.457  0.00  0.00    +0.150 C 
ENDROOT
BRANCH   2   6
ATOM      6  N   UNL     1       7.634  -4.659  24.671  0.00  0.00    -0.273 N 
ATOM      7  C   UNL     1       8.734  -5.070  25.409  0.00  0.00    +0.331 A 
ATOM      8  O   UNL     1       9.892  -5.032  24.999  0.00  0.00    -0.246 OA
ATOM      9  N   UNL     1       8.461  -5.557  26.660  0.00  0.00    -0.274 N 
ATOM     10  H   UNL     1       9.250  -5.845  27.217  0.00  0.00    +0.173 HD
ATOM     11  C   UNL     1       7.220  -5.728  27.213  0.00  0.00    +0.267 A 
ATOM     12  O   UNL     1       7.095  -6.196  28.340  0.00  0.00    -0.267 OA
ATOM     13  C   UNL     1       6.071  -5.327  26.356  0.00  0.00    +0.094 A 
ATOM     14  I   UNL     1       4.158  -5.576  27.031  0.00  0.00    -0.037 I 
ATOM     15  C   UNL     1       6.344  -4.817  25.148  0.00  0.00    +0.113 A 
ENDBRANCH   2   6
BRANCH   5  16
ATOM     16  O3* UNL     1       5.498  -2.282  23.593  0.00  0.00    -0.389 OA
ATOM     17  H3* UNL     1       5.987  -1.640  24.140  0.00  0.00    +0.210 HD
ENDBRANCH   5  16
BRANCH   4  18
ATOM     18  C5* UNL     1       7.726  -0.539  23.101  0.00  0.00    +0.190 C 
BRANCH  18  19
ATOM     19  O5* UNL     1       6.508   0.129  22.762  0.00  0.00    -0.392 OA
ATOM     20  H5* UNL     1       5.830  -0.572  22.703  0.00  0.00    +0.210 HD
ENDBRANCH  18  19
ENDBRANCH   4  18
TORSDOF 4
ENDMDL
MODEL 4
REMARK VINA RESULT:      -5.9      2.677      5.630
REMARK  Name = 
REMARK  4 active torsions:
REMARK  status: ('A' for Active; 'I' for Inactive)
REMARK    1  A    between atoms: C3*_2  and  O3*_20
REMARK    2  A    between atoms: C4*_4  and  C5*_18
REMARK    3  A    between atoms: C1*_7  and  N_9
REMARK    4  A    between atoms: C5*_18  and  O5*_19
REMARK                            x       y       z     vdW  Elec       q    Type
REMARK                         _______ _______ _______ _____ _____    ______ ____
ROOT
ATOM      1  C2* UNL     1       5.942  -3.014  24.050  0.00  0.00    +0.088 C 
ATOM      2  C1* UNL     1       7.469  -3.127  24.105  0.00  0.00    +0.226 C 
ATOM      3  O4* UNL     1       7.846  -4.333  23.415  0.00  0.00    -0.348 OA
ATOM      4  C4* UNL     1       6.630  -5.009  23.018  0.00  0.00    +0.175 C 
ATOM      5  C3* UNL     1       5.561  -3.929  22.909  0.00  0.00    +0.150 C 
ENDROOT
BRANCH   2   6
ATOM      6  N   UNL     1       8.156  -1.970  23.536  0.00  0.00    -0.273 N 
ATOM      7  C   UNL     1       9.533  -2.063  23.402  0.00  0.00    +0.331 A 
ATOM      8  O   UNL     1      10.193  -3.042  23.743  0.00  0.00    -0.246 OA
ATOM      9  N   UNL     1      10.153  -0.965  22.869  0.00  0.00    -0.274 N 
ATOM     10  H   UNL     1      11.153  -1.021  22.750  0.00  0.00    +0.173 HD
ATOM     11  C   UNL     1       9.557   0.217  22.520  0.00  0.00    +0.267 A 
ATOM     12  O   UNL     1      10.220   1.145  22.069  0.00  0.00    -0.267 OA
ATOM     13  C   UNL     1       8.086   0.286  22.739  0.00  0.00    +0.094 A 
ATOM     14  I   UNL     1       7.071   2.008  22.312  0.00  0.00    -0.037 I 
ATOM     15  C   UNL     1       7.478  -0.803  23.226  0.00  0.00    +0.113 A 
ENDBRANCH   2   6
BRANCH   5  16
ATOM     16  O3* UNL     1       5.636  -3.221  21.675  0.00  0.00    -0.389 OA
ATOM     17  H3* UNL     1       5.021  -3.645  21.051  0.00  0.00    +0.210 HD
ENDBRANCH   5  16
BRANCH   4  18
ATOM     18  C5* UNL     1       6.900  -5.798  21.744  0.00  0.00    +0.190 C 
BRANCH  18  19
ATOM     19  O5* UNL     1       5.659  -6.294  21.234  0.00  0.00    -0.392 OA
ATOM     20  H5* UNL     1       5.200  -6.692  21.999  0.00  0.00    +0.210 HD
ENDBRANCH  18  19
ENDBRANCH   4  18
TORSDOF 4
ENDMDL
MODEL 5
REMARK VINA RESULT:      -5.8      3.461      4.095
REMARK  Name = 
REMARK  4 active torsions:
REMARK  status: ('A' for Active; 'I' for Inactive)
REMARK    1  A    between atoms: C3*_2  and  O3*_20
REMARK    2  A    between atoms: C4*_4  and  C5*_18
REMARK    3  A    between atoms: C1*_7  and  N_9
REMARK    4  A    between atoms: C5*_18  and  O5*_19
REMARK                            x       y       z     vdW  Elec       q    Type
REMARK                         _______ _______ _______ _____ _____    ______ ____
ROOT
ATOM      1  C2* UNL     1       8.655  -2.716  22.910  0.00  0.00    +0.088 C 
ATOM      2  C1* UNL     1       9.055  -2.428  24.360  0.00  0.00    +0.226 C 
ATOM      3  O4* UNL     1       8.631  -1.089  24.678  0.00  0.00    -0.348 OA
ATOM      4  C4* UNL     1       8.072  -0.511  23.475  0.00  0.00    +0.175 C 
ATOM      5  C3* UNL     1       7.590  -1.682  22.627  0.00  0.00    +0.150 C 
ENDROOT
BRANCH   2   6
ATOM      6  N   UNL     1       8.501  -3.386  25.315  0.00  0.00    -0.273 N 
ATOM      7  C   UNL     1       9.208  -4.565  25.500  0.00  0.00    +0.331 A 
ATOM      8  O   UNL     1      10.246  -4.846  24.905  0.00  0.00    -0.246 OA
ATOM      9  N   UNL     1       8.667  -5.446  26.398  0.00  0.00    -0.274 N 
ATOM     10  H   UNL     1       9.176  -6.302  26.556  0.00  0.00    +0.173 HD
ATOM     11  C   UNL     1       7.483  -5.299  27.070  0.00  0.00    +0.267 A 
ATOM     12  O   UNL     1       7.086  -6.168  27.838  0.00  0.00    -0.267 OA
ATOM     13  C   UNL     1       6.735  -4.043  26.791  0.00  0.00    +0.094 A 
ATOM     14  I   UNL     1       4.927  -3.712  27.684  0.00  0.00    -0.037 I 
ATOM     15  C   UNL     1       7.286  -3.166  25.940  0.00  0.00    +0.113 A 
ENDBRANCH   2   6
BRANCH   5  16
ATOM     16  O3* UNL     1       6.319  -2.165  23.051  0.00  0.00    -0.389 OA
ATOM     17  H3* UNL     1       5.635  -1.612  22.634  0.00  0.00    +0.210 HD
ENDBRANCH   5  16
BRANCH   4  18
ATOM     18  C5* UNL     1       7.004   0.501  23.867  0.00  0.00    +0.190 C 
BRANCH  18  19
ATOM     19  O5* UNL     1       6.240   0.842  22.707  0.00  0.00    -0.392 OA
ATOM     20  H5* UNL     1       5.308   0.673  22.947  0.00  0.00    +0.210 HD
ENDBRANCH  18  19
ENDBRANCH   4  18
TORSDOF 4
ENDMDL
MODEL 6
REMARK VINA RESULT:      -5.7      3.098      4.293
REMARK  Name = 
REMARK  4 active torsions:
REMARK  status: ('A' for Active; 'I' for Inactive)
REMARK    1  A    between atoms: C3*_2  and  O3*_20
REMARK    2  A    between atoms: C4*_4  and  C5*_18
REMARK    3  A    between atoms: C1*_7  and  N_9
REMARK    4  A    between atoms: C5*_18  and  O5*_19
REMARK                            x       y       z     vdW  Elec       q    Type
REMARK                         _______ _______ _______ _____ _____    ______ ____
ROOT
ATOM      1  C2* UNL     1       6.701  -2.749  22.199  0.00  0.00    +0.088 C 
ATOM      2  C1* UNL     1       7.385  -4.024  22.701  0.00  0.00    +0.226 C 
ATOM      3  O4* UNL     1       8.372  -3.641  23.676  0.00  0.00    -0.348 OA
ATOM      4  C4* UNL     1       8.392  -2.195  23.733  0.00  0.00    +0.175 C 
ATOM      5  C3* UNL     1       7.014  -1.734  23.274  0.00  0.00    +0.150 C 
ENDROOT
BRANCH   2   6
ATOM      6  N   UNL     1       6.451  -4.997  23.266  0.00  0.00    -0.273 N 
ATOM      7  C   UNL     1       5.706  -5.744  22.366  0.00  0.00    +0.331 A 
ATOM      8  O   UNL     1       5.778  -5.624  21.145  0.00  0.00    -0.246 OA
ATOM      9  N   UNL     1       4.838  -6.647  22.920  0.00  0.00    -0.274 N 
ATOM     10  H   UNL     1       4.299  -7.210  22.280  0.00  0.00    +0.173 HD
ATOM     11  C   UNL     1       4.599  -6.831  24.256  0.00  0.00    +0.267 A 
ATOM     12  O   UNL     1       3.778  -7.658  24.638  0.00  0.00    -0.267 OA
ATOM     13  C   UNL     1       5.381  -5.962  25.177  0.00  0.00    +0.094 A 
ATOM     14  I   UNL     1       5.089  -6.091  27.195  0.00  0.00    -0.037 I 
ATOM     15  C   UNL     1       6.256  -5.107  24.632  0.00  0.00    +0.113 A 
ENDBRANCH   2   6
BRANCH   5  16
ATOM     16  O3* UNL     1       6.046  -1.817  24.316  0.00  0.00    -0.389 OA
ATOM     17  H3* UNL     1       6.523  -1.882  25.162  0.00  0.00    +0.210 HD
ENDBRANCH   5  16
BRANCH   4  18
ATOM     18  C5* UNL     1       8.797  -1.765  25.136  0.00  0.00    +0.190 C 
BRANCH  18  19
ATOM     19  O5* UNL     1       8.283  -2.712  26.078  0.00  0.00    -0.392 OA
ATOM     20  H5* UNL     1       8.771  -3.541  25.911  0.00  0.00    +0.210 HD
ENDBRANCH  18  19
ENDBRANCH   4  18
TORSDOF 4
ENDMDL
MODEL 7
REMARK VINA RESULT:      -5.6      2.910      5.520
REMARK  Name = 
REMARK  4 active torsions:
REMARK  status: ('A' for Active; 'I' for Inactive)
REMARK    1  A    between atoms: C3*_2  and  O3*_20
REMARK    2  A    between atoms: C4*_4  and  C5*_18
REMARK    3  A    between atoms: C1*_7  and  N_9
REMARK    4  A    between atoms: C5*_18  and  O5*_19
REMARK                            x       y       z     vdW  Elec       q    Type
REMARK                         _______ _______ _______ _____ _____    ______ ____
ROOT
ATOM      1  C2* UNL     1       6.498  -5.049  24.944  0.00  0.00    +0.088 C 
ATOM      2  C1* UNL     1       7.979  -4.866  24.599  0.00  0.00    +0.226 C 
ATOM      3  O4* UNL     1       8.186  -5.368  23.265  0.00  0.00    -0.348 OA
ATOM      4  C4* UNL     1       6.932  -5.929  22.809  0.00  0.00    +0.175 C 
ATOM      5  C3* UNL     1       5.839  -5.215  23.595  0.00  0.00    +0.150 C 
ENDROOT
BRANCH   2   6
ATOM      6  N   UNL     1       8.431  -3.480  24.705  0.00  0.00    -0.273 N 
ATOM      7  C   UNL     1       8.491  -2.938  25.981  0.00  0.00    +0.331 A 
ATOM      8  O   UNL     1       8.178  -3.545  27.002  0.00  0.00    -0.246 OA
ATOM      9  N   UNL     1       8.916  -1.638  26.053  0.00  0.00    -0.274 N 
ATOM     10  H   UNL     1       8.981  -1.232  26.974  0.00  0.00    +0.173 HD
ATOM     11  C   UNL     1       9.221  -0.821  24.997  0.00  0.00    +0.267 A 
ATOM     12  O   UNL     1       9.572   0.339  25.182  0.00  0.00    -0.267 OA
ATOM     13  C   UNL     1       9.083  -1.434  23.648  0.00  0.00    +0.094 A 
ATOM     14  I   UNL     1       9.455  -0.317  21.977  0.00  0.00    -0.037 I 
ATOM     15  C   UNL     1       8.703  -2.717  23.582  0.00  0.00    +0.113 A 
ENDBRANCH   2   6
BRANCH   5  16
ATOM     16  O3* UNL     1       5.531  -3.937  23.045  0.00  0.00    -0.389 OA
ATOM     17  H3* UNL     1       5.709  -3.267  23.730  0.00  0.00    +0.210 HD
ENDBRANCH   5  16
BRANCH   4  18
ATOM     18  C5* UNL     1       6.854  -5.789  21.296  0.00  0.00    +0.190 C 
BRANCH  18  19
ATOM     19  O5* UNL     1       5.535  -6.138  20.865  0.00  0.00    -0.392 OA
ATOM     20  H5* UNL     1       5.647  -6.570  19.996  0.00  0.00    +0.210 HD
ENDBRANCH  18  19
ENDBRANCH   4  18
TORSDOF 4
ENDMDL
MODEL 8
REMARK VINA RESULT:      -5.6      3.177      3.869
REMARK  Name = 
REMARK  4 active torsions:
REMARK  status: ('A' for Active; 'I' for Inactive)
REMARK    1  A    between atoms: C3*_2  and  O3*_20
REMARK    2  A    between atoms: C4*_4  and  C5*_18
REMARK    3  A    between atoms: C1*_7  and  N_9
REMARK    4  A    between atoms: C5*_18  and  O5*_19
REMARK                            x       y       z     vdW  Elec       q    Type
REMARK                         _______ _______ _______ _____ _____    ______ ____
ROOT
ATOM      1  C2* UNL     1       9.765   0.116  21.820  0.00  0.00    +0.088 C 
ATOM      2  C1* UNL     1      10.287   0.045  23.258  0.00  0.00    +0.226 C 
ATOM      3  O4* UNL     1      10.288   1.382  23.793  0.00  0.00    -0.348 OA
ATOM      4  C4* UNL     1       9.879   2.278  22.733  0.00  0.00    +0.175 C 
ATOM      5  C3* UNL     1       9.042   1.442  21.772  0.00  0.00    +0.150 C 
ENDROOT
BRANCH   2   6
ATOM      6  N   UNL     1       9.513  -0.853  24.112  0.00  0.00    -0.273 N 
ATOM      7  C   UNL     1       9.751  -2.212  23.971  0.00  0.00    +0.331 A 
ATOM      8  O   UNL     1      10.554  -2.690  23.172  0.00  0.00    -0.246 OA
ATOM      9  N   UNL     1       9.012  -3.031  24.780  0.00  0.00    -0.274 N 
ATOM     10  H   UNL     1       9.184  -4.022  24.702  0.00  0.00    +0.173 HD
ATOM     11  C   UNL     1       8.032  -2.643  25.655  0.00  0.00    +0.267 A 
ATOM     12  O   UNL     1       7.418  -3.472  26.317  0.00  0.00    -0.267 OA
ATOM     13  C   UNL     1       7.774  -1.179  25.725  0.00  0.00    +0.094 A 
ATOM     14  I   UNL     1       6.305  -0.459  26.950  0.00  0.00    -0.037 I 
ATOM     15  C   UNL     1       8.526  -0.377  24.959  0.00  0.00    +0.113 A 
ENDBRANCH   2   6
BRANCH   5  16
ATOM     16  O3* UNL     1       7.702   1.280  22.228  0.00  0.00    -0.389 OA
ATOM     17  H3* UNL     1       7.138   1.129  21.449  0.00  0.00    +0.210 HD
ENDBRANCH   5  16
BRANCH   4  18
ATOM     18  C5* UNL     1       9.172   3.477  23.349  0.00  0.00    +0.190 C 
BRANCH  18  19
ATOM     19  O5* UNL     1       8.318   4.068  22.365  0.00  0.00    -0.392 OA
ATOM     20  H5* UNL     1       8.406   3.509  21.569  0.00  0.00    +0.210 HD
ENDBRANCH  18  19
ENDBRANCH   4  18
TORSDOF 4
ENDMDL
MODEL 9
REMARK VINA RESULT:      -5.6      3.141      4.847
REMARK  Name = 
REMARK  4 active torsions:
REMARK  status: ('A' for Active; 'I' for Inactive)
REMARK    1  A    between atoms: C3*_2  and  O3*_20
REMARK    2  A    between atoms: C4*_4  and  C5*_18
REMARK    3  A    between atoms: C1*_7  and  N_9
REMARK    4  A    between atoms: C5*_18  and  O5*_19
REMARK                            x       y       z     vdW  Elec       q    Type
REMARK                         _______ _______ _______ _____ _____    ______ ____
ROOT
ATOM      1  C2* UNL     1       6.138  -4.006  25.283  0.00  0.00    +0.088 C 
ATOM      2  C1* UNL     1       6.810  -2.764  25.876  0.00  0.00    +0.226 C 
ATOM      3  O4* UNL     1       8.127  -3.143  26.317  0.00  0.00    -0.348 OA
ATOM      4  C4* UNL     1       8.266  -4.568  26.106  0.00  0.00    +0.175 C 
ATOM      5  C3* UNL     1       7.299  -4.926  24.985  0.00  0.00    +0.150 C 
ENDROOT
BRANCH   2   6
ATOM      6  N   UNL     1       6.880  -1.642  24.942  0.00  0.00    -0.273 N 
ATOM      7  C   UNL     1       5.772  -0.810  24.880  0.00  0.00    +0.331 A 
ATOM      8  O   UNL     1       4.751  -0.972  25.545  0.00  0.00    -0.246 OA
ATOM      9  N   UNL     1       5.861   0.232  23.996  0.00  0.00    -0.274 N 
ATOM     10  H   UNL     1       5.071   0.856  23.949  0.00  0.00    +0.173 HD
ATOM     11  C   UNL     1       6.900   0.486  23.140  0.00  0.00    +0.267 A 
ATOM     12  O   UNL     1       6.861   1.442  22.373  0.00  0.00    -0.267 OA
ATOM     13  C   UNL     1       8.038  -0.471  23.205  0.00  0.00    +0.094 A 
ATOM     14  I   UNL     1       9.634  -0.245  21.949  0.00  0.00    -0.037 I 
ATOM     15  C   UNL     1       7.963  -1.468  24.098  0.00  0.00    +0.113 A 
ENDBRANCH   2   6
BRANCH   5  16
ATOM     16  O3* UNL     1       7.835  -4.628  23.699  0.00  0.00    -0.389 OA
ATOM     17  H3* UNL     1       7.962  -5.470  23.226  0.00  0.00    +0.210 HD
ENDBRANCH   5  16
BRANCH   4  18
ATOM     18  C5* UNL     1       9.731  -4.884  25.839  0.00  0.00    +0.190 C 
BRANCH  18  19
ATOM     19  O5* UNL     1       9.815  -6.113  25.112  0.00  0.00    -0.392 OA
ATOM     20  H5* UNL     1       9.077  -6.091  24.472  0.00  0.00    +0.210 HD
ENDBRANCH  18  19
ENDBRANCH   4  18
TORSDOF 4
ENDMDL
