MODEL 1
REMARK VINA RESULT:      -5.7      0.000      0.000
REMARK  Name = 
REMARK  12 active torsions:
REMARK  status: ('A' for Active; 'I' for Inactive)
REMARK    1  A    between atoms: C_1  and  C_2
REMARK    2  A    between atoms: N_4  and  C_5
REMARK    3  A    between atoms: C_7  and  N_26
REMARK    4  A    between atoms: C_10  and  C_23
REMARK    5  A    between atoms: C_12  and  C_14
REMARK    6  A    between atoms: C_14  and  C_16
REMARK    7  A    between atoms: C_14  and  O_21
REMARK    8  A    between atoms: C_16  and  C_18
REMARK    9  A    between atoms: C_16  and  O_20
REMARK   10  A    between atoms: C_18  and  O_19
REMARK   11  A    between atoms: O_21  and  C_22
REMARK   12  A    between atoms: C_23  and  O_25
REMARK                            x       y       z     vdW  Elec       q    Type
REMARK                         _______ _______ _______ _____ _____    ______ ____
ROOT
ATOM      1  C   UNL     1       5.124  -5.440  24.812  0.00  0.00    +0.161 C 
ATOM      2  C   UNL     1       6.212  -4.568  24.115  0.00  0.00    +0.229 C 
ATOM      3  O   UNL     1       6.156  -3.157  24.370  0.00  0.00    -0.477 OA
ATOM      4  C   UNL     1       5.639  -2.726  25.568  0.00  0.00    +0.204 C 
ATOM      5  C   UNL     1       5.011  -3.507  26.453  0.00  0.00    +0.071 C 
ATOM      6  C   UNL     1       4.713  -4.942  26.218  0.00  0.00    +0.238 C 
ENDROOT
BRANCH   6   7
ATOM      7  N   UNL     1       5.409  -5.744  27.234  0.00  0.00    -0.104 NA
ATOM      8  C   UNL     1       4.830  -6.765  27.747  0.00  0.00    +0.377 C 
ATOM      9  N   UNL     1       5.467  -7.479  28.701  0.00  0.00    -0.289 N 
ATOM     10  H   UNL     1       5.302  -8.472  28.739  0.00  0.00    +0.255 HD
ATOM     11  H   UNL     1       6.443  -7.223  28.796  0.00  0.00    +0.255 HD
ATOM     12  N   UNL     1       3.597  -7.261  27.521  0.00  0.00    -0.289 N 
ATOM     13  H   UNL     1       3.394  -8.221  27.748  0.00  0.00    +0.255 HD
ATOM     14  H   UNL     1       3.018  -6.860  26.798  0.00  0.00    +0.255 HD
ENDBRANCH   6   7
BRANCH   1  17
ATOM     15  C   UNL     1       2.082  -6.836  22.948  0.00  0.00    +0.109 C 
ATOM     16  C   UNL     1       3.258  -6.894  23.886  0.00  0.00    +0.210 C 
ATOM     17  N   UNL     1       3.949  -5.709  23.951  0.00  0.00    -0.305 N 
ATOM     18  H   UNL     1       3.701  -4.977  23.300  0.00  0.00    +0.149 HD
ATOM     19  O   UNL     1       3.513  -7.888  24.553  0.00  0.00    -0.276 OA
ENDBRANCH   1  17
BRANCH   4  20
ATOM     20  C   UNL     1       5.736  -1.261  25.872  0.00  0.00    +0.372 C 
ATOM     21  O   UNL     1       4.862  -0.431  25.669  0.00  0.00    -0.242 OA
BRANCH  20  22
ATOM     22  O   UNL     1       6.954  -0.959  26.375  0.00  0.00    -0.475 OA
ATOM     23  H   UNL     1       7.318  -0.188  25.885  0.00  0.00    +0.296 HD
ENDBRANCH  20  22
ENDBRANCH   4  20
BRANCH   2  24
ATOM     24  C   UNL     1       7.646  -5.143  24.324  0.00  0.00    +0.191 C 
BRANCH  24  25
ATOM     25  O   UNL     1       8.157  -5.448  23.006  0.00  0.00    -0.373 OA
ATOM     26  C   UNL     1       7.171  -5.646  22.005  0.00  0.00    +0.194 C 
ENDBRANCH  24  25
BRANCH  24  27
ATOM     27  C   UNL     1       8.606  -4.178  25.066  0.00  0.00    +0.172 C 
BRANCH  27  28
ATOM     28  O   UNL     1       9.909  -4.143  24.470  0.00  0.00    -0.387 OA
ATOM     29  H   UNL     1      10.316  -3.318  24.804  0.00  0.00    +0.210 HD
ENDBRANCH  27  28
BRANCH  27  30
ATOM     30  C   UNL     1       8.752  -4.500  26.560  0.00  0.00    +0.189 C 
BRANCH  30  31
ATOM     31  O   UNL     1       8.306  -5.842  26.781  0.00  0.00    -0.392 OA
ATOM     32  H   UNL     1       8.301  -6.278  25.909  0.00  0.00    +0.210 HD
ENDBRANCH  30  31
ENDBRANCH  27  30
ENDBRANCH  24  27
ENDBRANCH   2  24
TORSDOF 10
ENDMDL
MODEL 2
REMARK VINA RESULT:      -5.6      3.150      4.615
REMARK  Name = 
REMARK  12 active torsions:
REMARK  status: ('A' for Active; 'I' for Inactive)
REMARK    1  A    between atoms: C_1  and  C_2
REMARK    2  A    between atoms: N_4  and  C_5
REMARK    3  A    between atoms: C_7  and  N_26
REMARK    4  A    between atoms: C_10  and  C_23
REMARK    5  A    between atoms: C_12  and  C_14
REMARK    6  A    between atoms: C_14  and  C_16
REMARK    7  A    between atoms: C_14  and  O_21
REMARK    8  A    between atoms: C_16  and  C_18
REMARK    9  A    between atoms: C_16  and  O_20
REMARK   10  A    between atoms: C_18  and  O_19
REMARK   11  A    between atoms: O_21  and  C_22
REMARK   12  A    between atoms: C_23  and  O_25
REMARK                            x       y       z     vdW  Elec       q    Type
REMARK                         _______ _______ _______ _____ _____    ______ ____
ROOT
ATOM      1  C   UNL     1       7.319  -3.219  23.238  0.00  0.00    +0.161 C 
ATOM      2  C   UNL     1       6.990  -1.703  23.088  0.00  0.00    +0.229 C 
ATOM      3  O   UNL     1       5.947  -1.192  23.931  0.00  0.00    -0.477 OA
ATOM      4  C   UNL     1       5.732  -1.792  25.148  0.00  0.00    +0.204 C 
ATOM      5  C   UNL     1       6.298  -2.937  25.544  0.00  0.00    +0.071 C 
ATOM      6  C   UNL     1       7.178  -3.762  24.680  0.00  0.00    +0.238 C 
ENDROOT
BRANCH   6   7
ATOM      7  N   UNL     1       8.509  -3.842  25.296  0.00  0.00    -0.104 NA
ATOM      8  C   UNL     1       8.784  -4.801  26.100  0.00  0.00    +0.377 C 
ATOM      9  N   UNL     1      10.002  -4.850  26.683  0.00  0.00    -0.289 N 
ATOM     10  H   UNL     1      10.402  -5.755  26.871  0.00  0.00    +0.255 HD
ATOM     11  H   UNL     1      10.656  -4.190  26.279  0.00  0.00    +0.255 HD
ATOM     12  N   UNL     1       8.006  -5.813  26.531  0.00  0.00    -0.289 N 
ATOM     13  H   UNL     1       8.430  -6.649  26.901  0.00  0.00    +0.255 HD
ATOM     14  H   UNL     1       7.081  -5.938  26.146  0.00  0.00    +0.255 HD
ENDBRANCH   6   7
BRANCH   1  17
ATOM     15  C   UNL     1       6.034  -5.964  20.894  0.00  0.00    +0.109 C 
ATOM     16  C   UNL     1       6.979  -5.345  21.890  0.00  0.00    +0.210 C 
ATOM     17  N   UNL     1       6.616  -4.071  22.250  0.00  0.00    -0.305 N 
ATOM     18  H   UNL     1       5.859  -3.630  21.746  0.00  0.00    +0.149 HD
ATOM     19  O   UNL     1       7.928  -5.959  22.357  0.00  0.00    -0.276 OA
ENDBRANCH   1  17
BRANCH   4  20
ATOM     20  C   UNL     1       4.745  -1.142  26.070  0.00  0.00    +0.372 C 
ATOM     21  O   UNL     1       4.140  -1.699  26.975  0.00  0.00    -0.242 OA
BRANCH  20  22
ATOM     22  O   UNL     1       4.574   0.159  25.745  0.00  0.00    -0.475 OA
ATOM     23  H   UNL     1       4.454   0.679  26.571  0.00  0.00    +0.296 HD
ENDBRANCH  20  22
ENDBRANCH   4  20
BRANCH   2  24
ATOM     24  C   UNL     1       8.272  -0.818  23.144  0.00  0.00    +0.191 C 
BRANCH  24  25
ATOM     25  O   UNL     1       9.267  -1.492  22.339  0.00  0.00    -0.373 OA
ATOM     26  C   UNL     1      10.511  -1.721  22.981  0.00  0.00    +0.194 C 
ENDBRANCH  24  25
BRANCH  24  27
ATOM     27  C   UNL     1       8.057   0.631  22.634  0.00  0.00    +0.172 C 
BRANCH  27  28
ATOM     28  O   UNL     1       6.671   0.937  22.435  0.00  0.00    -0.387 OA
ATOM     29  H   UNL     1       6.526   0.835  21.473  0.00  0.00    +0.210 HD
ENDBRANCH  27  28
BRANCH  27  30
ATOM     30  C   UNL     1       8.823   0.938  21.340  0.00  0.00    +0.189 C 
BRANCH  30  31
ATOM     31  O   UNL     1       9.621   2.107  21.551  0.00  0.00    -0.392 OA
ATOM     32  H   UNL     1       9.735   2.193  22.515  0.00  0.00    +0.210 HD
ENDBRANCH  30  31
ENDBRANCH  27  30
ENDBRANCH  24  27
ENDBRANCH   2  24
TORSDOF 10
ENDMDL
MODEL 3
REMARK VINA RESULT:      -5.4      2.185      3.688
REMARK  Name = 
REMARK  12 active torsions:
REMARK  status: ('A' for Active; 'I' for Inactive)
REMARK    1  A    between atoms: C_1  and  C_2
REMARK    2  A    between atoms: N_4  and  C_5
REMARK    3  A    between atoms: C_7  and  N_26
REMARK    4  A    between atoms: C_10  and  C_23
REMARK    5  A    between atoms: C_12  and  C_14
REMARK    6  A    between atoms: C_14  and  C_16
REMARK    7  A    between atoms: C_14  and  O_21
REMARK    8  A    between atoms: C_16  and  C_18
REMARK    9  A    between atoms: C_16  and  O_20
REMARK   10  A    between atoms: C_18  and  O_19
REMARK   11  A    between atoms: O_21  and  C_22
REMARK   12  A    between atoms: C_23  and  O_25
REMARK                            x       y       z     vdW  Elec       q    Type
REMARK                         _______ _______ _______ _____ _____    ______ ____
ROOT
ATOM      1  C   UNL     1       5.641  -4.260  25.839  0.00  0.00    +0.161 C 
ATOM      2  C   UNL     1       4.816  -3.636  24.674  0.00  0.00    +0.229 C 
ATOM      3  O   UNL     1       4.743  -2.203  24.643  0.00  0.00    -0.477 OA
ATOM      4  C   UNL     1       5.788  -1.480  25.167  0.00  0.00    +0.204 C 
ATOM      5  C   UNL     1       6.796  -2.002  25.873  0.00  0.00    +0.071 C 
ATOM      6  C   UNL     1       6.879  -3.432  26.259  0.00  0.00    +0.238 C 
ENDROOT
BRANCH   6   7
ATOM      7  N   UNL     1       8.080  -4.020  25.651  0.00  0.00    -0.104 NA
ATOM      8  C   UNL     1       8.560  -5.113  26.114  0.00  0.00    +0.377 C 
ATOM      9  N   UNL     1       9.681  -5.631  25.567  0.00  0.00    -0.289 N 
ATOM     10  H   UNL     1       9.776  -6.633  25.539  0.00  0.00    +0.255 HD
ATOM     11  H   UNL     1       9.942  -5.172  24.702  0.00  0.00    +0.255 HD
ATOM     12  N   UNL     1       8.141  -5.866  27.151  0.00  0.00    -0.289 N 
ATOM     13  H   UNL     1       8.411  -6.836  27.207  0.00  0.00    +0.255 HD
ATOM     14  H   UNL     1       7.286  -5.632  27.632  0.00  0.00    +0.255 HD
ENDBRANCH   6   7
BRANCH   1  17
ATOM     15  C   UNL     1       3.794  -5.986  28.718  0.00  0.00    +0.109 C 
ATOM     16  C   UNL     1       4.673  -5.924  27.497  0.00  0.00    +0.210 C 
ATOM     17  N   UNL     1       4.810  -4.650  27.002  0.00  0.00    -0.305 N 
ATOM     18  H   UNL     1       4.236  -3.920  27.399  0.00  0.00    +0.149 HD
ATOM     19  O   UNL     1       5.241  -6.911  27.051  0.00  0.00    -0.276 OA
ENDBRANCH   1  17
BRANCH   4  20
ATOM     20  C   UNL     1       5.757   0.007  24.981  0.00  0.00    +0.372 C 
ATOM     21  O   UNL     1       6.620   0.675  24.432  0.00  0.00    -0.242 OA
BRANCH  20  22
ATOM     22  O   UNL     1       4.646   0.534  25.543  0.00  0.00    -0.475 OA
ATOM     23  H   UNL     1       4.124  -0.191  25.954  0.00  0.00    +0.296 HD
ENDBRANCH  20  22
ENDBRANCH   4  20
BRANCH   2  24
ATOM     24  C   UNL     1       5.214  -4.231  23.289  0.00  0.00    +0.191 C 
BRANCH  24  25
ATOM     25  O   UNL     1       3.995  -4.736  22.698  0.00  0.00    -0.373 OA
ATOM     26  C   UNL     1       3.509  -5.947  23.254  0.00  0.00    +0.194 C 
ENDBRANCH  24  25
BRANCH  24  27
ATOM     27  C   UNL     1       5.892  -3.209  22.340  0.00  0.00    +0.172 C 
BRANCH  27  28
ATOM     28  O   UNL     1       5.466  -3.364  20.980  0.00  0.00    -0.387 OA
ATOM     29  H   UNL     1       4.693  -2.771  20.891  0.00  0.00    +0.210 HD
ENDBRANCH  27  28
BRANCH  27  30
ATOM     30  C   UNL     1       7.426  -3.264  22.388  0.00  0.00    +0.189 C 
BRANCH  30  31
ATOM     31  O   UNL     1       7.819  -4.539  22.906  0.00  0.00    -0.392 OA
ATOM     32  H   UNL     1       7.798  -4.461  23.877  0.00  0.00    +0.210 HD
ENDBRANCH  30  31
ENDBRANCH  27  30
ENDBRANCH  24  27
ENDBRANCH   2  24
TORSDOF 10
ENDMDL
MODEL 4
REMARK VINA RESULT:      -5.4      1.989      4.549
REMARK  Name = 
REMARK  12 active torsions:
REMARK  status: ('A' for Active; 'I' for Inactive)
REMARK    1  A    between atoms: C_1  and  C_2
REMARK    2  A    between atoms: N_4  and  C_5
REMARK    3  A    between atoms: C_7  and  N_26
REMARK    4  A    between atoms: C_10  and  C_23
REMARK    5  A    between atoms: C_12  and  C_14
REMARK    6  A    between atoms: C_14  and  C_16
REMARK    7  A    between atoms: C_14  and  O_21
REMARK    8  A    between atoms: C_16  and  C_18
REMARK    9  A    between atoms: C_16  and  O_20
REMARK   10  A    between atoms: C_18  and  O_19
REMARK   11  A    between atoms: O_21  and  C_22
REMARK   12  A    between atoms: C_23  and  O_25
REMARK                            x       y       z     vdW  Elec       q    Type
REMARK                         _______ _______ _______ _____ _____    ______ ____
ROOT
ATOM      1  C   UNL     1       5.452  -4.203  26.352  0.00  0.00    +0.161 C 
ATOM      2  C   UNL     1       6.179  -2.924  25.839  0.00  0.00    +0.229 C 
ATOM      3  O   UNL     1       7.589  -3.046  25.602  0.00  0.00    -0.477 OA
ATOM      4  C   UNL     1       8.091  -4.274  25.243  0.00  0.00    +0.204 C 
ATOM      5  C   UNL     1       7.400  -5.418  25.272  0.00  0.00    +0.071 C 
ATOM      6  C   UNL     1       6.009  -5.527  25.778  0.00  0.00    +0.238 C 
ENDROOT
BRANCH   6   7
ATOM      7  N   UNL     1       5.140  -5.980  24.684  0.00  0.00    -0.104 NA
ATOM      8  C   UNL     1       4.230  -6.854  24.911  0.00  0.00    +0.377 C 
ATOM      9  N   UNL     1       3.455  -7.285  23.893  0.00  0.00    -0.289 N 
ATOM     10  H   UNL     1       2.499  -7.530  24.095  0.00  0.00    +0.255 HD
ATOM     11  H   UNL     1       3.564  -6.727  23.054  0.00  0.00    +0.255 HD
ATOM     12  N   UNL     1       3.919  -7.495  26.055  0.00  0.00    -0.289 N 
ATOM     13  H   UNL     1       3.006  -7.908  26.166  0.00  0.00    +0.255 HD
ATOM     14  H   UNL     1       4.382  -7.244  26.916  0.00  0.00    +0.255 HD
ENDBRANCH   6   7
BRANCH   1  17
ATOM     15  C   UNL     1       4.438  -4.714  30.012  0.00  0.00    +0.109 C 
ATOM     16  C   UNL     1       4.255  -4.778  28.519  0.00  0.00    +0.210 C 
ATOM     17  N   UNL     1       5.317  -4.249  27.827  0.00  0.00    -0.305 N 
ATOM     18  H   UNL     1       6.035  -3.768  28.351  0.00  0.00    +0.149 HD
ATOM     19  O   UNL     1       3.280  -5.306  28.003  0.00  0.00    -0.276 OA
ENDBRANCH   1  17
BRANCH   4  20
ATOM     20  C   UNL     1       9.536  -4.338  24.851  0.00  0.00    +0.372 C 
ATOM     21  O   UNL     1      10.127  -3.514  24.169  0.00  0.00    -0.242 OA
BRANCH  20  22
ATOM     22  O   UNL     1      10.109  -5.466  25.326  0.00  0.00    -0.475 OA
ATOM     23  H   UNL     1       9.461  -5.935  25.898  0.00  0.00    +0.296 HD
ENDBRANCH  20  22
ENDBRANCH   4  20
BRANCH   2  24
ATOM     24  C   UNL     1       5.437  -2.273  24.632  0.00  0.00    +0.191 C 
BRANCH  24  25
ATOM     25  O   UNL     1       4.965  -0.985  25.091  0.00  0.00    -0.373 OA
ATOM     26  C   UNL     1       5.477  -0.566  26.347  0.00  0.00    +0.194 C 
ENDBRANCH  24  25
BRANCH  24  27
ATOM     27  C   UNL     1       6.322  -2.106  23.369  0.00  0.00    +0.172 C 
BRANCH  27  28
ATOM     28  O   UNL     1       6.321  -0.759  22.880  0.00  0.00    -0.387 OA
ATOM     29  H   UNL     1       7.262  -0.553  22.709  0.00  0.00    +0.210 HD
ENDBRANCH  27  28
BRANCH  27  30
ATOM     30  C   UNL     1       5.928  -3.050  22.225  0.00  0.00    +0.189 C 
BRANCH  30  31
ATOM     31  O   UNL     1       4.783  -3.806  22.634  0.00  0.00    -0.392 OA
ATOM     32  H   UNL     1       4.961  -4.104  23.545  0.00  0.00    +0.210 HD
ENDBRANCH  30  31
ENDBRANCH  27  30
ENDBRANCH  24  27
ENDBRANCH   2  24
TORSDOF 10
ENDMDL
MODEL 5
REMARK VINA RESULT:      -5.4      2.642      3.905
REMARK  Name = 
REMARK  12 active torsions:
REMARK  status: ('A' for Active; 'I' for Inactive)
REMARK    1  A    between atoms: C_1  and  C_2
REMARK    2  A    between atoms: N_4  and  C_5
REMARK    3  A    between atoms: C_7  and  N_26
REMARK    4  A    between atoms: C_10  and  C_23
REMARK    5  A    between atoms: C_12  and  C_14
REMARK    6  A    between atoms: C_14  and  C_16
REMARK    7  A    between atoms: C_14  and  O_21
REMARK    8  A    between atoms: C_16  and  C_18
REMARK    9  A    between atoms: C_16  and  O_20
REMARK   10  A    between atoms: C_18  and  O_19
REMARK   11  A    between atoms: O_21  and  C_22
REMARK   12  A    between atoms: C_23  and  O_25
REMARK                            x       y       z     vdW  Elec       q    Type
REMARK                         _______ _______ _______ _____ _____    ______ ____
ROOT
ATOM      1  C   UNL     1       6.631  -3.231  24.985  0.00  0.00    +0.161 C 
ATOM      2  C   UNL     1       6.419  -2.162  23.871  0.00  0.00    +0.229 C 
ATOM      3  O   UNL     1       6.693  -0.801  24.235  0.00  0.00    -0.477 OA
ATOM      4  C   UNL     1       7.634  -0.558  25.207  0.00  0.00    +0.204 C 
ATOM      5  C   UNL     1       8.193  -1.496  25.978  0.00  0.00    +0.071 C 
ATOM      6  C   UNL     1       7.807  -2.928  25.943  0.00  0.00    +0.238 C 
ENDROOT
BRANCH   6   7
ATOM      7  N   UNL     1       8.974  -3.725  25.540  0.00  0.00    -0.104 NA
ATOM      8  C   UNL     1       9.103  -4.927  25.964  0.00  0.00    +0.377 C 
ATOM      9  N   UNL     1      10.193  -5.642  25.610  0.00  0.00    -0.289 N 
ATOM     10  H   UNL     1      10.089  -6.636  25.487  0.00  0.00    +0.255 HD
ATOM     11  H   UNL     1      10.735  -5.195  24.880  0.00  0.00    +0.255 HD
ATOM     12  N   UNL     1       8.313  -5.637  26.793  0.00  0.00    -0.289 N 
ATOM     13  H   UNL     1       8.361  -6.644  26.792  0.00  0.00    +0.255 HD
ATOM     14  H   UNL     1       7.434  -5.252  27.105  0.00  0.00    +0.255 HD
ENDBRANCH   6   7
BRANCH   1  17
ATOM     15  C   UNL     1       3.641  -4.850  26.750  0.00  0.00    +0.109 C 
ATOM     16  C   UNL     1       4.903  -4.836  25.930  0.00  0.00    +0.210 C 
ATOM     17  N   UNL     1       5.388  -3.569  25.717  0.00  0.00    -0.305 N 
ATOM     18  H   UNL     1       4.817  -2.786  26.001  0.00  0.00    +0.149 HD
ATOM     19  O   UNL     1       5.451  -5.865  25.558  0.00  0.00    -0.276 OA
ENDBRANCH   1  17
BRANCH   4  20
ATOM     20  C   UNL     1       8.012   0.871  25.456  0.00  0.00    +0.372 C 
ATOM     21  O   UNL     1       7.245   1.766  25.780  0.00  0.00    -0.242 OA
BRANCH  20  22
ATOM     22  O   UNL     1       9.333   1.060  25.235  0.00  0.00    -0.475 OA
ATOM     23  H   UNL     1       9.444   1.643  24.452  0.00  0.00    +0.296 HD
ENDBRANCH  20  22
ENDBRANCH   4  20
BRANCH   2  24
ATOM     24  C   UNL     1       7.116  -2.561  22.535  0.00  0.00    +0.191 C 
BRANCH  24  25
ATOM     25  O   UNL     1       8.509  -2.785  22.855  0.00  0.00    -0.373 OA
ATOM     26  C   UNL     1       9.421  -1.887  22.244  0.00  0.00    +0.194 C 
ENDBRANCH  24  25
BRANCH  24  27
ATOM     27  C   UNL     1       6.508  -3.819  21.861  0.00  0.00    +0.172 C 
BRANCH  27  28
ATOM     28  O   UNL     1       5.099  -3.935  22.099  0.00  0.00    -0.387 OA
ATOM     29  H   UNL     1       4.780  -3.014  22.173  0.00  0.00    +0.210 HD
ENDBRANCH  27  28
BRANCH  27  30
ATOM     30  C   UNL     1       7.193  -5.125  22.288  0.00  0.00    +0.189 C 
BRANCH  30  31
ATOM     31  O   UNL     1       6.181  -6.070  22.652  0.00  0.00    -0.392 OA
ATOM     32  H   UNL     1       5.325  -5.637  22.482  0.00  0.00    +0.210 HD
ENDBRANCH  30  31
ENDBRANCH  27  30
ENDBRANCH  24  27
ENDBRANCH   2  24
TORSDOF 10
ENDMDL
MODEL 6
REMARK VINA RESULT:      -5.3      6.928      9.599
REMARK  Name = 
REMARK  12 active torsions:
REMARK  status: ('A' for Active; 'I' for Inactive)
REMARK    1  A    between atoms: C_1  and  C_2
REMARK    2  A    between atoms: N_4  and  C_5
REMARK    3  A    between atoms: C_7  and  N_26
REMARK    4  A    between atoms: C_10  and  C_23
REMARK    5  A    between atoms: C_12  and  C_14
REMARK    6  A    between atoms: C_14  and  C_16
REMARK    7  A    between atoms: C_14  and  O_21
REMARK    8  A    between atoms: C_16  and  C_18
REMARK    9  A    between atoms: C_16  and  O_20
REMARK   10  A    between atoms: C_18  and  O_19
REMARK   11  A    between atoms: O_21  and  C_22
REMARK   12  A    between atoms: C_23  and  O_25
REMARK                            x       y       z     vdW  Elec       q    Type
REMARK                         _______ _______ _______ _____ _____    ______ ____
ROOT
ATOM      1  C   UNL     1       8.641   2.176  24.052  0.00  0.00    +0.161 C 
ATOM      2  C   UNL     1       8.374   3.687  23.776  0.00  0.00    +0.229 C 
ATOM      3  O   UNL     1       9.506   4.563  23.884  0.00  0.00    -0.477 OA
ATOM      4  C   UNL     1      10.755   4.058  23.615  0.00  0.00    +0.204 C 
ATOM      5  C   UNL     1      11.031   2.762  23.435  0.00  0.00    +0.071 C 
ATOM      6  C   UNL     1      10.029   1.678  23.584  0.00  0.00    +0.238 C 
ENDROOT
BRANCH   6   7
ATOM      7  N   UNL     1       9.882   0.986  22.297  0.00  0.00    -0.104 NA
ATOM      8  C   UNL     1       9.791  -0.292  22.266  0.00  0.00    +0.377 C 
ATOM      9  N   UNL     1       9.684  -0.921  21.075  0.00  0.00    -0.289 N 
ATOM     10  H   UNL     1       9.136  -1.764  21.032  0.00  0.00    +0.255 HD
ATOM     11  H   UNL     1       9.511  -0.281  20.308  0.00  0.00    +0.255 HD
ATOM     12  N   UNL     1       9.830  -1.183  23.276  0.00  0.00    -0.289 N 
ATOM     13  H   UNL     1       9.441  -2.103  23.148  0.00  0.00    +0.255 HD
ATOM     14  H   UNL     1       9.860  -0.860  24.232  0.00  0.00    +0.255 HD
ENDBRANCH   6   7
BRANCH   1  17
ATOM     15  C   UNL     1       7.660   0.457  27.333  0.00  0.00    +0.109 C 
ATOM     16  C   UNL     1       7.790   0.582  25.838  0.00  0.00    +0.210 C 
ATOM     17  N   UNL     1       8.346   1.775  25.448  0.00  0.00    -0.305 N 
ATOM     18  H   UNL     1       8.493   2.485  26.152  0.00  0.00    +0.149 HD
ATOM     19  O   UNL     1       7.481  -0.325  25.078  0.00  0.00    -0.276 OA
ENDBRANCH   1  17
BRANCH   4  20
ATOM     20  C   UNL     1      11.897   5.029  23.583  0.00  0.00    +0.372 C 
ATOM     21  O   UNL     1      13.038   4.776  23.225  0.00  0.00    -0.242 OA
BRANCH  20  22
ATOM     22  O   UNL     1      11.507   6.238  24.046  0.00  0.00    -0.475 OA
ATOM     23  H   UNL     1      10.623   6.451  23.671  0.00  0.00    +0.296 HD
ENDBRANCH  20  22
ENDBRANCH   4  20
BRANCH   2  24
ATOM     24  C   UNL     1       7.587   3.909  22.449  0.00  0.00    +0.191 C 
BRANCH  24  25
ATOM     25  O   UNL     1       6.601   2.853  22.379  0.00  0.00    -0.373 OA
ATOM     26  C   UNL     1       5.250   3.284  22.419  0.00  0.00    +0.194 C 
ENDBRANCH  24  25
BRANCH  24  27
ATOM     27  C   UNL     1       6.901   5.296  22.352  0.00  0.00    +0.172 C 
BRANCH  27  28
ATOM     28  O   UNL     1       7.507   6.135  21.360  0.00  0.00    -0.387 OA
ATOM     29  H   UNL     1       6.827   6.233  20.664  0.00  0.00    +0.210 HD
ENDBRANCH  27  28
BRANCH  27  30
ATOM     30  C   UNL     1       6.869   6.051  23.688  0.00  0.00    +0.189 C 
BRANCH  30  31
ATOM     31  O   UNL     1       7.836   7.106  23.637  0.00  0.00    -0.392 OA
ATOM     32  H   UNL     1       7.813   7.543  24.507  0.00  0.00    +0.210 HD
ENDBRANCH  30  31
ENDBRANCH  27  30
ENDBRANCH  24  27
ENDBRANCH   2  24
TORSDOF 10
ENDMDL
MODEL 7
REMARK VINA RESULT:      -5.3      3.453      6.076
REMARK  Name = 
REMARK  12 active torsions:
REMARK  status: ('A' for Active; 'I' for Inactive)
REMARK    1  A    between atoms: C_1  and  C_2
REMARK    2  A    between atoms: N_4  and  C_5
REMARK    3  A    between atoms: C_7  and  N_26
REMARK    4  A    between atoms: C_10  and  C_23
REMARK    5  A    between atoms: C_12  and  C_14
REMARK    6  A    between atoms: C_14  and  C_16
REMARK    7  A    between atoms: C_14  and  O_21
REMARK    8  A    between atoms: C_16  and  C_18
REMARK    9  A    between atoms: C_16  and  O_20
REMARK   10  A    between atoms: C_18  and  O_19
REMARK   11  A    between atoms: O_21  and  C_22
REMARK   12  A    between atoms: C_23  and  O_25
REMARK                            x       y       z     vdW  Elec       q    Type
REMARK                         _______ _______ _______ _____ _____    ______ ____
ROOT
ATOM      1  C   UNL     1       6.709  -1.830  24.278  0.00  0.00    +0.161 C 
ATOM      2  C   UNL     1       6.222  -3.020  25.158  0.00  0.00    +0.229 C 
ATOM      3  O   UNL     1       5.406  -4.002  24.503  0.00  0.00    -0.477 OA
ATOM      4  C   UNL     1       5.581  -4.211  23.157  0.00  0.00    +0.204 C 
ATOM      5  C   UNL     1       6.330  -3.443  22.357  0.00  0.00    +0.071 C 
ATOM      6  C   UNL     1       7.011  -2.205  22.808  0.00  0.00    +0.238 C 
ENDROOT
BRANCH   6   7
ATOM      7  N   UNL     1       8.462  -2.373  22.643  0.00  0.00    -0.104 NA
ATOM      8  C   UNL     1       9.175  -1.393  22.228  0.00  0.00    +0.377 C 
ATOM      9  N   UNL     1      10.503  -1.566  22.053  0.00  0.00    -0.289 N 
ATOM     10  H   UNL     1      11.110  -0.782  22.227  0.00  0.00    +0.255 HD
ATOM     11  H   UNL     1      10.839  -2.438  22.444  0.00  0.00    +0.255 HD
ATOM     12  N   UNL     1       8.802  -0.149  21.868  0.00  0.00    -0.289 N 
ATOM     13  H   UNL     1       9.480   0.596  21.864  0.00  0.00    +0.255 HD
ATOM     14  H   UNL     1       7.844   0.146  21.988  0.00  0.00    +0.255 HD
ENDBRANCH   6   7
BRANCH   1  17
ATOM     15  C   UNL     1       5.143   1.662  24.463  0.00  0.00    +0.109 C 
ATOM     16  C   UNL     1       6.273   0.671  24.397  0.00  0.00    +0.210 C 
ATOM     17  N   UNL     1       5.842  -0.633  24.381  0.00  0.00    -0.305 N 
ATOM     18  H   UNL     1       4.860  -0.811  24.539  0.00  0.00    +0.149 HD
ATOM     19  O   UNL     1       7.443   1.019  24.307  0.00  0.00    -0.276 OA
ENDBRANCH   1  17
BRANCH   4  20
ATOM     20  C   UNL     1       4.828  -5.347  22.533  0.00  0.00    +0.372 C 
ATOM     21  O   UNL     1       3.646  -5.602  22.710  0.00  0.00    -0.242 OA
BRANCH  20  22
ATOM     22  O   UNL     1       5.648  -6.094  21.760  0.00  0.00    -0.475 OA
ATOM     23  H   UNL     1       5.725  -6.992  22.154  0.00  0.00    +0.296 HD
ENDBRANCH  20  22
ENDBRANCH   4  20
BRANCH   2  24
ATOM     24  C   UNL     1       7.390  -3.672  25.960  0.00  0.00    +0.191 C 
BRANCH  24  25
ATOM     25  O   UNL     1       7.007  -3.615  27.353  0.00  0.00    -0.373 OA
ATOM     26  C   UNL     1       5.614  -3.503  27.594  0.00  0.00    +0.194 C 
ENDBRANCH  24  25
BRANCH  24  27
ATOM     27  C   UNL     1       7.697  -5.134  25.543  0.00  0.00    +0.172 C 
BRANCH  27  28
ATOM     28  O   UNL     1       7.967  -5.975  26.671  0.00  0.00    -0.387 OA
ATOM     29  H   UNL     1       7.379  -5.642  27.379  0.00  0.00    +0.210 HD
ENDBRANCH  27  28
BRANCH  27  30
ATOM     30  C   UNL     1       8.862  -5.248  24.549  0.00  0.00    +0.189 C 
BRANCH  30  31
ATOM     31  O   UNL     1       9.944  -5.929  25.194  0.00  0.00    -0.392 OA
ATOM     32  H   UNL     1      10.288  -6.573  24.549  0.00  0.00    +0.210 HD
ENDBRANCH  30  31
ENDBRANCH  27  30
ENDBRANCH  24  27
ENDBRANCH   2  24
TORSDOF 10
ENDMDL
MODEL 8
REMARK VINA RESULT:      -5.2      3.029      5.323
REMARK  Name = 
REMARK  12 active torsions:
REMARK  status: ('A' for Active; 'I' for Inactive)
REMARK    1  A    between atoms: C_1  and  C_2
REMARK    2  A    between atoms: N_4  and  C_5
REMARK    3  A    between atoms: C_7  and  N_26
REMARK    4  A    between atoms: C_10  and  C_23
REMARK    5  A    between atoms: C_12  and  C_14
REMARK    6  A    between atoms: C_14  and  C_16
REMARK    7  A    between atoms: C_14  and  O_21
REMARK    8  A    between atoms: C_16  and  C_18
REMARK    9  A    between atoms: C_16  and  O_20
REMARK   10  A    between atoms: C_18  and  O_19
REMARK   11  A    between atoms: O_21  and  C_22
REMARK   12  A    between atoms: C_23  and  O_25
REMARK                            x       y       z     vdW  Elec       q    Type
REMARK                         _______ _______ _______ _____ _____    ______ ____
ROOT
ATOM      1  C   UNL     1       5.801  -2.912  24.778  0.00  0.00    +0.161 C 
ATOM      2  C   UNL     1       6.303  -4.371  24.998  0.00  0.00    +0.229 C 
ATOM      3  O   UNL     1       6.139  -5.273  23.893  0.00  0.00    -0.477 OA
ATOM      4  C   UNL     1       6.153  -4.759  22.618  0.00  0.00    +0.204 C 
ATOM      5  C   UNL     1       6.125  -3.456  22.321  0.00  0.00    +0.071 C 
ATOM      6  C   UNL     1       5.991  -2.383  23.337  0.00  0.00    +0.238 C 
ENDROOT
BRANCH   6   7
ATOM      7  N   UNL     1       7.188  -1.532  23.290  0.00  0.00    -0.104 NA
ATOM      8  C   UNL     1       7.079  -0.267  23.460  0.00  0.00    +0.377 C 
ATOM      9  N   UNL     1       8.182   0.509  23.388  0.00  0.00    -0.289 N 
ATOM     10  H   UNL     1       8.226   1.327  23.974  0.00  0.00    +0.255 HD
ATOM     11  H   UNL     1       9.040  -0.029  23.374  0.00  0.00    +0.255 HD
ATOM     12  N   UNL     1       5.978   0.482  23.667  0.00  0.00    -0.289 N 
ATOM     13  H   UNL     1       6.065   1.394  24.087  0.00  0.00    +0.255 HD
ATOM     14  H   UNL     1       5.082   0.037  23.792  0.00  0.00    +0.255 HD
ENDBRANCH   6   7
BRANCH   1  17
ATOM     15  C   UNL     1       2.600  -2.238  26.773  0.00  0.00    +0.109 C 
ATOM     16  C   UNL     1       4.073  -2.490  26.592  0.00  0.00    +0.210 C 
ATOM     17  N   UNL     1       4.426  -2.684  25.279  0.00  0.00    -0.305 N 
ATOM     18  H   UNL     1       3.687  -2.767  24.595  0.00  0.00    +0.149 HD
ATOM     19  O   UNL     1       4.860  -2.459  27.529  0.00  0.00    -0.276 OA
ENDBRANCH   1  17
BRANCH   4  20
ATOM     20  C   UNL     1       6.137  -5.738  21.483  0.00  0.00    +0.372 C 
ATOM     21  O   UNL     1       5.924  -5.466  20.310  0.00  0.00    -0.242 OA
BRANCH  20  22
ATOM     22  O   UNL     1       6.356  -6.994  21.933  0.00  0.00    -0.475 OA
ATOM     23  H   UNL     1       5.646  -7.582  21.591  0.00  0.00    +0.296 HD
ENDBRANCH  20  22
ENDBRANCH   4  20
BRANCH   2  24
ATOM     24  C   UNL     1       7.749  -4.413  25.576  0.00  0.00    +0.191 C 
BRANCH  24  25
ATOM     25  O   UNL     1       7.782  -5.516  26.510  0.00  0.00    -0.373 OA
ATOM     26  C   UNL     1       6.785  -5.484  27.519  0.00  0.00    +0.194 C 
ENDBRANCH  24  25
BRANCH  24  27
ATOM     27  C   UNL     1       8.851  -4.585  24.498  0.00  0.00    +0.172 C 
BRANCH  27  28
ATOM     28  O   UNL     1       9.649  -5.755  24.717  0.00  0.00    -0.387 OA
ATOM     29  H   UNL     1      10.566  -5.423  24.796  0.00  0.00    +0.210 HD
ENDBRANCH  27  28
BRANCH  27  30
ATOM     30  C   UNL     1       9.779  -3.367  24.381  0.00  0.00    +0.189 C 
BRANCH  30  31
ATOM     31  O   UNL     1       9.193  -2.279  25.105  0.00  0.00    -0.392 OA
ATOM     32  H   UNL     1       9.407  -2.427  26.044  0.00  0.00    +0.210 HD
ENDBRANCH  30  31
ENDBRANCH  27  30
ENDBRANCH  24  27
ENDBRANCH   2  24
TORSDOF 10
ENDMDL
MODEL 9
REMARK VINA RESULT:      -5.2      2.884      3.806
REMARK  Name = 
REMARK  12 active torsions:
REMARK  status: ('A' for Active; 'I' for Inactive)
REMARK    1  A    between atoms: C_1  and  C_2
REMARK    2  A    between atoms: N_4  and  C_5
REMARK    3  A    between atoms: C_7  and  N_26
REMARK    4  A    between atoms: C_10  and  C_23
REMARK    5  A    between atoms: C_12  and  C_14
REMARK    6  A    between atoms: C_14  and  C_16
REMARK    7  A    between atoms: C_14  and  O_21
REMARK    8  A    between atoms: C_16  and  C_18
REMARK    9  A    between atoms: C_16  and  O_20
REMARK   10  A    between atoms: C_18  and  O_19
REMARK   11  A    between atoms: O_21  and  C_22
REMARK   12  A    between atoms: C_23  and  O_25
REMARK                            x       y       z     vdW  Elec       q    Type
REMARK                         _______ _______ _______ _____ _____    ______ ____
ROOT
ATOM      1  C   UNL     1       6.846  -3.142  25.034  0.00  0.00    +0.161 C 
ATOM      2  C   UNL     1       6.795  -2.018  23.955  0.00  0.00    +0.229 C 
ATOM      3  O   UNL     1       6.927  -0.671  24.433  0.00  0.00    -0.477 OA
ATOM      4  C   UNL     1       7.654  -0.449  25.578  0.00  0.00    +0.204 C 
ATOM      5  C   UNL     1       8.103  -1.408  26.394  0.00  0.00    +0.071 C 
ATOM      6  C   UNL     1       7.803  -2.849  26.214  0.00  0.00    +0.238 C 
ENDROOT
BRANCH   6   7
ATOM      7  N   UNL     1       9.063  -3.575  26.002  0.00  0.00    -0.104 NA
ATOM      8  C   UNL     1       9.122  -4.833  26.236  0.00  0.00    +0.377 C 
ATOM      9  N   UNL     1      10.292  -5.486  26.065  0.00  0.00    -0.289 N 
ATOM     10  H   UNL     1      10.260  -6.442  25.753  0.00  0.00    +0.255 HD
ATOM     11  H   UNL     1      10.988  -4.924  25.590  0.00  0.00    +0.255 HD
ATOM     12  N   UNL     1       8.170  -5.669  26.696  0.00  0.00    -0.289 N 
ATOM     13  H   UNL     1       8.254  -6.661  26.537  0.00  0.00    +0.255 HD
ATOM     14  H   UNL     1       7.226  -5.336  26.827  0.00  0.00    +0.255 HD
ENDBRANCH   6   7
BRANCH   1  17
ATOM     15  C   UNL     1       3.624  -4.969  26.017  0.00  0.00    +0.109 C 
ATOM     16  C   UNL     1       5.000  -4.845  25.417  0.00  0.00    +0.210 C 
ATOM     17  N   UNL     1       5.505  -3.571  25.497  0.00  0.00    -0.305 N 
ATOM     18  H   UNL     1       4.892  -2.834  25.816  0.00  0.00    +0.149 HD
ATOM     19  O   UNL     1       5.605  -5.808  24.968  0.00  0.00    -0.276 OA
ENDBRANCH   1  17
BRANCH   4  20
ATOM     20  C   UNL     1       7.907   0.977  25.966  0.00  0.00    +0.372 C 
ATOM     21  O   UNL     1       7.193   1.657  26.688  0.00  0.00    -0.242 OA
BRANCH  20  22
ATOM     22  O   UNL     1       9.030   1.440  25.372  0.00  0.00    -0.475 OA
ATOM     23  H   UNL     1       9.010   2.423  25.377  0.00  0.00    +0.296 HD
ENDBRANCH  20  22
ENDBRANCH   4  20
BRANCH   2  24
ATOM     24  C   UNL     1       7.751  -2.311  22.760  0.00  0.00    +0.191 C 
BRANCH  24  25
ATOM     25  O   UNL     1       6.907  -2.487  21.598  0.00  0.00    -0.373 OA
ATOM     26  C   UNL     1       6.001  -3.576  21.668  0.00  0.00    +0.194 C 
ENDBRANCH  24  25
BRANCH  24  27
ATOM     27  C   UNL     1       8.796  -1.193  22.504  0.00  0.00    +0.172 C 
BRANCH  27  28
ATOM     28  O   UNL     1       9.056  -1.001  21.108  0.00  0.00    -0.387 OA
ATOM     29  H   UNL     1       8.172  -0.896  20.701  0.00  0.00    +0.210 HD
ENDBRANCH  27  28
BRANCH  27  30
ATOM     30  C   UNL     1      10.128  -1.433  23.229  0.00  0.00    +0.189 C 
BRANCH  30  31
ATOM     31  O   UNL     1      10.222  -2.824  23.557  0.00  0.00    -0.392 OA
ATOM     32  H   UNL     1      11.161  -2.999  23.750  0.00  0.00    +0.210 HD
ENDBRANCH  30  31
ENDBRANCH  27  30
ENDBRANCH  24  27
ENDBRANCH   2  24
TORSDOF 10
ENDMDL
