MODEL 1
REMARK VINA RESULT:      -6.5      0.000      0.000
REMARK  Name = 
REMARK  17 active torsions:
REMARK  status: ('A' for Active; 'I' for Inactive)
REMARK    1  A    between atoms: C_1  and  C_2
REMARK    2  A    between atoms: C_2  and  C_4
REMARK    3  A    between atoms: C_2  and  O_15
REMARK    4  A    between atoms: C_4  and  N_5
REMARK    5  A    between atoms: C_9  and  N_14
REMARK    6  A    between atoms: O_15  and  C_16
REMARK    7  A    between atoms: C_16  and  P_17
REMARK    8  A    between atoms: P_17  and  N_19
REMARK    9  A    between atoms: P_17  and  O_29
REMARK   10  A    between atoms: N_19  and  C_20
REMARK   11  A    between atoms: C_20  and  C_22
REMARK   12  A    between atoms: C_20  and  C_23
REMARK   13  A    between atoms: C_23  and  O_25
REMARK   14  A    between atoms: O_25  and  C_26
REMARK   15  A    between atoms: C_26  and  C_27
REMARK   16  A    between atoms: C_26  and  C_28
REMARK   17  A    between atoms: O_29  and  C_30
REMARK                            x       y       z     vdW  Elec       q    Type
REMARK                         _______ _______ _______ _____ _____    ______ ____
ROOT
ATOM      1  P   UNL     1       7.895  -2.102  22.637  0.00  0.00    +0.345 P 
ATOM      2  O   UNL     1       6.420  -2.489  22.373  0.00  0.00    -0.257 OA
ENDROOT
BRANCH   1   3
ATOM      3  N   UNL     1       8.404  -3.750  22.552  0.00  0.00    -0.221 NA
ATOM      4  H   UNL     1       9.381  -3.811  22.827  0.00  0.00    +0.133 HD
BRANCH   3   5
ATOM      5  C   UNL     1       7.666  -4.722  23.417  0.00  0.00    +0.169 C 
ATOM      6  C   UNL     1       7.225  -5.960  22.646  0.00  0.00    +0.036 C 
BRANCH   5   7
ATOM      7  C   UNL     1       8.544  -5.166  24.598  0.00  0.00    +0.325 C 
ATOM      8  O   UNL     1       9.752  -4.998  24.680  0.00  0.00    -0.249 OA
BRANCH   7   9
ATOM      9  O   UNL     1       7.775  -5.769  25.559  0.00  0.00    -0.461 OA
BRANCH   9  10
ATOM     10  C   UNL     1       6.547  -5.101  25.914  0.00  0.00    +0.170 C 
ATOM     11  C   UNL     1       6.824  -4.279  27.173  0.00  0.00    +0.052 C 
ATOM     12  C   UNL     1       5.430  -6.104  26.189  0.00  0.00    +0.052 C 
ENDBRANCH   9  10
ENDBRANCH   7   9
ENDBRANCH   5   7
ENDBRANCH   3   5
ENDBRANCH   1   3
BRANCH   1  13
ATOM     13  C   UNL     1       7.571  -1.778  24.497  0.00  0.00    +0.286 C 
BRANCH  13  14
ATOM     14  O   UNL     1       6.788  -0.581  24.511  0.00  0.00    -0.363 OA
BRANCH  14  16
ATOM     15  C   UNL     1       7.432  -0.270  26.791  0.00  0.00    +0.040 C 
ATOM     16  C   UNL     1       7.259   0.406  25.430  0.00  0.00    +0.136 C 
BRANCH  16  17
ATOM     17  C   UNL     1       6.330   1.631  25.480  0.00  0.00    +0.156 C 
BRANCH  17  18
ATOM     18  N   UNL     1       6.469   2.536  24.357  0.00  0.00    -0.312 N 
ATOM     19  C   UNL     1       7.261   3.646  24.311  0.00  0.00    +0.165 A 
ATOM     20  C   UNL     1       7.037   4.187  23.055  0.00  0.00    +0.147 A 
ATOM     21  C   UNL     1       7.714   5.375  22.745  0.00  0.00    +0.147 A 
ATOM     22  N   UNL     1       8.588   5.870  23.648  0.00  0.00    -0.219 NA
ATOM     23  C   UNL     1       8.724   5.222  24.828  0.00  0.00    +0.225 A 
ATOM     24  N   UNL     1       6.185   3.397  22.320  0.00  0.00    -0.231 NA
ATOM     25  N   UNL     1       8.092   4.110  25.261  0.00  0.00    -0.216 NA
ATOM     26  C   UNL     1       5.895   2.395  23.120  0.00  0.00    +0.201 A 
BRANCH  21  27
ATOM     27  N   UNL     1       7.549   6.036  21.535  0.00  0.00    -0.341 N 
ATOM     28  H   UNL     1       6.806   5.640  20.979  0.00  0.00    +0.144 HD
ATOM     29  H   UNL     1       7.586   7.046  21.630  0.00  0.00    +0.144 HD
ENDBRANCH  21  27
ENDBRANCH  17  18
ENDBRANCH  16  17
ENDBRANCH  14  16
ENDBRANCH  13  14
ENDBRANCH   1  13
BRANCH   1  30
ATOM     30  O   UNL     1       9.544  -1.670  22.931  0.00  0.00    -0.431 OA
BRANCH  30  31
ATOM     31  C   UNL     1       9.858  -0.338  22.961  0.00  0.00    +0.129 A 
ATOM     32  C   UNL     1       9.455   0.425  21.868  0.00  0.00    +0.046 A 
ATOM     33  C   UNL     1       9.698   1.798  21.854  0.00  0.00    +0.004 A 
ATOM     34  C   UNL     1      10.356   2.399  22.926  0.00  0.00    +0.000 A 
ATOM     35  C   UNL     1      10.801   1.622  23.997  0.00  0.00    +0.004 A 
ATOM     36  C   UNL     1      10.560   0.246  24.012  0.00  0.00    +0.046 A 
ENDBRANCH  30  31
ENDBRANCH   1  30
TORSDOF 13
ENDMDL
MODEL 2
REMARK VINA RESULT:      -6.4      3.438      6.667
REMARK  Name = 
REMARK  17 active torsions:
REMARK  status: ('A' for Active; 'I' for Inactive)
REMARK    1  A    between atoms: C_1  and  C_2
REMARK    2  A    between atoms: C_2  and  C_4
REMARK    3  A    between atoms: C_2  and  O_15
REMARK    4  A    between atoms: C_4  and  N_5
REMARK    5  A    between atoms: C_9  and  N_14
REMARK    6  A    between atoms: O_15  and  C_16
REMARK    7  A    between atoms: C_16  and  P_17
REMARK    8  A    between atoms: P_17  and  N_19
REMARK    9  A    between atoms: P_17  and  O_29
REMARK   10  A    between atoms: N_19  and  C_20
REMARK   11  A    between atoms: C_20  and  C_22
REMARK   12  A    between atoms: C_20  and  C_23
REMARK   13  A    between atoms: C_23  and  O_25
REMARK   14  A    between atoms: O_25  and  C_26
REMARK   15  A    between atoms: C_26  and  C_27
REMARK   16  A    between atoms: C_26  and  C_28
REMARK   17  A    between atoms: O_29  and  C_30
REMARK                            x       y       z     vdW  Elec       q    Type
REMARK                         _______ _______ _______ _____ _____    ______ ____
ROOT
ATOM      1  P   UNL     1       6.483  -0.769  24.582  0.00  0.00    +0.345 P 
ATOM      2  O   UNL     1       5.543  -1.939  24.201  0.00  0.00    -0.257 OA
ENDROOT
BRANCH   1   3
ATOM      3  N   UNL     1       7.765  -1.854  24.985  0.00  0.00    -0.221 NA
ATOM      4  H   UNL     1       7.394  -2.610  25.554  0.00  0.00    +0.133 HD
BRANCH   3   5
ATOM      5  C   UNL     1       8.475  -2.503  23.840  0.00  0.00    +0.169 C 
ATOM      6  C   UNL     1       9.938  -2.084  23.758  0.00  0.00    +0.036 C 
BRANCH   5   7
ATOM      7  C   UNL     1       8.409  -4.033  23.962  0.00  0.00    +0.325 C 
ATOM      8  O   UNL     1       9.299  -4.743  24.407  0.00  0.00    -0.249 OA
BRANCH   7   9
ATOM      9  O   UNL     1       7.198  -4.492  23.512  0.00  0.00    -0.461 OA
BRANCH   9  10
ATOM     10  C   UNL     1       7.109  -4.801  22.107  0.00  0.00    +0.170 C 
ATOM     11  C   UNL     1       6.001  -3.928  21.518  0.00  0.00    +0.052 C 
ATOM     12  C   UNL     1       6.777  -6.274  21.885  0.00  0.00    +0.052 C 
ENDBRANCH   9  10
ENDBRANCH   7   9
ENDBRANCH   5   7
ENDBRANCH   3   5
ENDBRANCH   1   3
BRANCH   1  13
ATOM     13  C   UNL     1       5.565  -0.451  26.233  0.00  0.00    +0.286 C 
BRANCH  13  14
ATOM     14  O   UNL     1       4.201  -0.770  25.939  0.00  0.00    -0.363 OA
BRANCH  14  16
ATOM     15  C   UNL     1       2.481  -0.096  27.456  0.00  0.00    +0.040 C 
ATOM     16  C   UNL     1       3.455  -1.212  27.075  0.00  0.00    +0.136 C 
BRANCH  16  17
ATOM     17  C   UNL     1       4.374  -1.630  28.235  0.00  0.00    +0.156 C 
BRANCH  17  18
ATOM     18  N   UNL     1       4.392  -3.054  28.503  0.00  0.00    -0.312 N 
ATOM     19  C   UNL     1       5.320  -3.947  28.050  0.00  0.00    +0.165 A 
ATOM     20  C   UNL     1       4.901  -5.172  28.544  0.00  0.00    +0.147 A 
ATOM     21  C   UNL     1       5.669  -6.292  28.199  0.00  0.00    +0.147 A 
ATOM     22  N   UNL     1       6.796  -6.101  27.479  0.00  0.00    -0.219 NA
ATOM     23  C   UNL     1       7.096  -4.842  27.082  0.00  0.00    +0.225 A 
ATOM     24  N   UNL     1       3.787  -5.032  29.337  0.00  0.00    -0.231 NA
ATOM     25  N   UNL     1       6.411  -3.700  27.305  0.00  0.00    -0.216 NA
ATOM     26  C   UNL     1       3.533  -3.742  29.321  0.00  0.00    +0.201 A 
BRANCH  21  27
ATOM     27  N   UNL     1       5.338  -7.580  28.599  0.00  0.00    -0.341 N 
ATOM     28  H   UNL     1       5.708  -8.284  27.977  0.00  0.00    +0.144 HD
ATOM     29  H   UNL     1       5.449  -7.723  29.598  0.00  0.00    +0.144 HD
ENDBRANCH  21  27
ENDBRANCH  17  18
ENDBRANCH  16  17
ENDBRANCH  14  16
ENDBRANCH  13  14
ENDBRANCH   1  13
BRANCH   1  30
ATOM     30  O   UNL     1       7.534   0.537  25.008  0.00  0.00    -0.431 OA
BRANCH  30  31
ATOM     31  C   UNL     1       8.362   1.031  24.036  0.00  0.00    +0.129 A 
ATOM     32  C   UNL     1       9.572   1.575  24.460  0.00  0.00    +0.046 A 
ATOM     33  C   UNL     1      10.485   2.051  23.521  0.00  0.00    +0.004 A 
ATOM     34  C   UNL     1      10.178   1.996  22.162  0.00  0.00    +0.000 A 
ATOM     35  C   UNL     1       8.943   1.495  21.745  0.00  0.00    +0.004 A 
ATOM     36  C   UNL     1       8.026   1.018  22.685  0.00  0.00    +0.046 A 
ENDBRANCH  30  31
ENDBRANCH   1  30
TORSDOF 13
ENDMDL
MODEL 3
REMARK VINA RESULT:      -6.4      3.306      7.552
REMARK  Name = 
REMARK  17 active torsions:
REMARK  status: ('A' for Active; 'I' for Inactive)
REMARK    1  A    between atoms: C_1  and  C_2
REMARK    2  A    between atoms: C_2  and  C_4
REMARK    3  A    between atoms: C_2  and  O_15
REMARK    4  A    between atoms: C_4  and  N_5
REMARK    5  A    between atoms: C_9  and  N_14
REMARK    6  A    between atoms: O_15  and  C_16
REMARK    7  A    between atoms: C_16  and  P_17
REMARK    8  A    between atoms: P_17  and  N_19
REMARK    9  A    between atoms: P_17  and  O_29
REMARK   10  A    between atoms: N_19  and  C_20
REMARK   11  A    between atoms: C_20  and  C_22
REMARK   12  A    between atoms: C_20  and  C_23
REMARK   13  A    between atoms: C_23  and  O_25
REMARK   14  A    between atoms: O_25  and  C_26
REMARK   15  A    between atoms: C_26  and  C_27
REMARK   16  A    between atoms: C_26  and  C_28
REMARK   17  A    between atoms: O_29  and  C_30
REMARK                            x       y       z     vdW  Elec       q    Type
REMARK                         _______ _______ _______ _____ _____    ______ ____
ROOT
ATOM      1  P   UNL     1       8.314  -2.333  23.457  0.00  0.00    +0.345 P 
ATOM      2  O   UNL     1       9.171  -3.542  23.905  0.00  0.00    -0.257 OA
ENDROOT
BRANCH   1   3
ATOM      3  N   UNL     1       7.405  -2.358  24.925  0.00  0.00    -0.221 NA
ATOM      4  H   UNL     1       7.352  -3.314  25.267  0.00  0.00    +0.133 HD
BRANCH   3   5
ATOM      5  C   UNL     1       7.943  -1.540  26.057  0.00  0.00    +0.169 C 
ATOM      6  C   UNL     1       9.260  -0.861  25.701  0.00  0.00    +0.036 C 
BRANCH   5   7
ATOM      7  C   UNL     1       6.931  -0.460  26.470  0.00  0.00    +0.325 C 
ATOM      8  O   UNL     1       5.731  -0.494  26.238  0.00  0.00    -0.249 OA
BRANCH   7   9
ATOM      9  O   UNL     1       7.564   0.547  27.151  0.00  0.00    -0.461 OA
BRANCH   9  10
ATOM     10  C   UNL     1       6.747   1.661  27.561  0.00  0.00    +0.170 C 
ATOM     11  C   UNL     1       7.168   2.868  26.723  0.00  0.00    +0.052 C 
ATOM     12  C   UNL     1       6.936   1.971  29.043  0.00  0.00    +0.052 C 
ENDBRANCH   9  10
ENDBRANCH   7   9
ENDBRANCH   5   7
ENDBRANCH   3   5
ENDBRANCH   1   3
BRANCH   1  13
ATOM     13  C   UNL     1       7.298  -3.394  22.227  0.00  0.00    +0.286 C 
BRANCH  13  14
ATOM     14  O   UNL     1       7.666  -4.740  22.542  0.00  0.00    -0.363 OA
BRANCH  14  16
ATOM     15  C   UNL     1       6.241  -6.006  21.101  0.00  0.00    +0.040 C 
ATOM     16  C   UNL     1       6.566  -5.651  22.553  0.00  0.00    +0.136 C 
BRANCH  16  17
ATOM     17  C   UNL     1       5.359  -5.081  23.317  0.00  0.00    +0.156 C 
BRANCH  17  18
ATOM     18  N   UNL     1       5.063  -5.759  24.563  0.00  0.00    -0.312 N 
ATOM     19  C   UNL     1       5.824  -5.730  25.696  0.00  0.00    +0.165 A 
ATOM     20  C   UNL     1       5.150  -6.540  26.595  0.00  0.00    +0.147 A 
ATOM     21  C   UNL     1       5.737  -6.716  27.856  0.00  0.00    +0.147 A 
ATOM     22  N   UNL     1       6.870  -6.036  28.137  0.00  0.00    -0.219 NA
ATOM     23  C   UNL     1       7.408  -5.260  27.167  0.00  0.00    +0.225 A 
ATOM     24  N   UNL     1       3.970  -7.000  26.060  0.00  0.00    -0.231 NA
ATOM     25  N   UNL     1       6.968  -5.055  25.907  0.00  0.00    -0.216 NA
ATOM     26  C   UNL     1       3.933  -6.479  24.853  0.00  0.00    +0.201 A 
BRANCH  21  27
ATOM     27  N   UNL     1       5.181  -7.530  28.834  0.00  0.00    -0.341 N 
ATOM     28  H   UNL     1       5.764  -7.596  29.656  0.00  0.00    +0.144 HD
ATOM     29  H   UNL     1       4.189  -7.364  28.966  0.00  0.00    +0.144 HD
ENDBRANCH  21  27
ENDBRANCH  17  18
ENDBRANCH  16  17
ENDBRANCH  14  16
ENDBRANCH  13  14
ENDBRANCH   1  13
BRANCH   1  30
ATOM     30  O   UNL     1       7.356  -0.981  22.958  0.00  0.00    -0.431 OA
BRANCH  30  31
ATOM     31  C   UNL     1       7.999   0.206  22.732  0.00  0.00    +0.129 A 
ATOM     32  C   UNL     1       7.392   1.353  23.236  0.00  0.00    +0.046 A 
ATOM     33  C   UNL     1       8.016   2.590  23.085  0.00  0.00    +0.004 A 
ATOM     34  C   UNL     1       9.237   2.677  22.418  0.00  0.00    +0.000 A 
ATOM     35  C   UNL     1       9.817   1.531  21.873  0.00  0.00    +0.004 A 
ATOM     36  C   UNL     1       9.193   0.291  22.021  0.00  0.00    +0.046 A 
ENDBRANCH  30  31
ENDBRANCH   1  30
TORSDOF 13
ENDMDL
MODEL 4
REMARK VINA RESULT:      -6.3      2.865      7.693
REMARK  Name = 
REMARK  17 active torsions:
REMARK  status: ('A' for Active; 'I' for Inactive)
REMARK    1  A    between atoms: C_1  and  C_2
REMARK    2  A    between atoms: C_2  and  C_4
REMARK    3  A    between atoms: C_2  and  O_15
REMARK    4  A    between atoms: C_4  and  N_5
REMARK    5  A    between atoms: C_9  and  N_14
REMARK    6  A    between atoms: O_15  and  C_16
REMARK    7  A    between atoms: C_16  and  P_17
REMARK    8  A    between atoms: P_17  and  N_19
REMARK    9  A    between atoms: P_17  and  O_29
REMARK   10  A    between atoms: N_19  and  C_20
REMARK   11  A    between atoms: C_20  and  C_22
REMARK   12  A    between atoms: C_20  and  C_23
REMARK   13  A    between atoms: C_23  and  O_25
REMARK   14  A    between atoms: O_25  and  C_26
REMARK   15  A    between atoms: C_26  and  C_27
REMARK   16  A    between atoms: C_26  and  C_28
REMARK   17  A    between atoms: O_29  and  C_30
REMARK                            x       y       z     vdW  Elec       q    Type
REMARK                         _______ _______ _______ _____ _____    ______ ____
ROOT
ATOM      1  P   UNL     1       5.804  -0.824  26.110  0.00  0.00    +0.345 P 
ATOM      2  O   UNL     1       5.627   0.019  27.397  0.00  0.00    -0.257 OA
ENDROOT
BRANCH   1   3
ATOM      3  N   UNL     1       5.292   0.487  25.110  0.00  0.00    -0.221 NA
ATOM      4  H   UNL     1       4.418   0.859  25.471  0.00  0.00    +0.133 HD
BRANCH   3   5
ATOM      5  C   UNL     1       6.228   1.650  25.005  0.00  0.00    +0.169 C 
ATOM      6  C   UNL     1       7.474   1.466  25.863  0.00  0.00    +0.036 C 
BRANCH   5   7
ATOM      7  C   UNL     1       6.663   1.861  23.546  0.00  0.00    +0.325 C 
ATOM      8  O   UNL     1       5.936   2.253  22.644  0.00  0.00    -0.249 OA
BRANCH   7   9
ATOM      9  O   UNL     1       7.992   1.560  23.401  0.00  0.00    -0.461 OA
BRANCH   9  10
ATOM     10  C   UNL     1       8.783   2.488  22.632  0.00  0.00    +0.170 C 
ATOM     11  C   UNL     1       9.962   1.709  22.050  0.00  0.00    +0.052 C 
ATOM     12  C   UNL     1       9.299   3.630  23.504  0.00  0.00    +0.052 C 
ENDBRANCH   9  10
ENDBRANCH   7   9
ENDBRANCH   5   7
ENDBRANCH   3   5
ENDBRANCH   1   3
BRANCH   1  13
ATOM     13  C   UNL     1       4.215  -1.839  26.449  0.00  0.00    +0.286 C 
BRANCH  13  14
ATOM     14  O   UNL     1       4.405  -3.044  25.701  0.00  0.00    -0.363 OA
BRANCH  14  16
ATOM     15  C   UNL     1       2.693  -3.636  27.260  0.00  0.00    +0.040 C 
ATOM     16  C   UNL     1       3.462  -4.071  26.012  0.00  0.00    +0.136 C 
BRANCH  16  17
ATOM     17  C   UNL     1       4.141  -5.442  26.171  0.00  0.00    +0.156 C 
BRANCH  17  18
ATOM     18  N   UNL     1       5.575  -5.382  26.372  0.00  0.00    -0.312 N 
ATOM     19  C   UNL     1       6.525  -5.373  25.393  0.00  0.00    +0.165 A 
ATOM     20  C   UNL     1       7.732  -5.334  26.073  0.00  0.00    +0.147 A 
ATOM     21  C   UNL     1       8.899  -5.348  25.297  0.00  0.00    +0.147 A 
ATOM     22  N   UNL     1       8.776  -5.324  23.952  0.00  0.00    -0.219 NA
ATOM     23  C   UNL     1       7.531  -5.342  23.423  0.00  0.00    +0.225 A 
ATOM     24  N   UNL     1       7.533  -5.249  27.431  0.00  0.00    -0.231 NA
ATOM     25  N   UNL     1       6.342  -5.383  24.061  0.00  0.00    -0.216 NA
ATOM     26  C   UNL     1       6.226  -5.241  27.570  0.00  0.00    +0.201 A 
BRANCH  21  27
ATOM     27  N   UNL     1      10.170  -5.348  25.856  0.00  0.00    -0.341 N 
ATOM     28  H   UNL     1      10.884  -5.090  25.189  0.00  0.00    +0.144 HD
ATOM     29  H   UNL     1      10.197  -4.913  26.772  0.00  0.00    +0.144 HD
ENDBRANCH  21  27
ENDBRANCH  17  18
ENDBRANCH  16  17
ENDBRANCH  14  16
ENDBRANCH  13  14
ENDBRANCH   1  13
BRANCH   1  30
ATOM     30  O   UNL     1       6.002  -1.766  24.673  0.00  0.00    -0.431 OA
BRANCH  30  31
ATOM     31  C   UNL     1       7.237  -1.776  24.083  0.00  0.00    +0.129 A 
ATOM     32  C   UNL     1       8.339  -1.770  24.934  0.00  0.00    +0.046 A 
ATOM     33  C   UNL     1       9.626  -1.829  24.403  0.00  0.00    +0.004 A 
ATOM     34  C   UNL     1       9.807  -1.877  23.021  0.00  0.00    +0.000 A 
ATOM     35  C   UNL     1       8.701  -1.834  22.171  0.00  0.00    +0.004 A 
ATOM     36  C   UNL     1       7.410  -1.773  22.701  0.00  0.00    +0.046 A 
ENDBRANCH  30  31
ENDBRANCH   1  30
TORSDOF 13
ENDMDL
MODEL 5
REMARK VINA RESULT:      -6.3      1.136      1.956
REMARK  Name = 
REMARK  17 active torsions:
REMARK  status: ('A' for Active; 'I' for Inactive)
REMARK    1  A    between atoms: C_1  and  C_2
REMARK    2  A    between atoms: C_2  and  C_4
REMARK    3  A    between atoms: C_2  and  O_15
REMARK    4  A    between atoms: C_4  and  N_5
REMARK    5  A    between atoms: C_9  and  N_14
REMARK    6  A    between atoms: O_15  and  C_16
REMARK    7  A    between atoms: C_16  and  P_17
REMARK    8  A    between atoms: P_17  and  N_19
REMARK    9  A    between atoms: P_17  and  O_29
REMARK   10  A    between atoms: N_19  and  C_20
REMARK   11  A    between atoms: C_20  and  C_22
REMARK   12  A    between atoms: C_20  and  C_23
REMARK   13  A    between atoms: C_23  and  O_25
REMARK   14  A    between atoms: O_25  and  C_26
REMARK   15  A    between atoms: C_26  and  C_27
REMARK   16  A    between atoms: C_26  and  C_28
REMARK   17  A    between atoms: O_29  and  C_30
REMARK                            x       y       z     vdW  Elec       q    Type
REMARK                         _______ _______ _______ _____ _____    ______ ____
ROOT
ATOM      1  P   UNL     1       7.625  -2.120  22.790  0.00  0.00    +0.345 P 
ATOM      2  O   UNL     1       6.211  -2.427  22.240  0.00  0.00    -0.257 OA
ENDROOT
BRANCH   1   3
ATOM      3  N   UNL     1       7.963  -3.797  23.020  0.00  0.00    -0.221 NA
ATOM      4  H   UNL     1       8.327  -3.937  23.959  0.00  0.00    +0.133 HD
BRANCH   3   5
ATOM      5  C   UNL     1       6.808  -4.737  22.876  0.00  0.00    +0.169 C 
ATOM      6  C   UNL     1       7.189  -6.007  22.125  0.00  0.00    +0.036 C 
BRANCH   5   7
ATOM      7  C   UNL     1       6.258  -5.129  24.256  0.00  0.00    +0.325 C 
ATOM      8  O   UNL     1       5.077  -5.121  24.573  0.00  0.00    -0.249 OA
BRANCH   7   9
ATOM      9  O   UNL     1       7.284  -5.506  25.084  0.00  0.00    -0.461 OA
BRANCH   9  10
ATOM     10  C   UNL     1       7.445  -4.744  26.298  0.00  0.00    +0.170 C 
ATOM     11  C   UNL     1       8.931  -4.416  26.436  0.00  0.00    +0.052 C 
ATOM     12  C   UNL     1       6.975  -5.535  27.515  0.00  0.00    +0.052 C 
ENDBRANCH   9  10
ENDBRANCH   7   9
ENDBRANCH   5   7
ENDBRANCH   3   5
ENDBRANCH   1   3
BRANCH   1  13
ATOM     13  C   UNL     1       6.937  -1.517  24.473  0.00  0.00    +0.286 C 
BRANCH  13  14
ATOM     14  O   UNL     1       5.995  -0.498  24.120  0.00  0.00    -0.363 OA
BRANCH  14  16
ATOM     15  C   UNL     1       5.124   1.109  25.659  0.00  0.00    +0.040 C 
ATOM     16  C   UNL     1       6.274   0.774  24.708  0.00  0.00    +0.136 C 
BRANCH  16  17
ATOM     17  C   UNL     1       6.508   1.858  23.643  0.00  0.00    +0.156 C 
BRANCH  17  18
ATOM     18  N   UNL     1       7.262   3.004  24.108  0.00  0.00    -0.312 N 
ATOM     19  C   UNL     1       7.444   4.176  23.434  0.00  0.00    +0.165 A 
ATOM     20  C   UNL     1       8.245   4.942  24.266  0.00  0.00    +0.147 A 
ATOM     21  C   UNL     1       8.620   6.208  23.798  0.00  0.00    +0.147 A 
ATOM     22  N   UNL     1       8.122   6.629  22.615  0.00  0.00    -0.219 NA
ATOM     23  C   UNL     1       7.330   5.782  21.917  0.00  0.00    +0.225 A 
ATOM     24  N   UNL     1       8.495   4.290  25.451  0.00  0.00    -0.231 NA
ATOM     25  N   UNL     1       6.946   4.527  22.236  0.00  0.00    -0.216 NA
ATOM     26  C   UNL     1       7.856   3.146  25.336  0.00  0.00    +0.201 A 
BRANCH  21  27
ATOM     27  N   UNL     1       9.449   7.058  24.519  0.00  0.00    -0.341 N 
ATOM     28  H   UNL     1       9.157   8.023  24.457  0.00  0.00    +0.144 HD
ATOM     29  H   UNL     1       9.689   6.691  25.434  0.00  0.00    +0.144 HD
ENDBRANCH  21  27
ENDBRANCH  17  18
ENDBRANCH  16  17
ENDBRANCH  14  16
ENDBRANCH  13  14
ENDBRANCH   1  13
BRANCH   1  30
ATOM     30  O   UNL     1       9.205  -1.777  23.404  0.00  0.00    -0.431 OA
BRANCH  30  31
ATOM     31  C   UNL     1       9.675  -0.498  23.275  0.00  0.00    +0.129 A 
ATOM     32  C   UNL     1       9.435   0.139  22.061  0.00  0.00    +0.046 A 
ATOM     33  C   UNL     1       9.842   1.459  21.878  0.00  0.00    +0.004 A 
ATOM     34  C   UNL     1      10.501   2.132  22.906  0.00  0.00    +0.000 A 
ATOM     35  C   UNL     1      10.782   1.474  24.104  0.00  0.00    +0.004 A 
ATOM     36  C   UNL     1      10.377   0.150  24.289  0.00  0.00    +0.046 A 
ENDBRANCH  30  31
ENDBRANCH   1  30
TORSDOF 13
ENDMDL
MODEL 6
REMARK VINA RESULT:      -6.3      1.732      2.793
REMARK  Name = 
REMARK  17 active torsions:
REMARK  status: ('A' for Active; 'I' for Inactive)
REMARK    1  A    between atoms: C_1  and  C_2
REMARK    2  A    between atoms: C_2  and  C_4
REMARK    3  A    between atoms: C_2  and  O_15
REMARK    4  A    between atoms: C_4  and  N_5
REMARK    5  A    between atoms: C_9  and  N_14
REMARK    6  A    between atoms: O_15  and  C_16
REMARK    7  A    between atoms: C_16  and  P_17
REMARK    8  A    between atoms: P_17  and  N_19
REMARK    9  A    between atoms: P_17  and  O_29
REMARK   10  A    between atoms: N_19  and  C_20
REMARK   11  A    between atoms: C_20  and  C_22
REMARK   12  A    between atoms: C_20  and  C_23
REMARK   13  A    between atoms: C_23  and  O_25
REMARK   14  A    between atoms: O_25  and  C_26
REMARK   15  A    between atoms: C_26  and  C_27
REMARK   16  A    between atoms: C_26  and  C_28
REMARK   17  A    between atoms: O_29  and  C_30
REMARK                            x       y       z     vdW  Elec       q    Type
REMARK                         _______ _______ _______ _____ _____    ______ ____
ROOT
ATOM      1  P   UNL     1       6.609  -1.119  24.458  0.00  0.00    +0.345 P 
ATOM      2  O   UNL     1       5.496  -2.087  23.989  0.00  0.00    -0.257 OA
ENDROOT
BRANCH   1   3
ATOM      3  N   UNL     1       7.602  -2.426  24.994  0.00  0.00    -0.221 NA
ATOM      4  H   UNL     1       7.021  -3.114  25.466  0.00  0.00    +0.133 HD
BRANCH   3   5
ATOM      5  C   UNL     1       8.352  -3.171  23.935  0.00  0.00    +0.169 C 
ATOM      6  C   UNL     1       9.809  -2.733  23.845  0.00  0.00    +0.036 C 
BRANCH   5   7
ATOM      7  C   UNL     1       8.311  -4.683  24.209  0.00  0.00    +0.325 C 
ATOM      8  O   UNL     1       9.269  -5.364  24.546  0.00  0.00    -0.249 OA
BRANCH   7   9
ATOM      9  O   UNL     1       7.038  -5.161  24.034  0.00  0.00    -0.461 OA
BRANCH   9  10
ATOM     10  C   UNL     1       6.482  -5.041  22.709  0.00  0.00    +0.170 C 
ATOM     11  C   UNL     1       4.993  -5.372  22.809  0.00  0.00    +0.052 C 
ATOM     12  C   UNL     1       7.160  -6.001  21.735  0.00  0.00    +0.052 C 
ENDBRANCH   9  10
ENDBRANCH   7   9
ENDBRANCH   5   7
ENDBRANCH   3   5
ENDBRANCH   1   3
BRANCH   1  13
ATOM     13  C   UNL     1       5.616  -0.584  26.006  0.00  0.00    +0.286 C 
BRANCH  13  14
ATOM     14  O   UNL     1       6.607  -0.048  26.889  0.00  0.00    -0.363 OA
BRANCH  14  16
ATOM     15  C   UNL     1       5.257   0.397  28.809  0.00  0.00    +0.040 C 
ATOM     16  C   UNL     1       6.130   1.014  27.716  0.00  0.00    +0.136 C 
BRANCH  16  17
ATOM     17  C   UNL     1       5.397   2.091  26.897  0.00  0.00    +0.156 C 
BRANCH  17  18
ATOM     18  N   UNL     1       6.265   2.931  26.097  0.00  0.00    -0.312 N 
ATOM     19  C   UNL     1       6.180   3.123  24.748  0.00  0.00    +0.165 A 
ATOM     20  C   UNL     1       7.228   3.976  24.446  0.00  0.00    +0.147 A 
ATOM     21  C   UNL     1       7.398   4.322  23.098  0.00  0.00    +0.147 A 
ATOM     22  N   UNL     1       6.496   3.869  22.201  0.00  0.00    -0.219 NA
ATOM     23  C   UNL     1       5.505   3.059  22.643  0.00  0.00    +0.225 A 
ATOM     24  N   UNL     1       7.901   4.357  25.583  0.00  0.00    -0.231 NA
ATOM     25  N   UNL     1       5.272   2.615  23.896  0.00  0.00    -0.216 NA
ATOM     26  C   UNL     1       7.270   3.741  26.559  0.00  0.00    +0.201 A 
BRANCH  21  27
ATOM     27  N   UNL     1       8.431   5.140  22.660  0.00  0.00    -0.341 N 
ATOM     28  H   UNL     1       8.100   6.040  22.342  0.00  0.00    +0.144 HD
ATOM     29  H   UNL     1       9.238   5.120  23.275  0.00  0.00    +0.144 HD
ENDBRANCH  21  27
ENDBRANCH  17  18
ENDBRANCH  16  17
ENDBRANCH  14  16
ENDBRANCH  13  14
ENDBRANCH   1  13
BRANCH   1  30
ATOM     30  O   UNL     1       7.854  -0.037  24.982  0.00  0.00    -0.431 OA
BRANCH  30  31
ATOM     31  C   UNL     1       8.575   0.618  24.020  0.00  0.00    +0.129 A 
ATOM     32  C   UNL     1       9.673   1.355  24.454  0.00  0.00    +0.046 A 
ATOM     33  C   UNL     1      10.481   2.007  23.524  0.00  0.00    +0.004 A 
ATOM     34  C   UNL     1      10.178   1.931  22.165  0.00  0.00    +0.000 A 
ATOM     35  C   UNL     1       9.048   1.230  21.740  0.00  0.00    +0.004 A 
ATOM     36  C   UNL     1       8.236   0.578  22.670  0.00  0.00    +0.046 A 
ENDBRANCH  30  31
ENDBRANCH   1  30
TORSDOF 13
ENDMDL
MODEL 7
REMARK VINA RESULT:      -6.3      2.189      5.058
REMARK  Name = 
REMARK  17 active torsions:
REMARK  status: ('A' for Active; 'I' for Inactive)
REMARK    1  A    between atoms: C_1  and  C_2
REMARK    2  A    between atoms: C_2  and  C_4
REMARK    3  A    between atoms: C_2  and  O_15
REMARK    4  A    between atoms: C_4  and  N_5
REMARK    5  A    between atoms: C_9  and  N_14
REMARK    6  A    between atoms: O_15  and  C_16
REMARK    7  A    between atoms: C_16  and  P_17
REMARK    8  A    between atoms: P_17  and  N_19
REMARK    9  A    between atoms: P_17  and  O_29
REMARK   10  A    between atoms: N_19  and  C_20
REMARK   11  A    between atoms: C_20  and  C_22
REMARK   12  A    between atoms: C_20  and  C_23
REMARK   13  A    between atoms: C_23  and  O_25
REMARK   14  A    between atoms: O_25  and  C_26
REMARK   15  A    between atoms: C_26  and  C_27
REMARK   16  A    between atoms: C_26  and  C_28
REMARK   17  A    between atoms: O_29  and  C_30
REMARK                            x       y       z     vdW  Elec       q    Type
REMARK                         _______ _______ _______ _____ _____    ______ ____
ROOT
ATOM      1  P   UNL     1       8.147  -4.837  24.871  0.00  0.00    +0.345 P 
ATOM      2  O   UNL     1       9.469  -5.537  24.475  0.00  0.00    -0.257 OA
ENDROOT
BRANCH   1   3
ATOM      3  N   UNL     1       7.661  -4.690  23.221  0.00  0.00    -0.221 NA
ATOM      4  H   UNL     1       7.820  -5.576  22.748  0.00  0.00    +0.133 HD
BRANCH   3   5
ATOM      5  C   UNL     1       6.227  -4.338  22.976  0.00  0.00    +0.169 C 
ATOM      6  C   UNL     1       6.076  -2.993  22.277  0.00  0.00    +0.036 C 
BRANCH   5   7
ATOM      7  C   UNL     1       5.547  -5.416  22.117  0.00  0.00    +0.325 C 
ATOM      8  O   UNL     1       6.078  -6.024  21.199  0.00  0.00    -0.249 OA
BRANCH   7   9
ATOM      9  O   UNL     1       4.257  -5.611  22.537  0.00  0.00    -0.461 OA
BRANCH   9  10
ATOM     10  C   UNL     1       4.027  -5.551  23.959  0.00  0.00    +0.170 C 
ATOM     11  C   UNL     1       4.162  -6.973  24.503  0.00  0.00    +0.052 C 
ATOM     12  C   UNL     1       2.634  -5.009  24.272  0.00  0.00    +0.052 C 
ENDBRANCH   9  10
ENDBRANCH   7   9
ENDBRANCH   5   7
ENDBRANCH   3   5
ENDBRANCH   1   3
BRANCH   1  13
ATOM     13  C   UNL     1       9.036  -3.189  25.275  0.00  0.00    +0.286 C 
BRANCH  13  14
ATOM     14  O   UNL     1       9.741  -2.869  24.071  0.00  0.00    -0.363 OA
BRANCH  14  16
ATOM     15  C   UNL     1      10.262  -1.376  22.279  0.00  0.00    +0.040 C 
ATOM     16  C   UNL     1       9.425  -1.580  23.542  0.00  0.00    +0.136 C 
BRANCH  16  17
ATOM     17  C   UNL     1       9.629  -0.468  24.585  0.00  0.00    +0.156 C 
BRANCH  17  18
ATOM     18  N   UNL     1       9.498   0.876  24.063  0.00  0.00    -0.312 N 
ATOM     19  C   UNL     1       8.346   1.462  23.625  0.00  0.00    +0.165 A 
ATOM     20  C   UNL     1       8.729   2.725  23.204  0.00  0.00    +0.147 A 
ATOM     21  C   UNL     1       7.729   3.547  22.667  0.00  0.00    +0.147 A 
ATOM     22  N   UNL     1       6.457   3.092  22.664  0.00  0.00    -0.219 NA
ATOM     23  C   UNL     1       6.224   1.843  23.130  0.00  0.00    +0.225 A 
ATOM     24  N   UNL     1      10.067   2.941  23.439  0.00  0.00    -0.231 NA
ATOM     25  N   UNL     1       7.105   0.943  23.617  0.00  0.00    -0.216 NA
ATOM     26  C   UNL     1      10.487   1.824  23.991  0.00  0.00    +0.201 A 
BRANCH  21  27
ATOM     27  N   UNL     1       7.989   4.820  22.177  0.00  0.00    -0.341 N 
ATOM     28  H   UNL     1       8.927   4.908  21.813  0.00  0.00    +0.144 HD
ATOM     29  H   UNL     1       7.226   5.192  21.621  0.00  0.00    +0.144 HD
ENDBRANCH  21  27
ENDBRANCH  17  18
ENDBRANCH  16  17
ENDBRANCH  14  16
ENDBRANCH  13  14
ENDBRANCH   1  13
BRANCH   1  30
ATOM     30  O   UNL     1       6.669  -4.054  25.314  0.00  0.00    -0.431 OA
BRANCH  30  31
ATOM     31  C   UNL     1       6.147  -4.331  26.549  0.00  0.00    +0.129 A 
ATOM     32  C   UNL     1       5.121  -3.503  26.995  0.00  0.00    +0.046 A 
ATOM     33  C   UNL     1       4.509  -3.757  28.222  0.00  0.00    +0.004 A 
ATOM     34  C   UNL     1       4.937  -4.829  29.004  0.00  0.00    +0.000 A 
ATOM     35  C   UNL     1       5.999  -5.627  28.574  0.00  0.00    +0.004 A 
ATOM     36  C   UNL     1       6.614  -5.373  27.346  0.00  0.00    +0.046 A 
ENDBRANCH  30  31
ENDBRANCH   1  30
TORSDOF 13
ENDMDL
MODEL 8
REMARK VINA RESULT:      -6.3      2.000      4.032
REMARK  Name = 
REMARK  17 active torsions:
REMARK  status: ('A' for Active; 'I' for Inactive)
REMARK    1  A    between atoms: C_1  and  C_2
REMARK    2  A    between atoms: C_2  and  C_4
REMARK    3  A    between atoms: C_2  and  O_15
REMARK    4  A    between atoms: C_4  and  N_5
REMARK    5  A    between atoms: C_9  and  N_14
REMARK    6  A    between atoms: O_15  and  C_16
REMARK    7  A    between atoms: C_16  and  P_17
REMARK    8  A    between atoms: P_17  and  N_19
REMARK    9  A    between atoms: P_17  and  O_29
REMARK   10  A    between atoms: N_19  and  C_20
REMARK   11  A    between atoms: C_20  and  C_22
REMARK   12  A    between atoms: C_20  and  C_23
REMARK   13  A    between atoms: C_23  and  O_25
REMARK   14  A    between atoms: O_25  and  C_26
REMARK   15  A    between atoms: C_26  and  C_27
REMARK   16  A    between atoms: C_26  and  C_28
REMARK   17  A    between atoms: O_29  and  C_30
REMARK                            x       y       z     vdW  Elec       q    Type
REMARK                         _______ _______ _______ _____ _____    ______ ____
ROOT
ATOM      1  P   UNL     1       7.098  -2.229  25.335  0.00  0.00    +0.345 P 
ATOM      2  O   UNL     1       6.304  -1.099  26.035  0.00  0.00    -0.257 OA
ENDROOT
BRANCH   1   3
ATOM      3  N   UNL     1       7.094  -3.198  26.764  0.00  0.00    -0.221 NA
ATOM      4  H   UNL     1       6.640  -2.683  27.514  0.00  0.00    +0.133 HD
BRANCH   3   5
ATOM      5  C   UNL     1       6.388  -4.514  26.676  0.00  0.00    +0.169 C 
ATOM      6  C   UNL     1       6.913  -5.518  27.695  0.00  0.00    +0.036 C 
BRANCH   5   7
ATOM      7  C   UNL     1       4.879  -4.332  26.899  0.00  0.00    +0.325 C 
ATOM      8  O   UNL     1       4.367  -3.439  27.558  0.00  0.00    -0.249 OA
BRANCH   7   9
ATOM      9  O   UNL     1       4.182  -5.310  26.238  0.00  0.00    -0.461 OA
BRANCH   9  10
ATOM     10  C   UNL     1       4.468  -5.470  24.834  0.00  0.00    +0.170 C 
ATOM     11  C   UNL     1       3.454  -4.625  24.064  0.00  0.00    +0.052 C 
ATOM     12  C   UNL     1       4.353  -6.931  24.408  0.00  0.00    +0.052 C 
ENDBRANCH   9  10
ENDBRANCH   7   9
ENDBRANCH   5   7
ENDBRANCH   3   5
ENDBRANCH   1   3
BRANCH   1  13
ATOM     13  C   UNL     1       8.740  -1.243  25.409  0.00  0.00    +0.286 C 
BRANCH  13  14
ATOM     14  O   UNL     1       8.978  -0.862  24.050  0.00  0.00    -0.363 OA
BRANCH  14  16
ATOM     15  C   UNL     1      10.753   0.678  24.484  0.00  0.00    +0.040 C 
ATOM     16  C   UNL     1       9.353   0.508  23.893  0.00  0.00    +0.136 C 
BRANCH  16  17
ATOM     17  C   UNL     1       8.318   1.460  24.516  0.00  0.00    +0.156 C 
BRANCH  17  18
ATOM     18  N   UNL     1       7.853   2.506  23.628  0.00  0.00    -0.312 N 
ATOM     19  C   UNL     1       8.315   3.789  23.584  0.00  0.00    +0.165 A 
ATOM     20  C   UNL     1       7.554   4.405  22.604  0.00  0.00    +0.147 A 
ATOM     21  C   UNL     1       7.802   5.764  22.367  0.00  0.00    +0.147 A 
ATOM     22  N   UNL     1       8.805   6.361  23.047  0.00  0.00    -0.219 NA
ATOM     23  C   UNL     1       9.483   5.629  23.961  0.00  0.00    +0.225 A 
ATOM     24  N   UNL     1       6.694   3.512  22.010  0.00  0.00    -0.231 NA
ATOM     25  N   UNL     1       9.302   4.338  24.313  0.00  0.00    -0.216 NA
ATOM     26  C   UNL     1       6.929   2.373  22.623  0.00  0.00    +0.201 A 
BRANCH  21  27
ATOM     27  N   UNL     1       7.084   6.506  21.438  0.00  0.00    -0.341 N 
ATOM     28  H   UNL     1       6.238   6.895  21.828  0.00  0.00    +0.144 HD
ATOM     29  H   UNL     1       7.674   7.113  20.879  0.00  0.00    +0.144 HD
ENDBRANCH  21  27
ENDBRANCH  17  18
ENDBRANCH  16  17
ENDBRANCH  14  16
ENDBRANCH  13  14
ENDBRANCH   1  13
BRANCH   1  30
ATOM     30  O   UNL     1       7.985  -3.491  24.553  0.00  0.00    -0.431 OA
BRANCH  30  31
ATOM     31  C   UNL     1       7.444  -4.044  23.423  0.00  0.00    +0.129 A 
ATOM     32  C   UNL     1       7.742  -5.381  23.175  0.00  0.00    +0.046 A 
ATOM     33  C   UNL     1       7.185  -6.021  22.069  0.00  0.00    +0.004 A 
ATOM     34  C   UNL     1       6.346  -5.316  21.207  0.00  0.00    +0.000 A 
ATOM     35  C   UNL     1       6.090  -3.963  21.433  0.00  0.00    +0.004 A 
ATOM     36  C   UNL     1       6.648  -3.319  22.540  0.00  0.00    +0.046 A 
ENDBRANCH  30  31
ENDBRANCH   1  30
TORSDOF 13
ENDMDL
MODEL 9
REMARK VINA RESULT:      -6.2      1.897      4.403
REMARK  Name = 
REMARK  17 active torsions:
REMARK  status: ('A' for Active; 'I' for Inactive)
REMARK    1  A    between atoms: C_1  and  C_2
REMARK    2  A    between atoms: C_2  and  C_4
REMARK    3  A    between atoms: C_2  and  O_15
REMARK    4  A    between atoms: C_4  and  N_5
REMARK    5  A    between atoms: C_9  and  N_14
REMARK    6  A    between atoms: O_15  and  C_16
REMARK    7  A    between atoms: C_16  and  P_17
REMARK    8  A    between atoms: P_17  and  N_19
REMARK    9  A    between atoms: P_17  and  O_29
REMARK   10  A    between atoms: N_19  and  C_20
REMARK   11  A    between atoms: C_20  and  C_22
REMARK   12  A    between atoms: C_20  and  C_23
REMARK   13  A    between atoms: C_23  and  O_25
REMARK   14  A    between atoms: O_25  and  C_26
REMARK   15  A    between atoms: C_26  and  C_27
REMARK   16  A    between atoms: C_26  and  C_28
REMARK   17  A    between atoms: O_29  and  C_30
REMARK                            x       y       z     vdW  Elec       q    Type
REMARK                         _______ _______ _______ _____ _____    ______ ____
ROOT
ATOM      1  P   UNL     1       8.466  -3.520  24.614  0.00  0.00    +0.345 P 
ATOM      2  O   UNL     1       9.954  -3.568  24.187  0.00  0.00    -0.257 OA
ENDROOT
BRANCH   1   3
ATOM      3  N   UNL     1       7.931  -3.686  22.981  0.00  0.00    -0.221 NA
ATOM      4  H   UNL     1       8.408  -4.475  22.553  0.00  0.00    +0.133 HD
BRANCH   3   5
ATOM      5  C   UNL     1       6.468  -3.925  22.780  0.00  0.00    +0.169 C 
ATOM      6  C   UNL     1       5.840  -2.900  21.843  0.00  0.00    +0.036 C 
BRANCH   5   7
ATOM      7  C   UNL     1       6.226  -5.329  22.204  0.00  0.00    +0.325 C 
ATOM      8  O   UNL     1       7.098  -6.083  21.797  0.00  0.00    -0.249 OA
BRANCH   7   9
ATOM      9  O   UNL     1       4.887  -5.625  22.224  0.00  0.00    -0.461 OA
BRANCH   9  10
ATOM     10  C   UNL     1       4.229  -5.544  23.504  0.00  0.00    +0.170 C 
ATOM     11  C   UNL     1       4.580  -6.814  24.278  0.00  0.00    +0.052 C 
ATOM     12  C   UNL     1       2.715  -5.440  23.342  0.00  0.00    +0.052 C 
ENDBRANCH   9  10
ENDBRANCH   7   9
ENDBRANCH   5   7
ENDBRANCH   3   5
ENDBRANCH   1   3
BRANCH   1  13
ATOM     13  C   UNL     1       8.525  -1.631  24.929  0.00  0.00    +0.286 C 
BRANCH  13  14
ATOM     14  O   UNL     1       8.939  -1.082  23.673  0.00  0.00    -0.363 OA
BRANCH  14  16
ATOM     15  C   UNL     1      10.601   0.404  24.535  0.00  0.00    +0.040 C 
ATOM     16  C   UNL     1       9.299   0.299  23.739  0.00  0.00    +0.136 C 
BRANCH  16  17
ATOM     17  C   UNL     1       8.165   1.158  24.324  0.00  0.00    +0.156 C 
BRANCH  17  18
ATOM     18  N   UNL     1       7.750   2.260  23.480  0.00  0.00    -0.312 N 
ATOM     19  C   UNL     1       8.226   3.538  23.531  0.00  0.00    +0.165 A 
ATOM     20  C   UNL     1       7.515   4.219  22.557  0.00  0.00    +0.147 A 
ATOM     21  C   UNL     1       7.786   5.587  22.412  0.00  0.00    +0.147 A 
ATOM     22  N   UNL     1       8.765   6.131  23.168  0.00  0.00    -0.219 NA
ATOM     23  C   UNL     1       9.395   5.338  24.065  0.00  0.00    +0.225 A 
ATOM     24  N   UNL     1       6.673   3.373  21.875  0.00  0.00    -0.231 NA
ATOM     25  N   UNL     1       9.186   4.031  24.333  0.00  0.00    -0.216 NA
ATOM     26  C   UNL     1       6.870   2.197  22.430  0.00  0.00    +0.201 A 
BRANCH  21  27
ATOM     27  N   UNL     1       7.117   6.390  21.497  0.00  0.00    -0.341 N 
ATOM     28  H   UNL     1       6.114   6.341  21.605  0.00  0.00    +0.144 HD
ATOM     29  H   UNL     1       7.541   7.306  21.394  0.00  0.00    +0.144 HD
ENDBRANCH  21  27
ENDBRANCH  17  18
ENDBRANCH  16  17
ENDBRANCH  14  16
ENDBRANCH  13  14
ENDBRANCH   1  13
BRANCH   1  30
ATOM     30  O   UNL     1       6.805  -3.467  25.092  0.00  0.00    -0.431 OA
BRANCH  30  31
ATOM     31  C   UNL     1       6.446  -4.142  26.228  0.00  0.00    +0.129 A 
ATOM     32  C   UNL     1       5.204  -3.832  26.774  0.00  0.00    +0.046 A 
ATOM     33  C   UNL     1       4.754  -4.516  27.903  0.00  0.00    +0.004 A 
ATOM     34  C   UNL     1       5.555  -5.495  28.488  0.00  0.00    +0.000 A 
ATOM     35  C   UNL     1       6.820  -5.767  27.965  0.00  0.00    +0.004 A 
ATOM     36  C   UNL     1       7.274  -5.083  26.835  0.00  0.00    +0.046 A 
ENDBRANCH  30  31
ENDBRANCH   1  30
TORSDOF 13
ENDMDL
