MODEL 1
REMARK VINA RESULT:      -6.6      0.000      0.000
REMARK  Name = 
REMARK  5 active torsions:
REMARK  status: ('A' for Active; 'I' for Inactive)
REMARK    1  A    between atoms: C_1  and  C_2
REMARK    2  A    between atoms: N_4  and  C_10
REMARK    3  A    between atoms: C_12  and  O_17
REMARK    4  A    between atoms: C_13  and  C_15
REMARK    5  A    between atoms: C_15  and  O_16
REMARK                            x       y       z     vdW  Elec       q    Type
REMARK                         _______ _______ _______ _____ _____    ______ ____
ROOT
ATOM      1  C   UNL     1       9.196  -2.519  24.038  0.00  0.00    +0.260 C 
ATOM      2  O   UNL     1       9.121  -1.113  24.361  0.00  0.00    -0.345 OA
ATOM      3  C   UNL     1       8.805  -0.409  23.132  0.00  0.00    +0.178 C 
ATOM      4  C   UNL     1       8.886  -1.433  21.985  0.00  0.00    +0.184 C 
ATOM      5  C   UNL     1       8.497  -2.709  22.693  0.00  0.00    +0.246 C 
ATOM      6  F   UNL     1       7.142  -2.720  22.854  0.00  0.00    -0.238 F 
ENDROOT
BRANCH   1  15
ATOM      7  C   UNL     1       5.659  -3.594  27.392  0.00  0.00    +0.051 C 
ATOM      8  C   UNL     1       6.950  -3.846  26.686  0.00  0.00    +0.030 A 
ATOM      9  C   UNL     1       7.684  -5.084  27.044  0.00  0.00    +0.257 A 
ATOM     10  O   UNL     1       7.259  -5.872  27.881  0.00  0.00    -0.267 OA
ATOM     11  N   UNL     1       8.848  -5.301  26.374  0.00  0.00    -0.275 N 
ATOM     12  H   UNL     1       9.346  -6.153  26.580  0.00  0.00    +0.173 HD
ATOM     13  C   UNL     1       9.359  -4.521  25.374  0.00  0.00    +0.331 A 
ATOM     14  O   UNL     1      10.365  -4.874  24.761  0.00  0.00    -0.246 OA
ATOM     15  N   UNL     1       8.672  -3.346  25.115  0.00  0.00    -0.271 N 
ATOM     16  C   UNL     1       7.482  -3.047  25.751  0.00  0.00    +0.102 A 
ENDBRANCH   1  15
BRANCH   4  17
ATOM     17  O   UNL     1      10.179  -1.603  21.401  0.00  0.00    -0.386 OA
ATOM     18  H   UNL     1      10.098  -2.133  20.579  0.00  0.00    +0.210 HD
ENDBRANCH   4  17
BRANCH   3  19
ATOM     19  C   UNL     1       9.755   0.778  23.005  0.00  0.00    +0.190 C 
BRANCH  19  20
ATOM     20  O   UNL     1       9.769   1.230  21.646  0.00  0.00    -0.392 OA
ATOM     21  H   UNL     1       9.922   0.429  21.105  0.00  0.00    +0.210 HD
ENDBRANCH  19  20
ENDBRANCH   3  19
TORSDOF 4
ENDMDL
MODEL 2
REMARK VINA RESULT:      -6.1      2.481      3.192
REMARK  Name = 
REMARK  5 active torsions:
REMARK  status: ('A' for Active; 'I' for Inactive)
REMARK    1  A    between atoms: C_1  and  C_2
REMARK    2  A    between atoms: N_4  and  C_10
REMARK    3  A    between atoms: C_12  and  O_17
REMARK    4  A    between atoms: C_13  and  C_15
REMARK    5  A    between atoms: C_15  and  O_16
REMARK                            x       y       z     vdW  Elec       q    Type
REMARK                         _______ _______ _______ _____ _____    ______ ____
ROOT
ATOM      1  C   UNL     1       8.331  -1.263  23.655  0.00  0.00    +0.260 C 
ATOM      2  O   UNL     1       8.195  -0.634  22.362  0.00  0.00    -0.345 OA
ATOM      3  C   UNL     1       9.458   0.018  22.071  0.00  0.00    +0.178 C 
ATOM      4  C   UNL     1      10.320  -0.067  23.343  0.00  0.00    +0.184 C 
ATOM      5  C   UNL     1       9.825  -1.355  23.956  0.00  0.00    +0.246 C 
ATOM      6  F   UNL     1      10.387  -2.401  23.283  0.00  0.00    -0.238 F 
ENDROOT
BRANCH   1  15
ATOM      7  C   UNL     1       7.035  -5.634  21.622  0.00  0.00    +0.051 C 
ATOM      8  C   UNL     1       7.046  -4.624  22.721  0.00  0.00    +0.030 A 
ATOM      9  C   UNL     1       6.375  -5.001  23.989  0.00  0.00    +0.257 A 
ATOM     10  O   UNL     1       5.831  -6.089  24.137  0.00  0.00    -0.267 OA
ATOM     11  N   UNL     1       6.414  -4.072  24.982  0.00  0.00    -0.275 N 
ATOM     12  H   UNL     1       5.990  -4.321  25.863  0.00  0.00    +0.173 HD
ATOM     13  C   UNL     1       7.060  -2.867  24.933  0.00  0.00    +0.331 A 
ATOM     14  O   UNL     1       7.122  -2.154  25.932  0.00  0.00    -0.246 OA
ATOM     15  N   UNL     1       7.622  -2.533  23.711  0.00  0.00    -0.271 N 
ATOM     16  C   UNL     1       7.625  -3.418  22.650  0.00  0.00    +0.102 A 
ENDBRANCH   1  15
BRANCH   4  17
ATOM     17  O   UNL     1      10.139   0.993  24.283  0.00  0.00    -0.386 OA
ATOM     18  H   UNL     1       9.550   1.676  23.894  0.00  0.00    +0.210 HD
ENDBRANCH   4  17
BRANCH   3  19
ATOM     19  C   UNL     1       9.162   1.434  21.586  0.00  0.00    +0.190 C 
BRANCH  19  20
ATOM     20  O   UNL     1      10.360   2.217  21.650  0.00  0.00    -0.392 OA
ATOM     21  H   UNL     1      10.561   2.311  22.603  0.00  0.00    +0.210 HD
ENDBRANCH  19  20
ENDBRANCH   3  19
TORSDOF 4
ENDMDL
MODEL 3
REMARK VINA RESULT:      -6.0      2.668      3.773
REMARK  Name = 
REMARK  5 active torsions:
REMARK  status: ('A' for Active; 'I' for Inactive)
REMARK    1  A    between atoms: C_1  and  C_2
REMARK    2  A    between atoms: N_4  and  C_10
REMARK    3  A    between atoms: C_12  and  O_17
REMARK    4  A    between atoms: C_13  and  C_15
REMARK    5  A    between atoms: C_15  and  O_16
REMARK                            x       y       z     vdW  Elec       q    Type
REMARK                         _______ _______ _______ _____ _____    ______ ____
ROOT
ATOM      1  C   UNL     1       8.478   0.298  23.126  0.00  0.00    +0.260 C 
ATOM      2  O   UNL     1       7.203   0.847  22.724  0.00  0.00    -0.345 OA
ATOM      3  C   UNL     1       7.476   1.901  21.767  0.00  0.00    +0.178 C 
ATOM      4  C   UNL     1       9.000   2.117  21.746  0.00  0.00    +0.184 C 
ATOM      5  C   UNL     1       9.504   0.734  22.083  0.00  0.00    +0.246 C 
ATOM      6  F   UNL     1       9.414  -0.045  20.966  0.00  0.00    -0.238 F 
ENDROOT
BRANCH   1  15
ATOM      7  C   UNL     1       6.612  -4.188  21.983  0.00  0.00    +0.051 C 
ATOM      8  C   UNL     1       7.509  -3.271  22.746  0.00  0.00    +0.030 A 
ATOM      9  C   UNL     1       8.456  -3.894  23.701  0.00  0.00    +0.257 A 
ATOM     10  O   UNL     1       8.507  -5.107  23.867  0.00  0.00    -0.267 OA
ATOM     11  N   UNL     1       9.276  -3.039  24.370  0.00  0.00    -0.275 N 
ATOM     12  H   UNL     1       9.949  -3.445  25.001  0.00  0.00    +0.173 HD
ATOM     13  C   UNL     1       9.343  -1.685  24.195  0.00  0.00    +0.331 A 
ATOM     14  O   UNL     1      10.202  -1.023  24.775  0.00  0.00    -0.246 OA
ATOM     15  N   UNL     1       8.401  -1.140  23.336  0.00  0.00    -0.271 N 
ATOM     16  C   UNL     1       7.529  -1.937  22.619  0.00  0.00    +0.102 A 
ENDBRANCH   1  15
BRANCH   4  17
ATOM     17  O   UNL     1       9.504   3.042  22.711  0.00  0.00    -0.386 OA
ATOM     18  H   UNL     1      10.327   3.453  22.369  0.00  0.00    +0.210 HD
ENDBRANCH   4  17
BRANCH   3  19
ATOM     19  C   UNL     1       6.656   3.126  22.161  0.00  0.00    +0.190 C 
BRANCH  19  20
ATOM     20  O   UNL     1       7.312   4.308  21.687  0.00  0.00    -0.392 OA
ATOM     21  H   UNL     1       8.050   3.992  21.127  0.00  0.00    +0.210 HD
ENDBRANCH  19  20
ENDBRANCH   3  19
TORSDOF 4
ENDMDL
MODEL 4
REMARK VINA RESULT:      -5.9      1.880      2.762
REMARK  Name = 
REMARK  5 active torsions:
REMARK  status: ('A' for Active; 'I' for Inactive)
REMARK    1  A    between atoms: C_1  and  C_2
REMARK    2  A    between atoms: N_4  and  C_10
REMARK    3  A    between atoms: C_12  and  O_17
REMARK    4  A    between atoms: C_13  and  C_15
REMARK    5  A    between atoms: C_15  and  O_16
REMARK                            x       y       z     vdW  Elec       q    Type
REMARK                         _______ _______ _______ _____ _____    ______ ____
ROOT
ATOM      1  C   UNL     1       9.465   0.084  23.470  0.00  0.00    +0.260 C 
ATOM      2  O   UNL     1       9.353   1.217  24.359  0.00  0.00    -0.345 OA
ATOM      3  C   UNL     1       8.787   2.309  23.591  0.00  0.00    +0.178 C 
ATOM      4  C   UNL     1       8.740   1.856  22.120  0.00  0.00    +0.184 C 
ATOM      5  C   UNL     1       8.562   0.364  22.270  0.00  0.00    +0.246 C 
ATOM      6  F   UNL     1       7.258   0.111  22.582  0.00  0.00    -0.238 F 
ENDROOT
BRANCH   1  15
ATOM      7  C   UNL     1       6.828  -2.609  26.742  0.00  0.00    +0.051 C 
ATOM      8  C   UNL     1       7.889  -2.432  25.708  0.00  0.00    +0.030 A 
ATOM      9  C   UNL     1       8.630  -3.645  25.287  0.00  0.00    +0.257 A 
ATOM     10  O   UNL     1       8.390  -4.749  25.762  0.00  0.00    -0.267 OA
ATOM     11  N   UNL     1       9.579  -3.461  24.330  0.00  0.00    -0.275 N 
ATOM     12  H   UNL     1      10.072  -4.279  24.007  0.00  0.00    +0.173 HD
ATOM     13  C   UNL     1       9.861  -2.286  23.691  0.00  0.00    +0.331 A 
ATOM     14  O   UNL     1      10.665  -2.260  22.761  0.00  0.00    -0.246 OA
ATOM     15  N   UNL     1       9.187  -1.168  24.158  0.00  0.00    -0.271 N 
ATOM     16  C   UNL     1       8.208  -1.267  25.128  0.00  0.00    +0.102 A 
ENDBRANCH   1  15
BRANCH   4  17
ATOM     17  O   UNL     1       9.924   2.107  21.360  0.00  0.00    -0.386 OA
ATOM     18  H   UNL     1      10.712   1.900  21.907  0.00  0.00    +0.210 HD
ENDBRANCH   4  17
BRANCH   3  19
ATOM     19  C   UNL     1       9.621   3.559  23.854  0.00  0.00    +0.190 C 
BRANCH  19  20
ATOM     20  O   UNL     1      10.994   3.285  23.553  0.00  0.00    -0.392 OA
ATOM     21  H   UNL     1      11.347   2.820  24.339  0.00  0.00    +0.210 HD
ENDBRANCH  19  20
ENDBRANCH   3  19
TORSDOF 4
ENDMDL
MODEL 5
REMARK VINA RESULT:      -5.8      2.582      5.635
REMARK  Name = 
REMARK  5 active torsions:
REMARK  status: ('A' for Active; 'I' for Inactive)
REMARK    1  A    between atoms: C_1  and  C_2
REMARK    2  A    between atoms: N_4  and  C_10
REMARK    3  A    between atoms: C_12  and  O_17
REMARK    4  A    between atoms: C_13  and  C_15
REMARK    5  A    between atoms: C_15  and  O_16
REMARK                            x       y       z     vdW  Elec       q    Type
REMARK                         _______ _______ _______ _____ _____    ______ ____
ROOT
ATOM      1  C   UNL     1       8.439  -2.912  22.975  0.00  0.00    +0.260 C 
ATOM      2  O   UNL     1       7.164  -3.459  22.573  0.00  0.00    -0.345 OA
ATOM      3  C   UNL     1       6.781  -4.432  23.578  0.00  0.00    +0.178 C 
ATOM      4  C   UNL     1       7.983  -4.610  24.523  0.00  0.00    +0.184 C 
ATOM      5  C   UNL     1       8.625  -3.244  24.454  0.00  0.00    +0.246 C 
ATOM      6  F   UNL     1       7.904  -2.386  25.232  0.00  0.00    -0.238 F 
ENDROOT
BRANCH   1  15
ATOM      7  C   UNL     1       6.491   1.681  22.821  0.00  0.00    +0.051 C 
ATOM      8  C   UNL     1       7.589   0.690  22.621  0.00  0.00    +0.030 A 
ATOM      9  C   UNL     1       8.899   1.216  22.167  0.00  0.00    +0.257 A 
ATOM     10  O   UNL     1       9.082   2.410  21.959  0.00  0.00    -0.267 OA
ATOM     11  N   UNL     1       9.888   0.296  22.010  0.00  0.00    -0.275 N 
ATOM     12  H   UNL     1      10.795   0.638  21.732  0.00  0.00    +0.173 HD
ATOM     13  C   UNL     1       9.798  -1.040  22.289  0.00  0.00    +0.331 A 
ATOM     14  O   UNL     1      10.792  -1.760  22.216  0.00  0.00    -0.246 OA
ATOM     15  N   UNL     1       8.541  -1.496  22.654  0.00  0.00    -0.271 N 
ATOM     16  C   UNL     1       7.481  -0.629  22.835  0.00  0.00    +0.102 A 
ENDBRANCH   1  15
BRANCH   4  17
ATOM     17  O   UNL     1       8.941  -5.592  24.125  0.00  0.00    -0.386 OA
ATOM     18  H   UNL     1       8.923  -5.687  23.147  0.00  0.00    +0.210 HD
ENDBRANCH   4  17
BRANCH   3  19
ATOM     19  C   UNL     1       6.330  -5.702  22.864  0.00  0.00    +0.190 C 
BRANCH  19  20
ATOM     20  O   UNL     1       7.241  -5.996  21.798  0.00  0.00    -0.392 OA
ATOM     21  H   UNL     1       7.206  -5.221  21.202  0.00  0.00    +0.210 HD
ENDBRANCH  19  20
ENDBRANCH   3  19
TORSDOF 4
ENDMDL
MODEL 6
REMARK VINA RESULT:      -5.8      3.311      3.602
REMARK  Name = 
REMARK  5 active torsions:
REMARK  status: ('A' for Active; 'I' for Inactive)
REMARK    1  A    between atoms: C_1  and  C_2
REMARK    2  A    between atoms: N_4  and  C_10
REMARK    3  A    between atoms: C_12  and  O_17
REMARK    4  A    between atoms: C_13  and  C_15
REMARK    5  A    between atoms: C_15  and  O_16
REMARK                            x       y       z     vdW  Elec       q    Type
REMARK                         _______ _______ _______ _____ _____    ______ ____
ROOT
ATOM      1  C   UNL     1       7.129  -3.856  23.219  0.00  0.00    +0.260 C 
ATOM      2  O   UNL     1       8.120  -3.547  24.224  0.00  0.00    -0.345 OA
ATOM      3  C   UNL     1       8.304  -2.108  24.213  0.00  0.00    +0.178 C 
ATOM      4  C   UNL     1       7.522  -1.557  23.006  0.00  0.00    +0.184 C 
ATOM      5  C   UNL     1       6.395  -2.556  22.896  0.00  0.00    +0.246 C 
ATOM      6  F   UNL     1       5.470  -2.276  23.859  0.00  0.00    -0.238 F 
ENDROOT
BRANCH   1  15
ATOM      7  C   UNL     1       4.948  -6.582  26.787  0.00  0.00    +0.051 C 
ATOM      8  C   UNL     1       5.219  -6.215  25.366  0.00  0.00    +0.030 A 
ATOM      9  C   UNL     1       4.468  -6.955  24.323  0.00  0.00    +0.257 A 
ATOM     10  O   UNL     1       3.660  -7.833  24.605  0.00  0.00    -0.267 OA
ATOM     11  N   UNL     1       4.718  -6.590  23.037  0.00  0.00    -0.275 N 
ATOM     12  H   UNL     1       4.194  -7.060  22.315  0.00  0.00    +0.173 HD
ATOM     13  C   UNL     1       5.541  -5.576  22.633  0.00  0.00    +0.331 A 
ATOM     14  O   UNL     1       5.606  -5.261  21.446  0.00  0.00    -0.246 OA
ATOM     15  N   UNL     1       6.266  -4.952  23.636  0.00  0.00    -0.271 N 
ATOM     16  C   UNL     1       6.074  -5.263  24.969  0.00  0.00    +0.102 A 
ENDBRANCH   1  15
BRANCH   4  17
ATOM     17  O   UNL     1       8.237  -1.527  21.770  0.00  0.00    -0.386 OA
ATOM     18  H   UNL     1       7.791  -0.909  21.151  0.00  0.00    +0.210 HD
ENDBRANCH   4  17
BRANCH   3  19
ATOM     19  C   UNL     1       9.802  -1.820  24.196  0.00  0.00    +0.190 C 
BRANCH  19  20
ATOM     20  O   UNL     1      10.439  -2.677  23.242  0.00  0.00    -0.392 OA
ATOM     21  H   UNL     1      10.140  -2.362  22.365  0.00  0.00    +0.210 HD
ENDBRANCH  19  20
ENDBRANCH   3  19
TORSDOF 4
ENDMDL
MODEL 7
REMARK VINA RESULT:      -5.7      2.717      5.378
REMARK  Name = 
REMARK  5 active torsions:
REMARK  status: ('A' for Active; 'I' for Inactive)
REMARK    1  A    between atoms: C_1  and  C_2
REMARK    2  A    between atoms: N_4  and  C_10
REMARK    3  A    between atoms: C_12  and  O_17
REMARK    4  A    between atoms: C_13  and  C_15
REMARK    5  A    between atoms: C_15  and  O_16
REMARK                            x       y       z     vdW  Elec       q    Type
REMARK                         _______ _______ _______ _____ _____    ______ ____
ROOT
ATOM      1  C   UNL     1       7.828  -3.169  23.740  0.00  0.00    +0.260 C 
ATOM      2  O   UNL     1       7.943  -3.732  22.415  0.00  0.00    -0.345 OA
ATOM      3  C   UNL     1       6.648  -4.289  22.074  0.00  0.00    +0.178 C 
ATOM      4  C   UNL     1       5.774  -4.222  23.339  0.00  0.00    +0.184 C 
ATOM      5  C   UNL     1       6.337  -3.003  24.030  0.00  0.00    +0.246 C 
ATOM      6  F   UNL     1       5.850  -1.889  23.411  0.00  0.00    -0.238 F 
ENDROOT
BRANCH   1  15
ATOM      7  C   UNL     1       9.780   1.002  21.816  0.00  0.00    +0.051 C 
ATOM      8  C   UNL     1       9.505   0.048  22.930  0.00  0.00    +0.030 A 
ATOM      9  C   UNL     1       9.976   0.436  24.282  0.00  0.00    +0.257 A 
ATOM     10  O   UNL     1      10.568   1.490  24.485  0.00  0.00    -0.267 OA
ATOM     11  N   UNL     1       9.698  -0.441  25.284  0.00  0.00    -0.275 N 
ATOM     12  H   UNL     1       9.982  -0.181  26.216  0.00  0.00    +0.173 HD
ATOM     13  C   UNL     1       8.980  -1.599  25.165  0.00  0.00    +0.331 A 
ATOM     14  O   UNL     1       8.693  -2.259  26.161  0.00  0.00    -0.246 OA
ATOM     15  N   UNL     1       8.611  -1.950  23.875  0.00  0.00    -0.271 N 
ATOM     16  C   UNL     1       8.856  -1.117  22.800  0.00  0.00    +0.102 A 
ENDBRANCH   1  15
BRANCH   4  17
ATOM     17  O   UNL     1       5.878  -5.343  24.220  0.00  0.00    -0.386 OA
ATOM     18  H   UNL     1       6.806  -5.427  24.531  0.00  0.00    +0.210 HD
ENDBRANCH   4  17
BRANCH   3  19
ATOM     19  C   UNL     1       6.865  -5.691  21.513  0.00  0.00    +0.190 C 
BRANCH  19  20
ATOM     20  O   UNL     1       5.616  -6.392  21.494  0.00  0.00    -0.392 OA
ATOM     21  H   UNL     1       5.466  -6.686  22.416  0.00  0.00    +0.210 HD
ENDBRANCH  19  20
ENDBRANCH   3  19
TORSDOF 4
ENDMDL
MODEL 8
REMARK VINA RESULT:      -5.7      2.529      5.821
REMARK  Name = 
REMARK  5 active torsions:
REMARK  status: ('A' for Active; 'I' for Inactive)
REMARK    1  A    between atoms: C_1  and  C_2
REMARK    2  A    between atoms: N_4  and  C_10
REMARK    3  A    between atoms: C_12  and  O_17
REMARK    4  A    between atoms: C_13  and  C_15
REMARK    5  A    between atoms: C_15  and  O_16
REMARK                            x       y       z     vdW  Elec       q    Type
REMARK                         _______ _______ _______ _____ _____    ______ ____
ROOT
ATOM      1  C   UNL     1       7.468  -2.531  24.411  0.00  0.00    +0.260 C 
ATOM      2  O   UNL     1       8.826  -2.861  24.776  0.00  0.00    -0.345 OA
ATOM      3  C   UNL     1       9.020  -4.266  24.474  0.00  0.00    +0.178 C 
ATOM      4  C   UNL     1       7.646  -4.845  24.089  0.00  0.00    +0.184 C 
ATOM      5  C   UNL     1       6.971  -3.638  23.482  0.00  0.00    +0.246 C 
ATOM      6  F   UNL     1       7.456  -3.458  22.220  0.00  0.00    -0.238 F 
ENDROOT
BRANCH   1  15
ATOM      7  C   UNL     1       9.191   1.112  21.466  0.00  0.00    +0.051 C 
ATOM      8  C   UNL     1       8.208   0.520  22.421  0.00  0.00    +0.030 A 
ATOM      9  C   UNL     1       7.003   1.326  22.734  0.00  0.00    +0.257 A 
ATOM     10  O   UNL     1       6.814   2.430  22.238  0.00  0.00    -0.267 OA
ATOM     11  N   UNL     1       6.113   0.757  23.591  0.00  0.00    -0.275 N 
ATOM     12  H   UNL     1       5.272   1.275  23.793  0.00  0.00    +0.173 HD
ATOM     13  C   UNL     1       6.203  -0.496  24.131  0.00  0.00    +0.331 A 
ATOM     14  O   UNL     1       5.282  -0.950  24.808  0.00  0.00    -0.246 OA
ATOM     15  N   UNL     1       7.372  -1.188  23.858  0.00  0.00    -0.271 N 
ATOM     16  C   UNL     1       8.329  -0.682  22.999  0.00  0.00    +0.102 A 
ENDBRANCH   1  15
BRANCH   4  17
ATOM     17  O   UNL     1       6.852  -5.322  25.176  0.00  0.00    -0.386 OA
ATOM     18  H   UNL     1       6.873  -4.667  25.907  0.00  0.00    +0.210 HD
ENDBRANCH   4  17
BRANCH   3  19
ATOM     19  C   UNL     1       9.682  -4.926  25.680  0.00  0.00    +0.190 C 
BRANCH  19  20
ATOM     20  O   UNL     1       9.524  -6.347  25.589  0.00  0.00    -0.392 OA
ATOM     21  H   UNL     1       9.953  -6.711  26.390  0.00  0.00    +0.210 HD
ENDBRANCH  19  20
ENDBRANCH   3  19
TORSDOF 4
ENDMDL
MODEL 9
REMARK VINA RESULT:      -5.6      4.337      7.638
REMARK  Name = 
REMARK  5 active torsions:
REMARK  status: ('A' for Active; 'I' for Inactive)
REMARK    1  A    between atoms: C_1  and  C_2
REMARK    2  A    between atoms: N_4  and  C_10
REMARK    3  A    between atoms: C_12  and  O_17
REMARK    4  A    between atoms: C_13  and  C_15
REMARK    5  A    between atoms: C_15  and  O_16
REMARK                            x       y       z     vdW  Elec       q    Type
REMARK                         _______ _______ _______ _____ _____    ______ ____
ROOT
ATOM      1  C   UNL     1       8.625   1.688  22.914  0.00  0.00    +0.260 C 
ATOM      2  O   UNL     1       9.220   1.074  24.079  0.00  0.00    -0.345 OA
ATOM      3  C   UNL     1      10.072   0.000  23.607  0.00  0.00    +0.178 C 
ATOM      4  C   UNL     1       9.820  -0.153  22.096  0.00  0.00    +0.184 C 
ATOM      5  C   UNL     1       9.457   1.260  21.707  0.00  0.00    +0.246 C 
ATOM      6  F   UNL     1      10.603   1.997  21.628  0.00  0.00    -0.238 F 
ENDROOT
BRANCH   1  15
ATOM      7  C   UNL     1      10.400   6.097  24.440  0.00  0.00    +0.051 C 
ATOM      8  C   UNL     1       9.379   5.221  23.793  0.00  0.00    +0.030 A 
ATOM      9  C   UNL     1       8.205   5.890  23.184  0.00  0.00    +0.257 A 
ATOM     10  O   UNL     1       8.067   7.108  23.207  0.00  0.00    -0.267 OA
ATOM     11  N   UNL     1       7.299   5.073  22.584  0.00  0.00    -0.275 N 
ATOM     12  H   UNL     1       6.508   5.510  22.136  0.00  0.00    +0.173 HD
ATOM     13  C   UNL     1       7.407   3.716  22.442  0.00  0.00    +0.331 A 
ATOM     14  O   UNL     1       6.579   3.091  21.782  0.00  0.00    -0.246 OA
ATOM     15  N   UNL     1       8.489   3.128  23.077  0.00  0.00    -0.271 N 
ATOM     16  C   UNL     1       9.456   3.886  23.711  0.00  0.00    +0.102 A 
ENDBRANCH   1  15
BRANCH   4  17
ATOM     17  O   UNL     1       8.746  -1.023  21.735  0.00  0.00    -0.386 OA
ATOM     18  H   UNL     1       8.845  -1.877  22.211  0.00  0.00    +0.210 HD
ENDBRANCH   4  17
BRANCH   3  19
ATOM     19  C   UNL     1       9.777  -1.244  24.439  0.00  0.00    +0.190 C 
BRANCH  19  20
ATOM     20  O   UNL     1      10.168  -2.409  23.704  0.00  0.00    -0.392 OA
ATOM     21  H   UNL     1       9.342  -2.768  23.321  0.00  0.00    +0.210 HD
ENDBRANCH  19  20
ENDBRANCH   3  19
TORSDOF 4
ENDMDL
