MODEL 1
REMARK VINA RESULT:      -7.3      0.000      0.000
REMARK  Name = 
REMARK  17 active torsions:
REMARK  status: ('A' for Active; 'I' for Inactive)
REMARK    1  A    between atoms: C_1  and  C_2
REMARK    2  A    between atoms: C_2  and  C_3
REMARK    3  A    between atoms: C_2  and  C_4
REMARK    4  A    between atoms: C_2  and  N_5
REMARK    5  A    between atoms: C_6  and  C_8
REMARK    6  A    between atoms: N_20  and  C_21
REMARK    7  A    between atoms: C_21  and  C_22
REMARK    8  A    between atoms: C_22  and  C_24
REMARK    9  A    between atoms: C_22  and  O_55
REMARK   10  A    between atoms: C_24  and  C_26
REMARK   11  A    between atoms: C_24  and  N_33
REMARK   12  A    between atoms: C_26  and  C_27
REMARK   13  A    between atoms: C_34  and  C_36
REMARK   14  A    between atoms: C_36  and  C_38
REMARK   15  A    between atoms: C_36  and  N_42
REMARK   16  A    between atoms: C_38  and  C_39
REMARK   17  A    between atoms: C_43  and  C_45
REMARK                            x       y       z     vdW  Elec       q    Type
REMARK                         _______ _______ _______ _____ _____    ______ ____
ROOT
ATOM      1  C   UNL     1       5.058  -5.094  23.878  0.00  0.00    +0.107 C 
ENDROOT
BRANCH   1   2
ATOM      2  N   UNL     1       6.470  -4.945  24.209  0.00  0.00    -0.308 N 
ATOM      3  H   UNL     1       6.640  -4.570  25.141  0.00  0.00    +0.149 HD
ATOM      4  C   UNL     1       7.540  -5.295  23.438  0.00  0.00    +0.234 C 
ATOM      5  O   UNL     1       7.475  -5.997  22.436  0.00  0.00    -0.274 OA
BRANCH   4   6
ATOM      6  C   UNL     1       8.828  -4.635  23.945  0.00  0.00    +0.168 C 
BRANCH   6   7
ATOM      7  N   UNL     1       8.608  -3.216  24.140  0.00  0.00    -0.298 N 
ATOM      8  H   UNL     1       7.727  -2.881  24.525  0.00  0.00    +0.150 HD
ATOM      9  C   UNL     1       9.522  -2.300  23.669  0.00  0.00    +0.263 C 
ATOM     10  O   UNL     1      10.571  -2.634  23.130  0.00  0.00    -0.269 OA
BRANCH   9  11
ATOM     11  C   UNL     1       9.169  -0.862  23.837  0.00  0.00    +0.126 A 
ATOM     12  C   UNL     1       9.689  -0.198  24.933  0.00  0.00    +0.033 A 
ATOM     13  C   UNL     1       9.429   1.156  25.047  0.00  0.00    +0.012 A 
ATOM     14  C   UNL     1       8.669   1.795  24.064  0.00  0.00    +0.000 A 
ATOM     15  C   UNL     1       8.156   1.023  22.992  0.00  0.00    +0.072 A 
ATOM     16  C   UNL     1       7.406   1.678  22.024  0.00  0.00    +0.028 A 
ATOM     17  C   UNL     1       7.175   3.055  22.082  0.00  0.00    +0.002 A 
ATOM     18  C   UNL     1       7.693   3.805  23.132  0.00  0.00    +0.001 A 
ATOM     19  C   UNL     1       8.434   3.175  24.128  0.00  0.00    +0.010 A 
ATOM     20  N   UNL     1       8.390  -0.298  22.880  0.00  0.00    -0.242 NA
ENDBRANCH   9  11
ENDBRANCH   6   7
BRANCH   6  21
ATOM     21  C   UNL     1       9.284  -5.335  25.234  0.00  0.00    +0.127 C 
BRANCH  21  22
ATOM     22  C   UNL     1       8.599  -4.823  26.482  0.00  0.00    +0.213 C 
ATOM     23  N   UNL     1       7.894  -5.743  27.199  0.00  0.00    -0.329 N 
ATOM     24  H   UNL     1       7.513  -5.422  28.083  0.00  0.00    +0.145 HD
ATOM     25  H   UNL     1       8.074  -6.736  27.110  0.00  0.00    +0.145 HD
ATOM     26  O   UNL     1       8.644  -3.653  26.846  0.00  0.00    -0.276 OA
ENDBRANCH  21  22
ENDBRANCH   6  21
ENDBRANCH   4   6
ENDBRANCH   1   2
BRANCH   1  27
ATOM     27  C   UNL     1       4.531  -3.640  23.812  0.00  0.00    +0.149 C 
BRANCH  27  28
ATOM     28  O   UNL     1       5.380  -2.833  22.981  0.00  0.00    -0.389 OA
ATOM     29  H   UNL     1       5.653  -2.062  23.505  0.00  0.00    +0.210 HD
ENDBRANCH  27  28
BRANCH  27  30
ATOM     30  C   UNL     1       4.209  -2.958  25.156  0.00  0.00    +0.118 C 
BRANCH  30  32
ATOM     31  C   UNL     1       5.302  -2.549  27.364  0.00  0.00    +0.143 C 
ATOM     32  N   UNL     1       5.445  -2.534  25.876  0.00  0.00    -0.289 NA
ATOM     33  C   UNL     1       5.919  -1.180  25.449  0.00  0.00    +0.089 C 
ATOM     34  C   UNL     1       4.993  -0.028  25.894  0.00  0.00    +0.006 C 
ATOM     35  C   UNL     1       4.974   0.002  27.425  0.00  0.00    -0.005 C 
ATOM     36  C   UNL     1       4.067   1.111  27.970  0.00  0.00    +0.004 C 
ATOM     37  C   UNL     1       4.424   2.474  27.385  0.00  0.00    +0.000 C 
ATOM     38  C   UNL     1       4.456   2.437  25.861  0.00  0.00    +0.000 C 
ATOM     39  C   UNL     1       5.401   1.346  25.343  0.00  0.00    +0.005 C 
ATOM     40  C   UNL     1       4.514  -1.353  27.941  0.00  0.00    +0.032 C 
BRANCH  31  43
ATOM     41  N   UNL     1       3.398  -3.709  28.499  0.00  0.00    -0.309 N 
ATOM     42  H   UNL     1       2.983  -2.783  28.517  0.00  0.00    +0.149 HD
ATOM     43  C   UNL     1       4.645  -3.832  27.920  0.00  0.00    +0.231 C 
ATOM     44  O   UNL     1       5.198  -4.921  27.824  0.00  0.00    -0.274 OA
BRANCH  41  46
ATOM     45  C   UNL     1       3.448  -5.628  30.087  0.00  0.00    +0.031 C 
ATOM     46  C   UNL     1       2.647  -4.874  29.006  0.00  0.00    +0.026 C 
ATOM     47  C   UNL     1       1.333  -4.399  29.647  0.00  0.00    +0.031 C 
ATOM     48  C   UNL     1       2.298  -5.834  27.851  0.00  0.00    +0.031 C 
ENDBRANCH  41  46
ENDBRANCH  31  43
ENDBRANCH  30  32
ENDBRANCH  27  30
ENDBRANCH   1  27
BRANCH   1  49
ATOM     49  C   UNL     1       4.331  -6.086  24.811  0.00  0.00    +0.060 C 
BRANCH  49  50
ATOM     50  C   UNL     1       3.165  -6.836  24.205  0.00  0.00    -0.046 A 
ATOM     51  C   UNL     1       2.567  -6.383  23.018  0.00  0.00    +0.004 A 
ATOM     52  C   UNL     1       1.547  -7.114  22.408  0.00  0.00    +0.000 A 
ATOM     53  C   UNL     1       1.096  -8.292  22.993  0.00  0.00    +0.000 A 
ATOM     54  C   UNL     1       1.658  -8.735  24.191  0.00  0.00    +0.000 A 
ATOM     55  C   UNL     1       2.683  -8.006  24.799  0.00  0.00    +0.004 A 
ENDBRANCH  49  50
ENDBRANCH   1  49
TORSDOF 14
ENDMDL
MODEL 2
REMARK VINA RESULT:      -6.7      2.470      8.821
REMARK  Name = 
REMARK  17 active torsions:
REMARK  status: ('A' for Active; 'I' for Inactive)
REMARK    1  A    between atoms: C_1  and  C_2
REMARK    2  A    between atoms: C_2  and  C_3
REMARK    3  A    between atoms: C_2  and  C_4
REMARK    4  A    between atoms: C_2  and  N_5
REMARK    5  A    between atoms: C_6  and  C_8
REMARK    6  A    between atoms: N_20  and  C_21
REMARK    7  A    between atoms: C_21  and  C_22
REMARK    8  A    between atoms: C_22  and  C_24
REMARK    9  A    between atoms: C_22  and  O_55
REMARK   10  A    between atoms: C_24  and  C_26
REMARK   11  A    between atoms: C_24  and  N_33
REMARK   12  A    between atoms: C_26  and  C_27
REMARK   13  A    between atoms: C_34  and  C_36
REMARK   14  A    between atoms: C_36  and  C_38
REMARK   15  A    between atoms: C_36  and  N_42
REMARK   16  A    between atoms: C_38  and  C_39
REMARK   17  A    between atoms: C_43  and  C_45
REMARK                            x       y       z     vdW  Elec       q    Type
REMARK                         _______ _______ _______ _____ _____    ______ ____
ROOT
ATOM      1  C   UNL     1       5.397   1.776  26.684  0.00  0.00    +0.107 C 
ENDROOT
BRANCH   1   2
ATOM      2  N   UNL     1       4.670   0.676  27.308  0.00  0.00    -0.308 N 
ATOM      3  H   UNL     1       5.242   0.095  27.916  0.00  0.00    +0.149 HD
ATOM      4  C   UNL     1       3.339   0.398  27.196  0.00  0.00    +0.234 C 
ATOM      5  O   UNL     1       2.505   1.166  26.729  0.00  0.00    -0.274 OA
BRANCH   4   6
ATOM      6  C   UNL     1       3.030  -1.029  27.662  0.00  0.00    +0.168 C 
BRANCH   6   7
ATOM      7  N   UNL     1       3.663  -1.983  26.773  0.00  0.00    -0.298 N 
ATOM      8  H   UNL     1       4.661  -1.922  26.580  0.00  0.00    +0.150 HD
ATOM      9  C   UNL     1       2.900  -2.884  26.064  0.00  0.00    +0.263 C 
ATOM     10  O   UNL     1       1.683  -2.963  26.194  0.00  0.00    -0.269 OA
BRANCH   9  11
ATOM     11  C   UNL     1       3.629  -3.766  25.109  0.00  0.00    +0.126 A 
ATOM     12  C   UNL     1       3.397  -5.127  25.190  0.00  0.00    +0.033 A 
ATOM     13  C   UNL     1       4.010  -5.939  24.252  0.00  0.00    +0.012 A 
ATOM     14  C   UNL     1       4.822  -5.365  23.271  0.00  0.00    +0.000 A 
ATOM     15  C   UNL     1       5.021  -3.963  23.288  0.00  0.00    +0.072 A 
ATOM     16  C   UNL     1       5.830  -3.412  22.303  0.00  0.00    +0.028 A 
ATOM     17  C   UNL     1       6.416  -4.200  21.309  0.00  0.00    +0.002 A 
ATOM     18  C   UNL     1       6.204  -5.574  21.295  0.00  0.00    +0.001 A 
ATOM     19  C   UNL     1       5.414  -6.159  22.279  0.00  0.00    +0.010 A 
ATOM     20  N   UNL     1       4.442  -3.165  24.205  0.00  0.00    -0.242 NA
ENDBRANCH   9  11
ENDBRANCH   6   7
BRANCH   6  21
ATOM     21  C   UNL     1       3.488  -1.199  29.118  0.00  0.00    +0.127 C 
BRANCH  21  22
ATOM     22  C   UNL     1       3.375  -2.617  29.631  0.00  0.00    +0.213 C 
ATOM     23  N   UNL     1       2.259  -2.904  30.360  0.00  0.00    -0.329 N 
ATOM     24  H   UNL     1       2.138  -3.876  30.625  0.00  0.00    +0.145 HD
ATOM     25  H   UNL     1       1.421  -2.338  30.290  0.00  0.00    +0.145 HD
ATOM     26  O   UNL     1       4.227  -3.477  29.435  0.00  0.00    -0.276 OA
ENDBRANCH  21  22
ENDBRANCH   6  21
ENDBRANCH   4   6
ENDBRANCH   1   2
BRANCH   1  27
ATOM     27  C   UNL     1       5.701   1.264  25.256  0.00  0.00    +0.149 C 
BRANCH  27  28
ATOM     28  O   UNL     1       4.615   1.571  24.367  0.00  0.00    -0.389 OA
ATOM     29  H   UNL     1       3.984   0.833  24.413  0.00  0.00    +0.210 HD
ENDBRANCH  27  28
BRANCH  27  30
ATOM     30  C   UNL     1       6.166  -0.200  25.128  0.00  0.00    +0.118 C 
BRANCH  30  32
ATOM     31  C   UNL     1       8.615  -0.659  24.956  0.00  0.00    +0.143 C 
ATOM     32  N   UNL     1       7.443  -0.444  25.860  0.00  0.00    -0.289 NA
ATOM     33  C   UNL     1       7.347  -1.596  26.809  0.00  0.00    +0.089 C 
ATOM     34  C   UNL     1       7.220  -2.968  26.113  0.00  0.00    +0.006 C 
ATOM     35  C   UNL     1       8.495  -3.207  25.299  0.00  0.00    -0.005 C 
ATOM     36  C   UNL     1       8.463  -4.547  24.554  0.00  0.00    +0.004 C 
ATOM     37  C   UNL     1       8.170  -5.711  25.495  0.00  0.00    +0.000 C 
ATOM     38  C   UNL     1       6.908  -5.464  26.315  0.00  0.00    +0.000 C 
ATOM     39  C   UNL     1       6.984  -4.137  27.081  0.00  0.00    +0.005 C 
ATOM     40  C   UNL     1       8.674  -2.062  24.313  0.00  0.00    +0.032 C 
BRANCH  31  43
ATOM     41  N   UNL     1       9.193   1.626  24.118  0.00  0.00    -0.309 N 
ATOM     42  H   UNL     1       9.452   1.800  25.083  0.00  0.00    +0.149 HD
ATOM     43  C   UNL     1       8.721   0.367  23.807  0.00  0.00    +0.231 C 
ATOM     44  O   UNL     1       8.423   0.065  22.657  0.00  0.00    -0.274 OA
BRANCH  41  46
ATOM     45  C   UNL     1       8.051   3.247  22.609  0.00  0.00    +0.031 C 
ATOM     46  C   UNL     1       9.396   2.666  23.091  0.00  0.00    +0.026 C 
ATOM     47  C   UNL     1      10.215   3.823  23.687  0.00  0.00    +0.031 C 
ATOM     48  C   UNL     1      10.177   2.094  21.891  0.00  0.00    +0.031 C 
ENDBRANCH  41  46
ENDBRANCH  31  43
ENDBRANCH  30  32
ENDBRANCH  27  30
ENDBRANCH   1  27
BRANCH   1  49
ATOM     49  C   UNL     1       6.580   2.269  27.544  0.00  0.00    +0.060 C 
BRANCH  49  50
ATOM     50  C   UNL     1       6.949   3.729  27.394  0.00  0.00    -0.046 A 
ATOM     51  C   UNL     1       7.616   4.180  26.243  0.00  0.00    +0.004 A 
ATOM     52  C   UNL     1       7.885   5.536  26.058  0.00  0.00    +0.000 A 
ATOM     53  C   UNL     1       7.514   6.453  27.036  0.00  0.00    +0.000 A 
ATOM     54  C   UNL     1       6.882   6.014  28.199  0.00  0.00    +0.000 A 
ATOM     55  C   UNL     1       6.607   4.657  28.381  0.00  0.00    +0.004 A 
ENDBRANCH  49  50
ENDBRANCH   1  49
TORSDOF 14
ENDMDL
MODEL 3
REMARK VINA RESULT:      -6.7      2.349      8.094
REMARK  Name = 
REMARK  17 active torsions:
REMARK  status: ('A' for Active; 'I' for Inactive)
REMARK    1  A    between atoms: C_1  and  C_2
REMARK    2  A    between atoms: C_2  and  C_3
REMARK    3  A    between atoms: C_2  and  C_4
REMARK    4  A    between atoms: C_2  and  N_5
REMARK    5  A    between atoms: C_6  and  C_8
REMARK    6  A    between atoms: N_20  and  C_21
REMARK    7  A    between atoms: C_21  and  C_22
REMARK    8  A    between atoms: C_22  and  C_24
REMARK    9  A    between atoms: C_22  and  O_55
REMARK   10  A    between atoms: C_24  and  C_26
REMARK   11  A    between atoms: C_24  and  N_33
REMARK   12  A    between atoms: C_26  and  C_27
REMARK   13  A    between atoms: C_34  and  C_36
REMARK   14  A    between atoms: C_36  and  C_38
REMARK   15  A    between atoms: C_36  and  N_42
REMARK   16  A    between atoms: C_38  and  C_39
REMARK   17  A    between atoms: C_43  and  C_45
REMARK                            x       y       z     vdW  Elec       q    Type
REMARK                         _______ _______ _______ _____ _____    ______ ____
ROOT
ATOM      1  C   UNL     1       7.508   1.138  24.419  0.00  0.00    +0.107 C 
ENDROOT
BRANCH   1   2
ATOM      2  N   UNL     1       8.339  -0.018  24.103  0.00  0.00    -0.308 N 
ATOM      3  H   UNL     1       8.019  -0.549  23.295  0.00  0.00    +0.149 HD
ATOM      4  C   UNL     1       9.486  -0.407  24.732  0.00  0.00    +0.234 C 
ATOM      5  O   UNL     1      10.116   0.288  25.522  0.00  0.00    -0.274 OA
BRANCH   4   6
ATOM      6  C   UNL     1       9.847  -1.854  24.380  0.00  0.00    +0.168 C 
BRANCH   6   7
ATOM      7  N   UNL     1       8.721  -2.723  24.660  0.00  0.00    -0.298 N 
ATOM      8  H   UNL     1       7.786  -2.334  24.766  0.00  0.00    +0.150 HD
ATOM      9  C   UNL     1       8.924  -4.057  24.934  0.00  0.00    +0.263 C 
ATOM     10  O   UNL     1      10.034  -4.577  24.895  0.00  0.00    -0.269 OA
BRANCH   9  11
ATOM     11  C   UNL     1       7.717  -4.852  25.297  0.00  0.00    +0.126 A 
ATOM     12  C   UNL     1       7.552  -5.194  26.627  0.00  0.00    +0.033 A 
ATOM     13  C   UNL     1       6.392  -5.862  26.978  0.00  0.00    +0.012 A 
ATOM     14  C   UNL     1       5.443  -6.156  25.997  0.00  0.00    +0.000 A 
ATOM     15  C   UNL     1       5.716  -5.789  24.656  0.00  0.00    +0.072 A 
ATOM     16  C   UNL     1       4.759  -6.088  23.695  0.00  0.00    +0.028 A 
ATOM     17  C   UNL     1       3.553  -6.710  24.030  0.00  0.00    +0.002 A 
ATOM     18  C   UNL     1       3.290  -7.055  25.351  0.00  0.00    +0.001 A 
ATOM     19  C   UNL     1       4.237  -6.786  26.334  0.00  0.00    +0.010 A 
ATOM     20  N   UNL     1       6.848  -5.153  24.299  0.00  0.00    -0.242 NA
ENDBRANCH   9  11
ENDBRANCH   6   7
BRANCH   6  21
ATOM     21  C   UNL     1      10.285  -1.926  22.909  0.00  0.00    +0.127 C 
BRANCH  21  22
ATOM     22  C   UNL     1       9.168  -1.654  21.926  0.00  0.00    +0.213 C 
ATOM     23  N   UNL     1       9.438  -0.742  20.949  0.00  0.00    -0.329 N 
ATOM     24  H   UNL     1       8.725  -0.629  20.237  0.00  0.00    +0.145 HD
ATOM     25  H   UNL     1      10.390  -0.512  20.688  0.00  0.00    +0.145 HD
ATOM     26  O   UNL     1       8.068  -2.193  21.986  0.00  0.00    -0.276 OA
ENDBRANCH  21  22
ENDBRANCH   6  21
ENDBRANCH   4   6
ENDBRANCH   1   2
BRANCH   1  27
ATOM     27  C   UNL     1       6.099   0.538  24.645  0.00  0.00    +0.149 C 
BRANCH  27  28
ATOM     28  O   UNL     1       5.095   1.363  24.031  0.00  0.00    -0.389 OA
ATOM     29  H   UNL     1       4.663   0.832  23.341  0.00  0.00    +0.210 HD
ENDBRANCH  27  28
BRANCH  27  30
ATOM     30  C   UNL     1       5.734   0.151  26.091  0.00  0.00    +0.118 C 
BRANCH  30  32
ATOM     31  C   UNL     1       3.776   0.931  27.432  0.00  0.00    +0.143 C 
ATOM     32  N   UNL     1       4.257   0.088  26.295  0.00  0.00    -0.289 NA
ATOM     33  C   UNL     1       3.767  -1.312  26.490  0.00  0.00    +0.089 C 
ATOM     34  C   UNL     1       4.206  -1.945  27.828  0.00  0.00    +0.006 C 
ATOM     35  C   UNL     1       3.589  -1.126  28.966  0.00  0.00    -0.005 C 
ATOM     36  C   UNL     1       3.978  -1.670  30.345  0.00  0.00    +0.004 C 
ATOM     37  C   UNL     1       3.655  -3.154  30.481  0.00  0.00    +0.000 C 
ATOM     38  C   UNL     1       4.259  -3.965  29.339  0.00  0.00    +0.000 C 
ATOM     39  C   UNL     1       3.821  -3.425  27.972  0.00  0.00    +0.005 C 
ATOM     40  C   UNL     1       4.031   0.323  28.829  0.00  0.00    +0.032 C 
BRANCH  31  43
ATOM     41  N   UNL     1       4.233   3.117  26.304  0.00  0.00    -0.309 N 
ATOM     42  H   UNL     1       3.748   2.694  25.520  0.00  0.00    +0.149 HD
ATOM     43  C   UNL     1       4.365   2.359  27.450  0.00  0.00    +0.231 C 
ATOM     44  O   UNL     1       4.904   2.811  28.453  0.00  0.00    -0.274 OA
BRANCH  41  46
ATOM     45  C   UNL     1       3.856   5.437  27.130  0.00  0.00    +0.031 C 
ATOM     46  C   UNL     1       4.700   4.515  26.227  0.00  0.00    +0.026 C 
ATOM     47  C   UNL     1       6.157   4.597  26.711  0.00  0.00    +0.031 C 
ATOM     48  C   UNL     1       4.648   5.021  24.772  0.00  0.00    +0.031 C 
ENDBRANCH  41  46
ENDBRANCH  31  43
ENDBRANCH  30  32
ENDBRANCH  27  30
ENDBRANCH   1  27
BRANCH   1  49
ATOM     49  C   UNL     1       7.654   2.275  23.386  0.00  0.00    +0.060 C 
BRANCH  49  50
ATOM     50  C   UNL     1       8.825   3.212  23.588  0.00  0.00    -0.046 A 
ATOM     51  C   UNL     1      10.124   2.814  23.233  0.00  0.00    +0.004 A 
ATOM     52  C   UNL     1      11.196   3.700  23.337  0.00  0.00    +0.000 A 
ATOM     53  C   UNL     1      10.985   4.986  23.823  0.00  0.00    +0.000 A 
ATOM     54  C   UNL     1       9.705   5.382  24.212  0.00  0.00    +0.000 A 
ATOM     55  C   UNL     1       8.631   4.497  24.101  0.00  0.00    +0.004 A 
ENDBRANCH  49  50
ENDBRANCH   1  49
TORSDOF 14
ENDMDL
MODEL 4
REMARK VINA RESULT:      -6.5      3.049      7.300
REMARK  Name = 
REMARK  17 active torsions:
REMARK  status: ('A' for Active; 'I' for Inactive)
REMARK    1  A    between atoms: C_1  and  C_2
REMARK    2  A    between atoms: C_2  and  C_3
REMARK    3  A    between atoms: C_2  and  C_4
REMARK    4  A    between atoms: C_2  and  N_5
REMARK    5  A    between atoms: C_6  and  C_8
REMARK    6  A    between atoms: N_20  and  C_21
REMARK    7  A    between atoms: C_21  and  C_22
REMARK    8  A    between atoms: C_22  and  C_24
REMARK    9  A    between atoms: C_22  and  O_55
REMARK   10  A    between atoms: C_24  and  C_26
REMARK   11  A    between atoms: C_24  and  N_33
REMARK   12  A    between atoms: C_26  and  C_27
REMARK   13  A    between atoms: C_34  and  C_36
REMARK   14  A    between atoms: C_36  and  C_38
REMARK   15  A    between atoms: C_36  and  N_42
REMARK   16  A    between atoms: C_38  and  C_39
REMARK   17  A    between atoms: C_43  and  C_45
REMARK                            x       y       z     vdW  Elec       q    Type
REMARK                         _______ _______ _______ _____ _____    ______ ____
ROOT
ATOM      1  C   UNL     1       5.370  -1.215  27.465  0.00  0.00    +0.107 C 
ENDROOT
BRANCH   1   2
ATOM      2  N   UNL     1       5.112   0.114  28.007  0.00  0.00    -0.308 N 
ATOM      3  H   UNL     1       5.068   0.847  27.302  0.00  0.00    +0.149 HD
ATOM      4  C   UNL     1       4.881   0.443  29.311  0.00  0.00    +0.234 C 
ATOM      5  O   UNL     1       4.634  -0.366  30.199  0.00  0.00    -0.274 OA
BRANCH   4   6
ATOM      6  C   UNL     1       5.043   1.950  29.539  0.00  0.00    +0.168 C 
BRANCH   6   7
ATOM      7  N   UNL     1       5.358   2.604  28.285  0.00  0.00    -0.298 N 
ATOM      8  H   UNL     1       4.799   2.420  27.455  0.00  0.00    +0.150 HD
ATOM      9  C   UNL     1       6.501   3.363  28.166  0.00  0.00    +0.263 C 
ATOM     10  O   UNL     1       7.258   3.568  29.109  0.00  0.00    -0.269 OA
BRANCH   9  11
ATOM     11  C   UNL     1       6.789   3.925  26.816  0.00  0.00    +0.126 A 
ATOM     12  C   UNL     1       5.855   3.705  25.819  0.00  0.00    +0.033 A 
ATOM     13  C   UNL     1       6.080   4.293  24.588  0.00  0.00    +0.012 A 
ATOM     14  C   UNL     1       7.219   5.079  24.399  0.00  0.00    +0.000 A 
ATOM     15  C   UNL     1       8.132   5.222  25.473  0.00  0.00    +0.072 A 
ATOM     16  C   UNL     1       9.257   6.010  25.266  0.00  0.00    +0.028 A 
ATOM     17  C   UNL     1       9.482   6.663  24.051  0.00  0.00    +0.002 A 
ATOM     18  C   UNL     1       8.574   6.526  23.008  0.00  0.00    +0.001 A 
ATOM     19  C   UNL     1       7.446   5.728  23.178  0.00  0.00    +0.010 A 
ATOM     20  N   UNL     1       7.931   4.641  26.671  0.00  0.00    -0.242 NA
ENDBRANCH   9  11
ENDBRANCH   6   7
BRANCH   6  21
ATOM     21  C   UNL     1       3.763   2.507  30.181  0.00  0.00    +0.127 C 
BRANCH  21  22
ATOM     22  C   UNL     1       2.760   3.036  29.180  0.00  0.00    +0.213 C 
ATOM     23  N   UNL     1       1.725   2.203  28.871  0.00  0.00    -0.329 N 
ATOM     24  H   UNL     1       1.004   2.591  28.273  0.00  0.00    +0.145 HD
ATOM     25  H   UNL     1       1.454   1.444  29.486  0.00  0.00    +0.145 HD
ATOM     26  O   UNL     1       2.850   4.137  28.649  0.00  0.00    -0.276 OA
ENDBRANCH  21  22
ENDBRANCH   6  21
ENDBRANCH   4   6
ENDBRANCH   1   2
BRANCH   1  27
ATOM     27  C   UNL     1       6.834  -1.141  26.968  0.00  0.00    +0.149 C 
BRANCH  27  28
ATOM     28  O   UNL     1       7.449   0.086  27.392  0.00  0.00    -0.389 OA
ATOM     29  H   UNL     1       7.330   0.735  26.677  0.00  0.00    +0.210 HD
ENDBRANCH  27  28
BRANCH  27  30
ATOM     30  C   UNL     1       7.074  -1.429  25.473  0.00  0.00    +0.118 C 
BRANCH  30  32
ATOM     31  C   UNL     1       8.861  -2.339  23.984  0.00  0.00    +0.143 C 
ATOM     32  N   UNL     1       8.110  -2.483  25.269  0.00  0.00    -0.289 NA
ATOM     33  C   UNL     1       7.542  -3.866  25.344  0.00  0.00    +0.089 C 
ATOM     34  C   UNL     1       6.619  -4.225  24.161  0.00  0.00    +0.006 C 
ATOM     35  C   UNL     1       7.456  -4.189  22.878  0.00  0.00    -0.005 C 
ATOM     36  C   UNL     1       6.623  -4.523  21.635  0.00  0.00    +0.004 C 
ATOM     37  C   UNL     1       5.883  -5.847  21.787  0.00  0.00    +0.000 C 
ATOM     38  C   UNL     1       5.062  -5.885  23.072  0.00  0.00    +0.000 C 
ATOM     39  C   UNL     1       5.927  -5.589  24.303  0.00  0.00    +0.005 C 
ATOM     40  C   UNL     1       8.084  -2.811  22.735  0.00  0.00    +0.032 C 
BRANCH  31  43
ATOM     41  N   UNL     1       8.489  -0.069  23.001  0.00  0.00    -0.309 N 
ATOM     42  H   UNL     1       7.589  -0.449  22.729  0.00  0.00    +0.149 HD
ATOM     43  C   UNL     1       9.344  -0.900  23.695  0.00  0.00    +0.231 C 
ATOM     44  O   UNL     1      10.433  -0.505  24.094  0.00  0.00    -0.274 OA
BRANCH  41  46
ATOM     45  C   UNL     1      10.032   1.462  21.781  0.00  0.00    +0.031 C 
ATOM     46  C   UNL     1       8.817   1.344  22.725  0.00  0.00    +0.026 C 
ATOM     47  C   UNL     1       7.623   2.022  22.033  0.00  0.00    +0.031 C 
ATOM     48  C   UNL     1       9.103   2.098  24.039  0.00  0.00    +0.031 C 
ENDBRANCH  41  46
ENDBRANCH  31  43
ENDBRANCH  30  32
ENDBRANCH  27  30
ENDBRANCH   1  27
BRANCH   1  49
ATOM     49  C   UNL     1       4.288  -1.668  26.462  0.00  0.00    +0.060 C 
BRANCH  49  50
ATOM     50  C   UNL     1       3.902  -3.131  26.515  0.00  0.00    -0.046 A 
ATOM     51  C   UNL     1       4.469  -3.981  27.478  0.00  0.00    +0.004 A 
ATOM     52  C   UNL     1       4.058  -5.310  27.589  0.00  0.00    +0.000 A 
ATOM     53  C   UNL     1       3.095  -5.809  26.719  0.00  0.00    +0.000 A 
ATOM     54  C   UNL     1       2.549  -4.984  25.736  0.00  0.00    +0.000 A 
ATOM     55  C   UNL     1       2.956  -3.652  25.629  0.00  0.00    +0.004 A 
ENDBRANCH  49  50
ENDBRANCH   1  49
TORSDOF 14
ENDMDL
MODEL 5
REMARK VINA RESULT:      -6.5      2.474      4.020
REMARK  Name = 
REMARK  17 active torsions:
REMARK  status: ('A' for Active; 'I' for Inactive)
REMARK    1  A    between atoms: C_1  and  C_2
REMARK    2  A    between atoms: C_2  and  C_3
REMARK    3  A    between atoms: C_2  and  C_4
REMARK    4  A    between atoms: C_2  and  N_5
REMARK    5  A    between atoms: C_6  and  C_8
REMARK    6  A    between atoms: N_20  and  C_21
REMARK    7  A    between atoms: C_21  and  C_22
REMARK    8  A    between atoms: C_22  and  C_24
REMARK    9  A    between atoms: C_22  and  O_55
REMARK   10  A    between atoms: C_24  and  C_26
REMARK   11  A    between atoms: C_24  and  N_33
REMARK   12  A    between atoms: C_26  and  C_27
REMARK   13  A    between atoms: C_34  and  C_36
REMARK   14  A    between atoms: C_36  and  C_38
REMARK   15  A    between atoms: C_36  and  N_42
REMARK   16  A    between atoms: C_38  and  C_39
REMARK   17  A    between atoms: C_43  and  C_45
REMARK                            x       y       z     vdW  Elec       q    Type
REMARK                         _______ _______ _______ _____ _____    ______ ____
ROOT
ATOM      1  C   UNL     1       6.907  -3.231  24.762  0.00  0.00    +0.107 C 
ENDROOT
BRANCH   1   2
ATOM      2  N   UNL     1       7.928  -2.346  24.213  0.00  0.00    -0.308 N 
ATOM      3  H   UNL     1       8.474  -1.856  24.919  0.00  0.00    +0.149 HD
ATOM      4  C   UNL     1       8.241  -2.162  22.897  0.00  0.00    +0.234 C 
ATOM      5  O   UNL     1       7.857  -2.884  21.984  0.00  0.00    -0.274 OA
BRANCH   4   6
ATOM      6  C   UNL     1       9.074  -0.891  22.699  0.00  0.00    +0.168 C 
BRANCH   6   7
ATOM      7  N   UNL     1       8.243   0.278  22.908  0.00  0.00    -0.298 N 
ATOM      8  H   UNL     1       7.661   0.352  23.739  0.00  0.00    +0.150 HD
ATOM      9  C   UNL     1       8.119   1.227  21.918  0.00  0.00    +0.263 C 
ATOM     10  O   UNL     1       8.737   1.163  20.861  0.00  0.00    -0.269 OA
BRANCH   9  11
ATOM     11  C   UNL     1       7.175   2.349  22.188  0.00  0.00    +0.126 A 
ATOM     12  C   UNL     1       5.920   2.027  22.671  0.00  0.00    +0.033 A 
ATOM     13  C   UNL     1       5.071   3.069  22.999  0.00  0.00    +0.012 A 
ATOM     14  C   UNL     1       5.507   4.387  22.838  0.00  0.00    +0.000 A 
ATOM     15  C   UNL     1       6.801   4.615  22.309  0.00  0.00    +0.072 A 
ATOM     16  C   UNL     1       7.216   5.932  22.160  0.00  0.00    +0.028 A 
ATOM     17  C   UNL     1       6.403   7.005  22.535  0.00  0.00    +0.002 A 
ATOM     18  C   UNL     1       5.139   6.769  23.065  0.00  0.00    +0.001 A 
ATOM     19  C   UNL     1       4.687   5.461  23.210  0.00  0.00    +0.010 A 
ATOM     20  N   UNL     1       7.629   3.609  21.972  0.00  0.00    -0.242 NA
ENDBRANCH   9  11
ENDBRANCH   6   7
BRANCH   6  21
ATOM     21  C   UNL     1      10.283  -0.922  23.646  0.00  0.00    +0.127 C 
BRANCH  21  22
ATOM     22  C   UNL     1      10.547   0.394  24.342  0.00  0.00    +0.213 C 
ATOM     23  N   UNL     1      10.444   0.385  25.702  0.00  0.00    -0.329 N 
ATOM     24  H   UNL     1      10.711   1.242  26.175  0.00  0.00    +0.145 HD
ATOM     25  H   UNL     1      10.517  -0.476  26.233  0.00  0.00    +0.145 HD
ATOM     26  O   UNL     1      10.824   1.430  23.747  0.00  0.00    -0.276 OA
ENDBRANCH  21  22
ENDBRANCH   6  21
ENDBRANCH   4   6
ENDBRANCH   1   2
BRANCH   1  27
ATOM     27  C   UNL     1       5.594  -2.423  24.620  0.00  0.00    +0.149 C 
BRANCH  27  28
ATOM     28  O   UNL     1       4.974  -2.687  23.351  0.00  0.00    -0.389 OA
ATOM     29  H   UNL     1       5.462  -2.183  22.678  0.00  0.00    +0.210 HD
ENDBRANCH  27  28
BRANCH  27  30
ATOM     30  C   UNL     1       5.670  -0.916  24.932  0.00  0.00    +0.118 C 
BRANCH  30  32
ATOM     31  C   UNL     1       4.941  -0.241  27.224  0.00  0.00    +0.143 C 
ATOM     32  N   UNL     1       6.076  -0.660  26.345  0.00  0.00    -0.289 NA
ATOM     33  C   UNL     1       7.170   0.355  26.451  0.00  0.00    +0.089 C 
ATOM     34  C   UNL     1       6.729   1.787  26.080  0.00  0.00    +0.006 C 
ATOM     35  C   UNL     1       5.656   2.227  27.081  0.00  0.00    -0.005 C 
ATOM     36  C   UNL     1       5.140   3.641  26.790  0.00  0.00    +0.004 C 
ATOM     37  C   UNL     1       6.277   4.653  26.704  0.00  0.00    +0.000 C 
ATOM     38  C   UNL     1       7.350   4.205  25.717  0.00  0.00    +0.000 C 
ATOM     39  C   UNL     1       7.878   2.806  26.055  0.00  0.00    +0.005 C 
ATOM     40  C   UNL     1       4.507   1.231  27.045  0.00  0.00    +0.032 C 
BRANCH  31  43
ATOM     41  N   UNL     1       3.688  -2.368  27.628  0.00  0.00    -0.309 N 
ATOM     42  H   UNL     1       4.531  -2.649  28.117  0.00  0.00    +0.149 HD
ATOM     43  C   UNL     1       3.671  -1.106  27.068  0.00  0.00    +0.231 C 
ATOM     44  O   UNL     1       2.677  -0.677  26.495  0.00  0.00    -0.274 OA
BRANCH  41  46
ATOM     45  C   UNL     1       1.206  -2.467  27.821  0.00  0.00    +0.031 C 
ATOM     46  C   UNL     1       2.510  -3.258  27.597  0.00  0.00    +0.026 C 
ATOM     47  C   UNL     1       2.414  -3.934  26.219  0.00  0.00    +0.031 C 
ATOM     48  C   UNL     1       2.642  -4.362  28.665  0.00  0.00    +0.031 C 
ENDBRANCH  41  46
ENDBRANCH  31  43
ENDBRANCH  30  32
ENDBRANCH  27  30
ENDBRANCH   1  27
BRANCH   1  49
ATOM     49  C   UNL     1       7.277  -3.770  26.159  0.00  0.00    +0.060 C 
BRANCH  49  50
ATOM     50  C   UNL     1       6.413  -4.894  26.689  0.00  0.00    -0.046 A 
ATOM     51  C   UNL     1       5.641  -5.673  25.812  0.00  0.00    +0.004 A 
ATOM     52  C   UNL     1       4.907  -6.762  26.280  0.00  0.00    +0.000 A 
ATOM     53  C   UNL     1       4.916  -7.068  27.637  0.00  0.00    +0.000 A 
ATOM     54  C   UNL     1       5.650  -6.282  28.524  0.00  0.00    +0.000 A 
ATOM     55  C   UNL     1       6.390  -5.194  28.054  0.00  0.00    +0.004 A 
ENDBRANCH  49  50
ENDBRANCH   1  49
TORSDOF 14
ENDMDL
MODEL 6
REMARK VINA RESULT:      -6.3      3.168      6.827
REMARK  Name = 
REMARK  17 active torsions:
REMARK  status: ('A' for Active; 'I' for Inactive)
REMARK    1  A    between atoms: C_1  and  C_2
REMARK    2  A    between atoms: C_2  and  C_3
REMARK    3  A    between atoms: C_2  and  C_4
REMARK    4  A    between atoms: C_2  and  N_5
REMARK    5  A    between atoms: C_6  and  C_8
REMARK    6  A    between atoms: N_20  and  C_21
REMARK    7  A    between atoms: C_21  and  C_22
REMARK    8  A    between atoms: C_22  and  C_24
REMARK    9  A    between atoms: C_22  and  O_55
REMARK   10  A    between atoms: C_24  and  C_26
REMARK   11  A    between atoms: C_24  and  N_33
REMARK   12  A    between atoms: C_26  and  C_27
REMARK   13  A    between atoms: C_34  and  C_36
REMARK   14  A    between atoms: C_36  and  C_38
REMARK   15  A    between atoms: C_36  and  N_42
REMARK   16  A    between atoms: C_38  and  C_39
REMARK   17  A    between atoms: C_43  and  C_45
REMARK                            x       y       z     vdW  Elec       q    Type
REMARK                         _______ _______ _______ _____ _____    ______ ____
ROOT
ATOM      1  C   UNL     1       7.636  -0.410  23.142  0.00  0.00    +0.107 C 
ENDROOT
BRANCH   1   2
ATOM      2  N   UNL     1       8.141   0.946  23.320  0.00  0.00    -0.308 N 
ATOM      3  H   UNL     1       7.878   1.372  24.207  0.00  0.00    +0.149 HD
ATOM      4  C   UNL     1       8.942   1.648  22.466  0.00  0.00    +0.234 C 
ATOM      5  O   UNL     1       9.544   1.158  21.517  0.00  0.00    -0.274 OA
BRANCH   4   6
ATOM      6  C   UNL     1       8.934   3.143  22.803  0.00  0.00    +0.168 C 
BRANCH   6   7
ATOM      7  N   UNL     1       7.613   3.538  23.251  0.00  0.00    -0.298 N 
ATOM      8  H   UNL     1       7.084   2.939  23.882  0.00  0.00    +0.150 HD
ATOM      9  C   UNL     1       7.000   4.647  22.712  0.00  0.00    +0.263 C 
ATOM     10  O   UNL     1       7.552   5.373  21.892  0.00  0.00    -0.269 OA
BRANCH   9  11
ATOM     11  C   UNL     1       5.608   4.925  23.169  0.00  0.00    +0.126 A 
ATOM     12  C   UNL     1       5.341   6.182  23.678  0.00  0.00    +0.033 A 
ATOM     13  C   UNL     1       4.033   6.469  24.027  0.00  0.00    +0.012 A 
ATOM     14  C   UNL     1       3.045   5.497  23.850  0.00  0.00    +0.000 A 
ATOM     15  C   UNL     1       3.423   4.227  23.346  0.00  0.00    +0.072 A 
ATOM     16  C   UNL     1       2.426   3.276  23.174  0.00  0.00    +0.028 A 
ATOM     17  C   UNL     1       1.088   3.555  23.464  0.00  0.00    +0.002 A 
ATOM     18  C   UNL     1       0.726   4.808  23.946  0.00  0.00    +0.001 A 
ATOM     19  C   UNL     1       1.705   5.777  24.147  0.00  0.00    +0.010 A 
ATOM     20  N   UNL     1       4.695   3.933  23.018  0.00  0.00    -0.242 NA
ENDBRANCH   9  11
ENDBRANCH   6   7
BRANCH   6  21
ATOM     21  C   UNL     1      10.015   3.434  23.854  0.00  0.00    +0.127 C 
BRANCH  21  22
ATOM     22  C   UNL     1      10.975   4.532  23.455  0.00  0.00    +0.213 C 
ATOM     23  N   UNL     1      10.422   5.755  23.214  0.00  0.00    -0.329 N 
ATOM     24  H   UNL     1      11.074   6.511  23.038  0.00  0.00    +0.145 HD
ATOM     25  H   UNL     1       9.513   6.007  23.585  0.00  0.00    +0.145 HD
ATOM     26  O   UNL     1      12.183   4.362  23.331  0.00  0.00    -0.276 OA
ENDBRANCH  21  22
ENDBRANCH   6  21
ENDBRANCH   4   6
ENDBRANCH   1   2
BRANCH   1  27
ATOM     27  C   UNL     1       6.229  -0.376  23.785  0.00  0.00    +0.149 C 
BRANCH  27  28
ATOM     28  O   UNL     1       5.734   0.971  23.846  0.00  0.00    -0.389 OA
ATOM     29  H   UNL     1       6.368   1.491  24.369  0.00  0.00    +0.210 HD
ENDBRANCH  27  28
BRANCH  27  30
ATOM     30  C   UNL     1       6.061  -1.122  25.123  0.00  0.00    +0.118 C 
BRANCH  30  32
ATOM     31  C   UNL     1       4.187  -1.266  26.769  0.00  0.00    +0.143 C 
ATOM     32  N   UNL     1       4.642  -1.516  25.367  0.00  0.00    -0.289 NA
ATOM     33  C   UNL     1       4.379  -2.948  25.022  0.00  0.00    +0.089 C 
ATOM     34  C   UNL     1       5.059  -3.954  25.975  0.00  0.00    +0.006 C 
ATOM     35  C   UNL     1       4.473  -3.750  27.376  0.00  0.00    -0.005 C 
ATOM     36  C   UNL     1       5.096  -4.699  28.406  0.00  0.00    +0.004 C 
ATOM     37  C   UNL     1       5.002  -6.155  27.964  0.00  0.00    +0.000 C 
ATOM     38  C   UNL     1       5.574  -6.352  26.563  0.00  0.00    +0.000 C 
ATOM     39  C   UNL     1       4.905  -5.420  25.546  0.00  0.00    +0.005 C 
ATOM     40  C   UNL     1       4.689  -2.304  27.797  0.00  0.00    +0.032 C 
BRANCH  31  43
ATOM     41  N   UNL     1       3.941   1.224  26.759  0.00  0.00    -0.309 N 
ATOM     42  H   UNL     1       3.259   1.048  26.029  0.00  0.00    +0.149 HD
ATOM     43  C   UNL     1       4.568   0.128  27.315  0.00  0.00    +0.231 C 
ATOM     44  O   UNL     1       5.376   0.252  28.228  0.00  0.00    -0.274 OA
BRANCH  41  46
ATOM     45  C   UNL     1       5.408   3.228  26.560  0.00  0.00    +0.031 C 
ATOM     46  C   UNL     1       4.179   2.598  27.244  0.00  0.00    +0.026 C 
ATOM     47  C   UNL     1       2.961   3.476  26.914  0.00  0.00    +0.031 C 
ATOM     48  C   UNL     1       4.374   2.603  28.774  0.00  0.00    +0.031 C 
ENDBRANCH  41  46
ENDBRANCH  31  43
ENDBRANCH  30  32
ENDBRANCH  27  30
ENDBRANCH   1  27
BRANCH   1  49
ATOM     49  C   UNL     1       8.631  -1.483  23.633  0.00  0.00    +0.060 C 
BRANCH  49  50
ATOM     50  C   UNL     1       8.209  -2.923  23.432  0.00  0.00    -0.046 A 
ATOM     51  C   UNL     1       7.434  -3.289  22.319  0.00  0.00    +0.004 A 
ATOM     52  C   UNL     1       7.112  -4.625  22.081  0.00  0.00    +0.000 A 
ATOM     53  C   UNL     1       7.539  -5.607  22.968  0.00  0.00    +0.000 A 
ATOM     54  C   UNL     1       8.281  -5.253  24.095  0.00  0.00    +0.000 A 
ATOM     55  C   UNL     1       8.608  -3.916  24.330  0.00  0.00    +0.004 A 
ENDBRANCH  49  50
ENDBRANCH   1  49
TORSDOF 14
ENDMDL
MODEL 7
REMARK VINA RESULT:      -6.3      3.154      6.248
REMARK  Name = 
REMARK  17 active torsions:
REMARK  status: ('A' for Active; 'I' for Inactive)
REMARK    1  A    between atoms: C_1  and  C_2
REMARK    2  A    between atoms: C_2  and  C_3
REMARK    3  A    between atoms: C_2  and  C_4
REMARK    4  A    between atoms: C_2  and  N_5
REMARK    5  A    between atoms: C_6  and  C_8
REMARK    6  A    between atoms: N_20  and  C_21
REMARK    7  A    between atoms: C_21  and  C_22
REMARK    8  A    between atoms: C_22  and  C_24
REMARK    9  A    between atoms: C_22  and  O_55
REMARK   10  A    between atoms: C_24  and  C_26
REMARK   11  A    between atoms: C_24  and  N_33
REMARK   12  A    between atoms: C_26  and  C_27
REMARK   13  A    between atoms: C_34  and  C_36
REMARK   14  A    between atoms: C_36  and  C_38
REMARK   15  A    between atoms: C_36  and  N_42
REMARK   16  A    between atoms: C_38  and  C_39
REMARK   17  A    between atoms: C_43  and  C_45
REMARK                            x       y       z     vdW  Elec       q    Type
REMARK                         _______ _______ _______ _____ _____    ______ ____
ROOT
ATOM      1  C   UNL     1       8.363  -0.722  23.650  0.00  0.00    +0.107 C 
ENDROOT
BRANCH   1   2
ATOM      2  N   UNL     1       8.662   0.705  23.656  0.00  0.00    -0.308 N 
ATOM      3  H   UNL     1       8.542   1.149  24.565  0.00  0.00    +0.149 HD
ATOM      4  C   UNL     1       9.117   1.458  22.613  0.00  0.00    +0.234 C 
ATOM      5  O   UNL     1       9.559   0.999  21.566  0.00  0.00    -0.274 OA
BRANCH   4   6
ATOM      6  C   UNL     1       8.938   2.955  22.890  0.00  0.00    +0.168 C 
BRANCH   6   7
ATOM      7  N   UNL     1       7.584   3.211  23.340  0.00  0.00    -0.298 N 
ATOM      8  H   UNL     1       7.123   2.564  23.977  0.00  0.00    +0.150 HD
ATOM      9  C   UNL     1       6.856   4.246  22.796  0.00  0.00    +0.263 C 
ATOM     10  O   UNL     1       7.326   5.020  21.970  0.00  0.00    -0.269 OA
BRANCH   9  11
ATOM     11  C   UNL     1       5.444   4.379  23.256  0.00  0.00    +0.126 A 
ATOM     12  C   UNL     1       4.679   3.228  23.313  0.00  0.00    +0.033 A 
ATOM     13  C   UNL     1       3.394   3.336  23.815  0.00  0.00    +0.012 A 
ATOM     14  C   UNL     1       2.927   4.580  24.246  0.00  0.00    +0.000 A 
ATOM     15  C   UNL     1       3.777   5.706  24.122  0.00  0.00    +0.072 A 
ATOM     16  C   UNL     1       3.294   6.933  24.558  0.00  0.00    +0.028 A 
ATOM     17  C   UNL     1       2.022   7.062  25.123  0.00  0.00    +0.002 A 
ATOM     18  C   UNL     1       1.201   5.948  25.251  0.00  0.00    +0.001 A 
ATOM     19  C   UNL     1       1.648   4.708  24.806  0.00  0.00    +0.010 A 
ATOM     20  N   UNL     1       5.023   5.616  23.619  0.00  0.00    -0.242 NA
ENDBRANCH   9  11
ENDBRANCH   6   7
BRANCH   6  21
ATOM     21  C   UNL     1       9.987   3.412  23.915  0.00  0.00    +0.127 C 
BRANCH  21  22
ATOM     22  C   UNL     1      10.836   4.571  23.443  0.00  0.00    +0.213 C 
ATOM     23  N   UNL     1      10.167   5.717  23.129  0.00  0.00    -0.329 N 
ATOM     24  H   UNL     1      10.742   6.520  22.903  0.00  0.00    +0.145 HD
ATOM     25  H   UNL     1       9.237   5.902  23.488  0.00  0.00    +0.145 HD
ATOM     26  O   UNL     1      12.056   4.511  23.324  0.00  0.00    -0.276 OA
ENDBRANCH  21  22
ENDBRANCH   6  21
ENDBRANCH   4   6
ENDBRANCH   1   2
BRANCH   1  27
ATOM     27  C   UNL     1       6.869  -0.796  24.050  0.00  0.00    +0.149 C 
BRANCH  27  28
ATOM     28  O   UNL     1       6.069  -1.219  22.934  0.00  0.00    -0.389 OA
ATOM     29  H   UNL     1       5.833  -2.150  23.081  0.00  0.00    +0.210 HD
ENDBRANCH  27  28
BRANCH  27  30
ATOM     30  C   UNL     1       6.280   0.439  24.758  0.00  0.00    +0.118 C 
BRANCH  30  32
ATOM     31  C   UNL     1       5.456   0.255  27.109  0.00  0.00    +0.143 C 
ATOM     32  N   UNL     1       6.630   0.469  26.208  0.00  0.00    -0.289 NA
ATOM     33  C   UNL     1       7.318   1.737  26.605  0.00  0.00    +0.089 C 
ATOM     34  C   UNL     1       6.403   2.980  26.568  0.00  0.00    +0.006 C 
ATOM     35  C   UNL     1       5.285   2.776  27.595  0.00  0.00    -0.005 C 
ATOM     36  C   UNL     1       4.309   3.957  27.628  0.00  0.00    +0.004 C 
ATOM     37  C   UNL     1       5.031   5.284  27.840  0.00  0.00    +0.000 C 
ATOM     38  C   UNL     1       6.153   5.477  26.824  0.00  0.00    +0.000 C 
ATOM     39  C   UNL     1       7.137   4.301  26.841  0.00  0.00    +0.005 C 
ATOM     40  C   UNL     1       4.542   1.489  27.268  0.00  0.00    +0.032 C 
BRANCH  31  43
ATOM     41  N   UNL     1       5.065  -2.199  26.817  0.00  0.00    -0.309 N 
ATOM     42  H   UNL     1       6.007  -2.286  27.185  0.00  0.00    +0.149 HD
ATOM     43  C   UNL     1       4.550  -0.925  26.692  0.00  0.00    +0.231 C 
ATOM     44  O   UNL     1       3.407  -0.736  26.293  0.00  0.00    -0.274 OA
BRANCH  41  46
ATOM     45  C   UNL     1       2.758  -3.128  26.656  0.00  0.00    +0.031 C 
ATOM     46  C   UNL     1       4.269  -3.403  26.510  0.00  0.00    +0.026 C 
ATOM     47  C   UNL     1       4.525  -3.831  25.056  0.00  0.00    +0.031 C 
ATOM     48  C   UNL     1       4.677  -4.569  27.433  0.00  0.00    +0.031 C 
ENDBRANCH  41  46
ENDBRANCH  31  43
ENDBRANCH  30  32
ENDBRANCH  27  30
ENDBRANCH   1  27
BRANCH   1  49
ATOM     49  C   UNL     1       9.374  -1.545  24.476  0.00  0.00    +0.060 C 
BRANCH  49  50
ATOM     50  C   UNL     1       8.907  -2.909  24.934  0.00  0.00    -0.046 A 
ATOM     51  C   UNL     1       8.675  -3.161  26.296  0.00  0.00    +0.004 A 
ATOM     52  C   UNL     1       8.164  -4.388  26.719  0.00  0.00    +0.000 A 
ATOM     53  C   UNL     1       7.904  -5.387  25.786  0.00  0.00    +0.000 A 
ATOM     54  C   UNL     1       8.162  -5.161  24.434  0.00  0.00    +0.000 A 
ATOM     55  C   UNL     1       8.668  -3.930  24.010  0.00  0.00    +0.004 A 
ENDBRANCH  49  50
ENDBRANCH   1  49
TORSDOF 14
ENDMDL
MODEL 8
REMARK VINA RESULT:      -6.1      3.514      7.684
REMARK  Name = 
REMARK  17 active torsions:
REMARK  status: ('A' for Active; 'I' for Inactive)
REMARK    1  A    between atoms: C_1  and  C_2
REMARK    2  A    between atoms: C_2  and  C_3
REMARK    3  A    between atoms: C_2  and  C_4
REMARK    4  A    between atoms: C_2  and  N_5
REMARK    5  A    between atoms: C_6  and  C_8
REMARK    6  A    between atoms: N_20  and  C_21
REMARK    7  A    between atoms: C_21  and  C_22
REMARK    8  A    between atoms: C_22  and  C_24
REMARK    9  A    between atoms: C_22  and  O_55
REMARK   10  A    between atoms: C_24  and  C_26
REMARK   11  A    between atoms: C_24  and  N_33
REMARK   12  A    between atoms: C_26  and  C_27
REMARK   13  A    between atoms: C_34  and  C_36
REMARK   14  A    between atoms: C_36  and  C_38
REMARK   15  A    between atoms: C_36  and  N_42
REMARK   16  A    between atoms: C_38  and  C_39
REMARK   17  A    between atoms: C_43  and  C_45
REMARK                            x       y       z     vdW  Elec       q    Type
REMARK                         _______ _______ _______ _____ _____    ______ ____
ROOT
ATOM      1  C   UNL     1       4.735   0.869  25.601  0.00  0.00    +0.107 C 
ENDROOT
BRANCH   1   2
ATOM      2  N   UNL     1       6.081   0.990  25.052  0.00  0.00    -0.308 N 
ATOM      3  H   UNL     1       6.174   0.637  24.102  0.00  0.00    +0.149 HD
ATOM      4  C   UNL     1       7.169   1.557  25.651  0.00  0.00    +0.234 C 
ATOM      5  O   UNL     1       7.123   2.253  26.659  0.00  0.00    -0.274 OA
BRANCH   4   6
ATOM      6  C   UNL     1       8.465   1.150  24.943  0.00  0.00    +0.168 C 
BRANCH   6   7
ATOM      7  N   UNL     1       8.314  -0.170  24.364  0.00  0.00    -0.298 N 
ATOM      8  H   UNL     1       7.779  -0.298  23.508  0.00  0.00    +0.150 HD
ATOM      9  C   UNL     1       8.764  -1.282  25.042  0.00  0.00    +0.263 C 
ATOM     10  O   UNL     1       9.354  -1.206  26.114  0.00  0.00    -0.269 OA
BRANCH   9  11
ATOM     11  C   UNL     1       8.486  -2.603  24.411  0.00  0.00    +0.126 A 
ATOM     12  C   UNL     1       9.035  -3.724  25.004  0.00  0.00    +0.033 A 
ATOM     13  C   UNL     1       8.713  -4.958  24.468  0.00  0.00    +0.012 A 
ATOM     14  C   UNL     1       7.854  -5.026  23.369  0.00  0.00    +0.000 A 
ATOM     15  C   UNL     1       7.363  -3.819  22.813  0.00  0.00    +0.072 A 
ATOM     16  C   UNL     1       6.509  -3.909  21.722  0.00  0.00    +0.028 A 
ATOM     17  C   UNL     1       6.120  -5.143  21.194  0.00  0.00    +0.002 A 
ATOM     18  C   UNL     1       6.597  -6.322  21.755  0.00  0.00    +0.001 A 
ATOM     19  C   UNL     1       7.470  -6.265  22.837  0.00  0.00    +0.010 A 
ATOM     20  N   UNL     1       7.683  -2.612  23.317  0.00  0.00    -0.242 NA
ENDBRANCH   9  11
ENDBRANCH   6   7
BRANCH   6  21
ATOM     21  C   UNL     1       8.824   2.209  23.890  0.00  0.00    +0.127 C 
BRANCH  21  22
ATOM     22  C   UNL     1      10.111   1.922  23.149  0.00  0.00    +0.213 C 
ATOM     23  N   UNL     1      10.138   2.275  21.833  0.00  0.00    -0.329 N 
ATOM     24  H   UNL     1      11.029   2.169  21.361  0.00  0.00    +0.145 HD
ATOM     25  H   UNL     1       9.497   2.965  21.456  0.00  0.00    +0.145 HD
ATOM     26  O   UNL     1      11.086   1.390  23.669  0.00  0.00    -0.276 OA
ENDBRANCH  21  22
ENDBRANCH   6  21
ENDBRANCH   4   6
ENDBRANCH   1   2
BRANCH   1  27
ATOM     27  C   UNL     1       4.260   2.334  25.759  0.00  0.00    +0.149 C 
BRANCH  27  28
ATOM     28  O   UNL     1       3.179   2.415  26.701  0.00  0.00    -0.389 OA
ATOM     29  H   UNL     1       3.529   2.154  27.570  0.00  0.00    +0.210 HD
ENDBRANCH  27  28
BRANCH  27  30
ATOM     30  C   UNL     1       3.963   3.110  24.460  0.00  0.00    +0.118 C 
BRANCH  30  32
ATOM     31  C   UNL     1       3.613   5.370  23.456  0.00  0.00    +0.143 C 
ATOM     32  N   UNL     1       3.883   4.581  24.697  0.00  0.00    -0.289 NA
ATOM     33  C   UNL     1       5.112   5.122  25.356  0.00  0.00    +0.089 C 
ATOM     34  C   UNL     1       6.362   5.108  24.451  0.00  0.00    +0.006 C 
ATOM     35  C   UNL     1       6.093   6.028  23.256  0.00  0.00    -0.005 C 
ATOM     36  C   UNL     1       7.277   6.073  22.284  0.00  0.00    +0.004 C 
ATOM     37  C   UNL     1       8.578   6.438  22.991  0.00  0.00    +0.000 C 
ATOM     38  C   UNL     1       8.836   5.529  24.189  0.00  0.00    +0.000 C 
ATOM     39  C   UNL     1       7.653   5.534  25.165  0.00  0.00    +0.005 C 
ATOM     40  C   UNL     1       4.841   5.549  22.536  0.00  0.00    +0.032 C 
BRANCH  31  43
ATOM     41  N   UNL     1       2.757   4.548  21.254  0.00  0.00    -0.309 N 
ATOM     42  H   UNL     1       3.698   4.748  20.932  0.00  0.00    +0.149 HD
ATOM     43  C   UNL     1       2.476   4.797  22.581  0.00  0.00    +0.231 C 
ATOM     44  O   UNL     1       1.374   4.547  23.057  0.00  0.00    -0.274 OA
BRANCH  41  46
ATOM     45  C   UNL     1       1.479   2.477  20.721  0.00  0.00    +0.031 C 
ATOM     46  C   UNL     1       1.768   3.943  20.340  0.00  0.00    +0.026 C 
ATOM     47  C   UNL     1       0.443   4.717  20.430  0.00  0.00    +0.031 C 
ATOM     48  C   UNL     1       2.267   4.014  18.883  0.00  0.00    +0.031 C 
ENDBRANCH  41  46
ENDBRANCH  31  43
ENDBRANCH  30  32
ENDBRANCH  27  30
ENDBRANCH   1  27
BRANCH   1  49
ATOM     49  C   UNL     1       4.679  -0.047  26.841  0.00  0.00    +0.060 C 
BRANCH  49  50
ATOM     50  C   UNL     1       4.919  -1.520  26.592  0.00  0.00    -0.046 A 
ATOM     51  C   UNL     1       4.295  -2.171  25.514  0.00  0.00    +0.004 A 
ATOM     52  C   UNL     1       4.575  -3.506  25.226  0.00  0.00    +0.000 A 
ATOM     53  C   UNL     1       5.463  -4.214  26.030  0.00  0.00    +0.000 A 
ATOM     54  C   UNL     1       6.063  -3.590  27.123  0.00  0.00    +0.000 A 
ATOM     55  C   UNL     1       5.787  -2.251  27.408  0.00  0.00    +0.004 A 
ENDBRANCH  49  50
ENDBRANCH   1  49
TORSDOF 14
ENDMDL
MODEL 9
REMARK VINA RESULT:      -6.1      1.727      2.393
REMARK  Name = 
REMARK  17 active torsions:
REMARK  status: ('A' for Active; 'I' for Inactive)
REMARK    1  A    between atoms: C_1  and  C_2
REMARK    2  A    between atoms: C_2  and  C_3
REMARK    3  A    between atoms: C_2  and  C_4
REMARK    4  A    between atoms: C_2  and  N_5
REMARK    5  A    between atoms: C_6  and  C_8
REMARK    6  A    between atoms: N_20  and  C_21
REMARK    7  A    between atoms: C_21  and  C_22
REMARK    8  A    between atoms: C_22  and  C_24
REMARK    9  A    between atoms: C_22  and  O_55
REMARK   10  A    between atoms: C_24  and  C_26
REMARK   11  A    between atoms: C_24  and  N_33
REMARK   12  A    between atoms: C_26  and  C_27
REMARK   13  A    between atoms: C_34  and  C_36
REMARK   14  A    between atoms: C_36  and  C_38
REMARK   15  A    between atoms: C_36  and  N_42
REMARK   16  A    between atoms: C_38  and  C_39
REMARK   17  A    between atoms: C_43  and  C_45
REMARK                            x       y       z     vdW  Elec       q    Type
REMARK                         _______ _______ _______ _____ _____    ______ ____
ROOT
ATOM      1  C   UNL     1       4.845  -3.702  24.490  0.00  0.00    +0.107 C 
ENDROOT
BRANCH   1   2
ATOM      2  N   UNL     1       6.288  -3.855  24.636  0.00  0.00    -0.308 N 
ATOM      3  H   UNL     1       6.671  -3.395  25.459  0.00  0.00    +0.149 HD
ATOM      4  C   UNL     1       7.128  -4.572  23.834  0.00  0.00    +0.234 C 
ATOM      5  O   UNL     1       6.760  -5.383  22.991  0.00  0.00    -0.274 OA
BRANCH   4   6
ATOM      6  C   UNL     1       8.590  -4.179  24.072  0.00  0.00    +0.168 C 
BRANCH   6   7
ATOM      7  N   UNL     1       8.675  -2.762  24.365  0.00  0.00    -0.298 N 
ATOM      8  H   UNL     1       7.975  -2.317  24.954  0.00  0.00    +0.150 HD
ATOM      9  C   UNL     1       9.613  -1.977  23.732  0.00  0.00    +0.263 C 
ATOM     10  O   UNL     1      10.441  -2.438  22.954  0.00  0.00    -0.269 OA
BRANCH   9  11
ATOM     11  C   UNL     1       9.568  -0.518  24.030  0.00  0.00    +0.126 A 
ATOM     12  C   UNL     1      10.672   0.240  23.684  0.00  0.00    +0.033 A 
ATOM     13  C   UNL     1      10.601   1.607  23.886  0.00  0.00    +0.012 A 
ATOM     14  C   UNL     1       9.435   2.164  24.415  0.00  0.00    +0.000 A 
ATOM     15  C   UNL     1       8.366   1.301  24.764  0.00  0.00    +0.072 A 
ATOM     16  C   UNL     1       7.215   1.875  25.287  0.00  0.00    +0.028 A 
ATOM     17  C   UNL     1       7.092   3.258  25.448  0.00  0.00    +0.002 A 
ATOM     18  C   UNL     1       8.142   4.096  25.091  0.00  0.00    +0.001 A 
ATOM     19  C   UNL     1       9.316   3.550  24.582  0.00  0.00    +0.010 A 
ATOM     20  N   UNL     1       8.431  -0.032  24.587  0.00  0.00    -0.242 NA
ENDBRANCH   9  11
ENDBRANCH   6   7
BRANCH   6  21
ATOM     21  C   UNL     1       9.172  -5.043  25.201  0.00  0.00    +0.127 C 
BRANCH  21  22
ATOM     22  C   UNL     1       8.537  -4.792  26.550  0.00  0.00    +0.213 C 
ATOM     23  N   UNL     1       8.029  -5.885  27.188  0.00  0.00    -0.329 N 
ATOM     24  H   UNL     1       7.688  -5.732  28.130  0.00  0.00    +0.145 HD
ATOM     25  H   UNL     1       8.335  -6.823  26.955  0.00  0.00    +0.145 HD
ATOM     26  O   UNL     1       8.454  -3.680  27.062  0.00  0.00    -0.276 OA
ENDBRANCH  21  22
ENDBRANCH   6  21
ENDBRANCH   4   6
ENDBRANCH   1   2
BRANCH   1  27
ATOM     27  C   UNL     1       4.545  -2.328  25.136  0.00  0.00    +0.149 C 
BRANCH  27  28
ATOM     28  O   UNL     1       5.760  -1.589  25.337  0.00  0.00    -0.389 OA
ATOM     29  H   UNL     1       5.512  -0.684  25.593  0.00  0.00    +0.210 HD
ENDBRANCH  27  28
BRANCH  27  30
ATOM     30  C   UNL     1       3.649  -2.333  26.390  0.00  0.00    +0.118 C 
BRANCH  30  32
ATOM     31  C   UNL     1       4.149  -2.529  28.829  0.00  0.00    +0.143 C 
ATOM     32  N   UNL     1       4.342  -1.743  27.572  0.00  0.00    -0.289 NA
ATOM     33  C   UNL     1       3.939  -0.324  27.822  0.00  0.00    +0.089 C 
ATOM     34  C   UNL     1       2.484  -0.167  28.313  0.00  0.00    +0.006 C 
ATOM     35  C   UNL     1       2.360  -0.879  29.664  0.00  0.00    -0.005 C 
ATOM     36  C   UNL     1       0.940  -0.791  30.235  0.00  0.00    +0.004 C 
ATOM     37  C   UNL     1       0.448   0.650  30.311  0.00  0.00    +0.000 C 
ATOM     38  C   UNL     1       0.586   1.360  28.968  0.00  0.00    +0.000 C 
ATOM     39  C   UNL     1       2.024   1.292  28.440  0.00  0.00    +0.005 C 
ATOM     40  C   UNL     1       2.770  -2.334  29.497  0.00  0.00    +0.032 C 
BRANCH  31  43
ATOM     41  N   UNL     1       3.235  -4.855  28.717  0.00  0.00    -0.309 N 
ATOM     42  H   UNL     1       2.341  -4.398  28.861  0.00  0.00    +0.149 HD
ATOM     43  C   UNL     1       4.354  -4.050  28.658  0.00  0.00    +0.231 C 
ATOM     44  O   UNL     1       5.467  -4.521  28.449  0.00  0.00    -0.274 OA
BRANCH  41  46
ATOM     45  C   UNL     1       2.074  -6.822  27.721  0.00  0.00    +0.031 C 
ATOM     46  C   UNL     1       3.302  -6.314  28.504  0.00  0.00    +0.026 C 
ATOM     47  C   UNL     1       4.554  -6.655  27.678  0.00  0.00    +0.031 C 
ATOM     48  C   UNL     1       3.402  -7.052  29.853  0.00  0.00    +0.031 C 
ENDBRANCH  41  46
ENDBRANCH  31  43
ENDBRANCH  30  32
ENDBRANCH  27  30
ENDBRANCH   1  27
BRANCH   1  49
ATOM     49  C   UNL     1       4.062  -4.929  25.003  0.00  0.00    +0.060 C 
BRANCH  49  50
ATOM     50  C   UNL     1       2.813  -5.292  24.230  0.00  0.00    -0.046 A 
ATOM     51  C   UNL     1       1.604  -4.622  24.477  0.00  0.00    +0.004 A 
ATOM     52  C   UNL     1       0.468  -4.891  23.712  0.00  0.00    +0.000 A 
ATOM     53  C   UNL     1       0.523  -5.853  22.710  0.00  0.00    +0.000 A 
ATOM     54  C   UNL     1       1.708  -6.551  22.477  0.00  0.00    +0.000 A 
ATOM     55  C   UNL     1       2.847  -6.277  23.239  0.00  0.00    +0.004 A 
ENDBRANCH  49  50
ENDBRANCH   1  49
TORSDOF 14
ENDMDL
