MODEL 1
REMARK VINA RESULT:      -8.8      0.000      0.000
REMARK  Name = 
REMARK  5 active torsions:
REMARK  status: ('A' for Active; 'I' for Inactive)
REMARK    1  A    between atoms: C_1  and  C_2
REMARK    2  A    between atoms: C_11  and  O_30
REMARK    3  A    between atoms: C_14  and  C_18
REMARK    4  A    between atoms: N_20  and  C_21
REMARK    5  A    between atoms: C_21  and  C_22
REMARK                            x       y       z     vdW  Elec       q    Type
REMARK                         _______ _______ _______ _____ _____    ______ ____
ROOT
ATOM      1  C   UNL     1       6.046  -5.484  26.052  0.00  0.00    +0.028 C 
ATOM      2  C   UNL     1       6.590  -5.196  24.574  0.00  0.00    +0.078 C 
ATOM      3  N   UNL     1       7.057  -4.186  23.547  0.00  0.00    -0.266 N 
ATOM      4  C   UNL     1       8.270  -3.444  23.602  0.00  0.00    +0.269 C 
ATOM      5  C   UNL     1       8.112  -1.929  23.161  0.00  0.00    +0.151 A 
ATOM      6  N   UNL     1       6.859  -1.344  23.456  0.00  0.00    -0.335 N 
ATOM      7  C   UNL     1       5.664  -2.195  23.464  0.00  0.00    +0.173 C 
ATOM      8  C   UNL     1       6.678   0.011  23.360  0.00  0.00    +0.103 A 
ATOM      9  C   UNL     1       7.507   0.884  22.770  0.00  0.00    +0.103 A 
ATOM     10  C   UNL     1       8.673   0.225  22.081  0.00  0.00    +0.236 A 
ATOM     11  O   UNL     1       9.337   0.727  21.175  0.00  0.00    -0.283 OA
ATOM     12  C   UNL     1       9.027  -1.222  22.463  0.00  0.00    +0.194 A 
ATOM     13  O   UNL     1       9.323  -3.902  24.028  0.00  0.00    -0.268 OA
ATOM     14  C   UNL     1       6.034  -3.497  22.751  0.00  0.00    +0.228 C 
ATOM     15  O   UNL     1       4.899  -4.264  22.389  0.00  0.00    -0.357 OA
ATOM     16  C   UNL     1       4.425  -5.092  23.424  0.00  0.00    +0.164 C 
ATOM     17  C   UNL     1       5.565  -6.017  23.771  0.00  0.00    +0.050 C 
ENDROOT
BRANCH   9  18
ATOM     18  C   UNL     1       6.984   2.292  22.843  0.00  0.00    +0.250 C 
ATOM     19  N   UNL     1       7.390   3.214  23.745  0.00  0.00    -0.307 N 
ATOM     20  H   UNL     1       6.913   4.104  23.652  0.00  0.00    +0.149 HD
ATOM     21  O   UNL     1       6.078   2.669  22.085  0.00  0.00    -0.270 OA
BRANCH  19  22
ATOM     22  C   UNL     1       8.483   3.107  24.662  0.00  0.00    +0.142 C 
BRANCH  22  23
ATOM     23  C   UNL     1       9.671   3.929  24.275  0.00  0.00    +0.005 A 
ATOM     24  C   UNL     1       9.627   5.328  24.373  0.00  0.00    +0.011 A 
ATOM     25  C   UNL     1      10.692   6.093  23.899  0.00  0.00    +0.039 A 
ATOM     26  C   UNL     1      11.795   5.454  23.341  0.00  0.00    +0.126 A 
ATOM     27  F   UNL     1      12.800   6.193  22.850  0.00  0.00    -0.205 F 
ATOM     28  C   UNL     1      11.870   4.070  23.260  0.00  0.00    +0.077 A 
ATOM     29  C   UNL     1      10.808   3.316  23.736  0.00  0.00    +0.131 A 
ATOM     30  F   UNL     1      10.862   1.979  23.638  0.00  0.00    -0.205 F 
ENDBRANCH  22  23
ENDBRANCH  19  22
ENDBRANCH   9  18
BRANCH  12  31
ATOM     31  O   UNL     1      10.140  -1.806  21.885  0.00  0.00    -0.502 OA
ATOM     32  H   UNL     1      10.302  -2.623  22.401  0.00  0.00    +0.292 HD
ENDBRANCH  12  31
TORSDOF 4
ENDMDL
MODEL 2
REMARK VINA RESULT:      -8.4      3.150      7.954
REMARK  Name = 
REMARK  5 active torsions:
REMARK  status: ('A' for Active; 'I' for Inactive)
REMARK    1  A    between atoms: C_1  and  C_2
REMARK    2  A    between atoms: C_11  and  O_30
REMARK    3  A    between atoms: C_14  and  C_18
REMARK    4  A    between atoms: N_20  and  C_21
REMARK    5  A    between atoms: C_21  and  C_22
REMARK                            x       y       z     vdW  Elec       q    Type
REMARK                         _______ _______ _______ _____ _____    ______ ____
ROOT
ATOM      1  C   UNL     1       6.215   3.877  22.235  0.00  0.00    +0.028 C 
ATOM      2  C   UNL     1       7.695   3.291  22.408  0.00  0.00    +0.078 C 
ATOM      3  N   UNL     1       8.584   2.134  22.812  0.00  0.00    -0.266 N 
ATOM      4  C   UNL     1       8.713   0.901  22.113  0.00  0.00    +0.269 C 
ATOM      5  C   UNL     1       8.778  -0.368  23.062  0.00  0.00    +0.151 A 
ATOM      6  N   UNL     1       8.039  -0.259  24.263  0.00  0.00    -0.335 N 
ATOM      7  C   UNL     1       7.878   1.064  24.878  0.00  0.00    +0.173 C 
ATOM      8  C   UNL     1       7.805  -1.359  25.045  0.00  0.00    +0.103 A 
ATOM      9  C   UNL     1       8.410  -2.552  24.940  0.00  0.00    +0.103 A 
ATOM     10  C   UNL     1       9.509  -2.573  23.912  0.00  0.00    +0.236 A 
ATOM     11  O   UNL     1      10.441  -3.376  23.886  0.00  0.00    -0.283 OA
ATOM     12  C   UNL     1       9.540  -1.461  22.849  0.00  0.00    +0.194 A 
ATOM     13  O   UNL     1       8.693   0.812  20.891  0.00  0.00    -0.268 OA
ATOM     14  C   UNL     1       8.913   1.988  24.235  0.00  0.00    +0.228 C 
ATOM     15  O   UNL     1       9.099   3.191  24.962  0.00  0.00    -0.357 OA
ATOM     16  C   UNL     1       8.165   4.193  24.641  0.00  0.00    +0.164 C 
ATOM     17  C   UNL     1       8.337   4.467  23.168  0.00  0.00    +0.050 C 
ENDROOT
BRANCH   9  18
ATOM     18  C   UNL     1       7.913  -3.525  25.973  0.00  0.00    +0.250 C 
ATOM     19  N   UNL     1       6.622  -3.909  26.104  0.00  0.00    -0.307 N 
ATOM     20  H   UNL     1       6.474  -4.560  26.868  0.00  0.00    +0.149 HD
ATOM     21  O   UNL     1       8.684  -3.994  26.821  0.00  0.00    -0.270 OA
BRANCH  19  22
ATOM     22  C   UNL     1       5.538  -3.625  25.216  0.00  0.00    +0.142 C 
BRANCH  22  23
ATOM     23  C   UNL     1       5.677  -4.274  23.875  0.00  0.00    +0.005 A 
ATOM     24  C   UNL     1       5.777  -5.669  23.771  0.00  0.00    +0.011 A 
ATOM     25  C   UNL     1       6.026  -6.259  22.532  0.00  0.00    +0.039 A 
ATOM     26  C   UNL     1       6.163  -5.451  21.407  0.00  0.00    +0.126 A 
ATOM     27  F   UNL     1       6.443  -6.017  20.225  0.00  0.00    -0.205 F 
ATOM     28  C   UNL     1       6.041  -4.070  21.485  0.00  0.00    +0.077 A 
ATOM     29  C   UNL     1       5.790  -3.492  22.720  0.00  0.00    +0.131 A 
ATOM     30  F   UNL     1       5.696  -2.156  22.808  0.00  0.00    -0.205 F 
ENDBRANCH  22  23
ENDBRANCH  19  22
ENDBRANCH   9  18
BRANCH  12  31
ATOM     31  O   UNL     1      10.506  -1.517  21.860  0.00  0.00    -0.502 OA
ATOM     32  H   UNL     1      11.310  -1.860  22.301  0.00  0.00    +0.292 HD
ENDBRANCH  12  31
TORSDOF 4
ENDMDL
MODEL 3
REMARK VINA RESULT:      -8.4      3.237      5.357
REMARK  Name = 
REMARK  5 active torsions:
REMARK  status: ('A' for Active; 'I' for Inactive)
REMARK    1  A    between atoms: C_1  and  C_2
REMARK    2  A    between atoms: C_11  and  O_30
REMARK    3  A    between atoms: C_14  and  C_18
REMARK    4  A    between atoms: N_20  and  C_21
REMARK    5  A    between atoms: C_21  and  C_22
REMARK                            x       y       z     vdW  Elec       q    Type
REMARK                         _______ _______ _______ _____ _____    ______ ____
ROOT
ATOM      1  C   UNL     1       2.548  -7.179  28.518  0.00  0.00    +0.028 C 
ATOM      2  C   UNL     1       2.484  -6.458  27.090  0.00  0.00    +0.078 C 
ATOM      3  N   UNL     1       3.227  -5.874  25.907  0.00  0.00    -0.266 N 
ATOM      4  C   UNL     1       3.974  -6.613  24.947  0.00  0.00    +0.269 C 
ATOM      5  C   UNL     1       5.340  -5.922  24.531  0.00  0.00    +0.151 A 
ATOM      6  N   UNL     1       5.965  -5.166  25.549  0.00  0.00    -0.335 N 
ATOM      7  C   UNL     1       5.128  -4.504  26.556  0.00  0.00    +0.173 C 
ATOM      8  C   UNL     1       7.257  -4.731  25.407  0.00  0.00    +0.103 A 
ATOM      9  C   UNL     1       7.974  -4.728  24.274  0.00  0.00    +0.103 A 
ATOM     10  C   UNL     1       7.183  -5.160  23.068  0.00  0.00    +0.236 A 
ATOM     11  O   UNL     1       7.463  -4.887  21.901  0.00  0.00    -0.283 OA
ATOM     12  C   UNL     1       5.871  -5.931  23.290  0.00  0.00    +0.194 A 
ATOM     13  O   UNL     1       3.640  -7.717  24.536  0.00  0.00    -0.268 OA
ATOM     14  C   UNL     1       3.699  -4.488  26.012  0.00  0.00    +0.228 C 
ATOM     15  O   UNL     1       2.856  -3.590  26.715  0.00  0.00    -0.357 OA
ATOM     16  C   UNL     1       2.292  -4.143  27.880  0.00  0.00    +0.164 C 
ATOM     17  C   UNL     1       1.486  -5.335  27.426  0.00  0.00    +0.050 C 
ENDROOT
BRANCH   9  18
ATOM     18  C   UNL     1       9.354  -4.169  24.485  0.00  0.00    +0.250 C 
ATOM     19  N   UNL     1       9.805  -3.017  23.938  0.00  0.00    -0.307 N 
ATOM     20  H   UNL     1      10.768  -2.809  24.180  0.00  0.00    +0.149 HD
ATOM     21  O   UNL     1      10.192  -4.792  25.151  0.00  0.00    -0.270 OA
BRANCH  19  22
ATOM     22  C   UNL     1       9.044  -2.040  23.223  0.00  0.00    +0.142 C 
BRANCH  22  23
ATOM     23  C   UNL     1       9.651  -0.673  23.247  0.00  0.00    +0.005 A 
ATOM     24  C   UNL     1      10.175  -0.153  24.441  0.00  0.00    +0.011 A 
ATOM     25  C   UNL     1      10.631   1.164  24.485  0.00  0.00    +0.039 A 
ATOM     26  C   UNL     1      10.568   1.946  23.335  0.00  0.00    +0.126 A 
ATOM     27  F   UNL     1      10.969   3.224  23.391  0.00  0.00    -0.205 F 
ATOM     28  C   UNL     1      10.077   1.442  22.138  0.00  0.00    +0.077 A 
ATOM     29  C   UNL     1       9.630   0.130  22.102  0.00  0.00    +0.131 A 
ATOM     30  F   UNL     1       9.131  -0.357  20.956  0.00  0.00    -0.205 F 
ENDBRANCH  22  23
ENDBRANCH  19  22
ENDBRANCH   9  18
BRANCH  12  31
ATOM     31  O   UNL     1       5.178  -6.392  22.185  0.00  0.00    -0.502 OA
ATOM     32  H   UNL     1       5.702  -6.104  21.409  0.00  0.00    +0.292 HD
ENDBRANCH  12  31
TORSDOF 4
ENDMDL
MODEL 4
REMARK VINA RESULT:      -8.3      2.897      5.035
REMARK  Name = 
REMARK  5 active torsions:
REMARK  status: ('A' for Active; 'I' for Inactive)
REMARK    1  A    between atoms: C_1  and  C_2
REMARK    2  A    between atoms: C_11  and  O_30
REMARK    3  A    between atoms: C_14  and  C_18
REMARK    4  A    between atoms: N_20  and  C_21
REMARK    5  A    between atoms: C_21  and  C_22
REMARK                            x       y       z     vdW  Elec       q    Type
REMARK                         _______ _______ _______ _____ _____    ______ ____
ROOT
ATOM      1  C   UNL     1       2.372  -4.574  29.316  0.00  0.00    +0.028 C 
ATOM      2  C   UNL     1       3.387  -5.657  28.716  0.00  0.00    +0.078 C 
ATOM      3  N   UNL     1       4.493  -5.982  27.734  0.00  0.00    -0.266 N 
ATOM      4  C   UNL     1       5.828  -5.494  27.794  0.00  0.00    +0.269 C 
ATOM      5  C   UNL     1       6.422  -5.083  26.382  0.00  0.00    +0.151 A 
ATOM      6  N   UNL     1       5.478  -4.579  25.456  0.00  0.00    -0.335 N 
ATOM      7  C   UNL     1       4.096  -5.069  25.516  0.00  0.00    +0.173 C 
ATOM      8  C   UNL     1       5.888  -3.958  24.305  0.00  0.00    +0.103 A 
ATOM      9  C   UNL     1       7.128  -3.967  23.795  0.00  0.00    +0.103 A 
ATOM     10  C   UNL     1       8.079  -4.848  24.560  0.00  0.00    +0.236 A 
ATOM     11  O   UNL     1       9.119  -5.328  24.110  0.00  0.00    -0.283 OA
ATOM     12  C   UNL     1       7.701  -5.267  25.991  0.00  0.00    +0.194 A 
ATOM     13  O   UNL     1       6.440  -5.327  28.842  0.00  0.00    -0.268 OA
ATOM     14  C   UNL     1       4.106  -6.341  26.364  0.00  0.00    +0.228 C 
ATOM     15  O   UNL     1       2.917  -7.100  26.226  0.00  0.00    -0.357 OA
ATOM     16  C   UNL     1       1.876  -6.673  27.071  0.00  0.00    +0.164 C 
ATOM     17  C   UNL     1       2.399  -6.814  28.479  0.00  0.00    +0.050 C 
ENDROOT
BRANCH   9  18
ATOM     18  C   UNL     1       7.211  -3.190  22.511  0.00  0.00    +0.250 C 
ATOM     19  N   UNL     1       8.163  -2.268  22.234  0.00  0.00    -0.307 N 
ATOM     20  H   UNL     1       8.048  -1.835  21.325  0.00  0.00    +0.149 HD
ATOM     21  O   UNL     1       6.345  -3.322  21.636  0.00  0.00    -0.270 OA
BRANCH  19  22
ATOM     22  C   UNL     1       9.340  -1.982  22.994  0.00  0.00    +0.142 C 
BRANCH  22  23
ATOM     23  C   UNL     1       9.642  -0.521  23.102  0.00  0.00    +0.005 A 
ATOM     24  C   UNL     1       9.740   0.268  21.946  0.00  0.00    +0.011 A 
ATOM     25  C   UNL     1      10.139   1.601  22.044  0.00  0.00    +0.039 A 
ATOM     26  C   UNL     1      10.426   2.135  23.297  0.00  0.00    +0.126 A 
ATOM     27  F   UNL     1      10.849   3.405  23.385  0.00  0.00    -0.205 F 
ATOM     28  C   UNL     1      10.310   1.378  24.455  0.00  0.00    +0.077 A 
ATOM     29  C   UNL     1       9.909   0.055  24.349  0.00  0.00    +0.131 A 
ATOM     30  F   UNL     1       9.818  -0.690  25.460  0.00  0.00    -0.205 F 
ENDBRANCH  22  23
ENDBRANCH  19  22
ENDBRANCH   9  18
BRANCH  12  31
ATOM     31  O   UNL     1       8.604  -6.017  26.723  0.00  0.00    -0.502 OA
ATOM     32  H   UNL     1       8.360  -6.951  26.558  0.00  0.00    +0.292 HD
ENDBRANCH  12  31
TORSDOF 4
ENDMDL
MODEL 5
REMARK VINA RESULT:      -8.1      2.451      3.878
REMARK  Name = 
REMARK  5 active torsions:
REMARK  status: ('A' for Active; 'I' for Inactive)
REMARK    1  A    between atoms: C_1  and  C_2
REMARK    2  A    between atoms: C_11  and  O_30
REMARK    3  A    between atoms: C_14  and  C_18
REMARK    4  A    between atoms: N_20  and  C_21
REMARK    5  A    between atoms: C_21  and  C_22
REMARK                            x       y       z     vdW  Elec       q    Type
REMARK                         _______ _______ _______ _____ _____    ______ ____
ROOT
ATOM      1  C   UNL     1       2.265  -4.968  23.796  0.00  0.00    +0.028 C 
ATOM      2  C   UNL     1       3.280  -4.590  24.976  0.00  0.00    +0.078 C 
ATOM      3  N   UNL     1       4.568  -3.917  25.402  0.00  0.00    -0.266 N 
ATOM      4  C   UNL     1       4.807  -2.514  25.418  0.00  0.00    +0.269 C 
ATOM      5  C   UNL     1       6.250  -2.108  24.898  0.00  0.00    +0.151 A 
ATOM      6  N   UNL     1       6.790  -2.951  23.900  0.00  0.00    -0.335 N 
ATOM      7  C   UNL     1       6.424  -4.373  23.900  0.00  0.00    +0.173 C 
ATOM      8  C   UNL     1       7.902  -2.577  23.192  0.00  0.00    +0.103 A 
ATOM      9  C   UNL     1       8.731  -1.567  23.490  0.00  0.00    +0.103 A 
ATOM     10  C   UNL     1       8.402  -0.893  24.796  0.00  0.00    +0.236 A 
ATOM     11  O   UNL     1       9.190  -0.231  25.471  0.00  0.00    -0.283 OA
ATOM     12  C   UNL     1       7.003  -1.105  25.398  0.00  0.00    +0.194 A 
ATOM     13  O   UNL     1       3.957  -1.687  25.724  0.00  0.00    -0.268 OA
ATOM     14  C   UNL     1       5.814  -4.680  25.268  0.00  0.00    +0.228 C 
ATOM     15  O   UNL     1       5.729  -6.071  25.529  0.00  0.00    -0.357 OA
ATOM     16  C   UNL     1       4.574  -6.674  24.998  0.00  0.00    +0.164 C 
ATOM     17  C   UNL     1       3.405  -5.972  25.643  0.00  0.00    +0.050 C 
ENDROOT
BRANCH   9  18
ATOM     18  C   UNL     1       9.855  -1.453  22.499  0.00  0.00    +0.250 C 
ATOM     19  N   UNL     1       9.866  -0.600  21.448  0.00  0.00    -0.307 N 
ATOM     20  H   UNL     1      10.702  -0.677  20.879  0.00  0.00    +0.149 HD
ATOM     21  O   UNL     1      10.837  -2.205  22.568  0.00  0.00    -0.270 OA
BRANCH  19  22
ATOM     22  C   UNL     1       8.937   0.451  21.175  0.00  0.00    +0.142 C 
BRANCH  22  23
ATOM     23  C   UNL     1       9.164   1.680  21.998  0.00  0.00    +0.005 A 
ATOM     24  C   UNL     1      10.429   1.941  22.544  0.00  0.00    +0.011 A 
ATOM     25  C   UNL     1      10.605   3.023  23.406  0.00  0.00    +0.039 A 
ATOM     26  C   UNL     1       9.518   3.839  23.707  0.00  0.00    +0.126 A 
ATOM     27  F   UNL     1       9.680   4.854  24.568  0.00  0.00    -0.205 F 
ATOM     28  C   UNL     1       8.264   3.613  23.155  0.00  0.00    +0.077 A 
ATOM     29  C   UNL     1       8.099   2.537  22.296  0.00  0.00    +0.131 A 
ATOM     30  F   UNL     1       6.885   2.297  21.778  0.00  0.00    -0.205 F 
ENDBRANCH  22  23
ENDBRANCH  19  22
ENDBRANCH   9  18
BRANCH  12  31
ATOM     31  O   UNL     1       6.672  -0.431  26.560  0.00  0.00    -0.502 OA
ATOM     32  H   UNL     1       5.973  -0.970  26.984  0.00  0.00    +0.292 HD
ENDBRANCH  12  31
TORSDOF 4
ENDMDL
MODEL 6
REMARK VINA RESULT:      -7.8      1.865      2.128
REMARK  Name = 
REMARK  5 active torsions:
REMARK  status: ('A' for Active; 'I' for Inactive)
REMARK    1  A    between atoms: C_1  and  C_2
REMARK    2  A    between atoms: C_11  and  O_30
REMARK    3  A    between atoms: C_14  and  C_18
REMARK    4  A    between atoms: N_20  and  C_21
REMARK    5  A    between atoms: C_21  and  C_22
REMARK                            x       y       z     vdW  Elec       q    Type
REMARK                         _______ _______ _______ _____ _____    ______ ____
ROOT
ATOM      1  C   UNL     1       5.184  -6.578  25.329  0.00  0.00    +0.028 C 
ATOM      2  C   UNL     1       6.023  -5.860  24.170  0.00  0.00    +0.078 C 
ATOM      3  N   UNL     1       6.831  -4.661  23.718  0.00  0.00    -0.266 N 
ATOM      4  C   UNL     1       8.123  -4.302  24.193  0.00  0.00    +0.269 C 
ATOM      5  C   UNL     1       8.308  -2.745  24.426  0.00  0.00    +0.151 A 
ATOM      6  N   UNL     1       7.141  -2.054  24.828  0.00  0.00    -0.335 N 
ATOM      7  C   UNL     1       5.835  -2.540  24.365  0.00  0.00    +0.173 C 
ATOM      8  C   UNL     1       7.213  -0.771  25.302  0.00  0.00    +0.103 A 
ATOM      9  C   UNL     1       8.271   0.049  25.217  0.00  0.00    +0.103 A 
ATOM     10  C   UNL     1       9.410  -0.530  24.422  0.00  0.00    +0.236 A 
ATOM     11  O   UNL     1      10.301   0.123  23.880  0.00  0.00    -0.283 OA
ATOM     12  C   UNL     1       9.439  -2.049  24.182  0.00  0.00    +0.194 A 
ATOM     13  O   UNL     1       8.990  -5.120  24.476  0.00  0.00    -0.268 OA
ATOM     14  C   UNL     1       6.099  -3.498  23.203  0.00  0.00    +0.228 C 
ATOM     15  O   UNL     1       4.932  -3.776  22.447  0.00  0.00    -0.357 OA
ATOM     16  C   UNL     1       4.148  -4.813  22.983  0.00  0.00    +0.164 C 
ATOM     17  C   UNL     1       5.032  -6.035  23.005  0.00  0.00    +0.050 C 
ENDROOT
BRANCH   9  18
ATOM     18  C   UNL     1       7.991   1.391  25.835  0.00  0.00    +0.250 C 
ATOM     19  N   UNL     1       8.242   2.577  25.236  0.00  0.00    -0.307 N 
ATOM     20  H   UNL     1       8.003   3.377  25.813  0.00  0.00    +0.149 HD
ATOM     21  O   UNL     1       7.552   1.475  26.991  0.00  0.00    -0.270 OA
BRANCH  19  22
ATOM     22  C   UNL     1       8.640   2.797  23.880  0.00  0.00    +0.142 C 
BRANCH  22  23
ATOM     23  C   UNL     1       9.735   3.806  23.734  0.00  0.00    +0.005 A 
ATOM     24  C   UNL     1      11.029   3.399  23.376  0.00  0.00    +0.011 A 
ATOM     25  C   UNL     1      12.070   4.327  23.358  0.00  0.00    +0.039 A 
ATOM     26  C   UNL     1      11.807   5.654  23.687  0.00  0.00    +0.126 A 
ATOM     27  F   UNL     1      12.817   6.535  23.708  0.00  0.00    -0.205 F 
ATOM     28  C   UNL     1      10.528   6.081  24.018  0.00  0.00    +0.077 A 
ATOM     29  C   UNL     1       9.498   5.153  24.030  0.00  0.00    +0.131 A 
ATOM     30  F   UNL     1       8.264   5.553  24.373  0.00  0.00    -0.205 F 
ENDBRANCH  22  23
ENDBRANCH  19  22
ENDBRANCH   9  18
BRANCH  12  31
ATOM     31  O   UNL     1      10.520  -2.594  23.513  0.00  0.00    -0.502 OA
ATOM     32  H   UNL     1      10.319  -3.549  23.426  0.00  0.00    +0.292 HD
ENDBRANCH  12  31
TORSDOF 4
ENDMDL
MODEL 7
REMARK VINA RESULT:      -7.7      3.173      7.470
REMARK  Name = 
REMARK  5 active torsions:
REMARK  status: ('A' for Active; 'I' for Inactive)
REMARK    1  A    between atoms: C_1  and  C_2
REMARK    2  A    between atoms: C_11  and  O_30
REMARK    3  A    between atoms: C_14  and  C_18
REMARK    4  A    between atoms: N_20  and  C_21
REMARK    5  A    between atoms: C_21  and  C_22
REMARK                            x       y       z     vdW  Elec       q    Type
REMARK                         _______ _______ _______ _____ _____    ______ ____
ROOT
ATOM      1  C   UNL     1       7.855   5.088  22.801  0.00  0.00    +0.028 C 
ATOM      2  C   UNL     1       8.680   3.925  23.530  0.00  0.00    +0.078 C 
ATOM      3  N   UNL     1       8.885   2.443  23.765  0.00  0.00    -0.266 N 
ATOM      4  C   UNL     1       9.372   1.509  22.809  0.00  0.00    +0.269 C 
ATOM      5  C   UNL     1       8.610   0.118  22.831  0.00  0.00    +0.151 A 
ATOM      6  N   UNL     1       7.243   0.186  23.186  0.00  0.00    -0.335 N 
ATOM      7  C   UNL     1       6.804   1.236  24.113  0.00  0.00    +0.173 C 
ATOM      8  C   UNL     1       6.416  -0.891  23.001  0.00  0.00    +0.103 A 
ATOM      9  C   UNL     1       6.796  -2.147  22.727  0.00  0.00    +0.103 A 
ATOM     10  C   UNL     1       8.290  -2.333  22.744  0.00  0.00    +0.236 A 
ATOM     11  O   UNL     1       8.869  -3.407  22.908  0.00  0.00    -0.283 OA
ATOM     12  C   UNL     1       9.185  -1.088  22.634  0.00  0.00    +0.194 A 
ATOM     13  O   UNL     1      10.242   1.774  21.988  0.00  0.00    -0.268 OA
ATOM     14  C   UNL     1       8.057   1.793  24.788  0.00  0.00    +0.228 C 
ATOM     15  O   UNL     1       7.761   2.565  25.940  0.00  0.00    -0.357 OA
ATOM     16  C   UNL     1       7.450   3.907  25.653  0.00  0.00    +0.164 C 
ATOM     17  C   UNL     1       8.666   4.478  24.967  0.00  0.00    +0.050 C 
ENDROOT
BRANCH   9  18
ATOM     18  C   UNL     1       5.619  -3.074  22.601  0.00  0.00    +0.250 C 
ATOM     19  N   UNL     1       4.952  -3.612  23.648  0.00  0.00    -0.307 N 
ATOM     20  H   UNL     1       4.196  -4.227  23.367  0.00  0.00    +0.149 HD
ATOM     21  O   UNL     1       5.225  -3.446  21.486  0.00  0.00    -0.270 OA
BRANCH  19  22
ATOM     22  C   UNL     1       5.104  -3.288  25.032  0.00  0.00    +0.142 C 
BRANCH  22  23
ATOM     23  C   UNL     1       6.417  -3.717  25.607  0.00  0.00    +0.005 A 
ATOM     24  C   UNL     1       7.302  -2.766  26.136  0.00  0.00    +0.011 A 
ATOM     25  C   UNL     1       8.572  -3.157  26.561  0.00  0.00    +0.039 A 
ATOM     26  C   UNL     1       8.941  -4.496  26.462  0.00  0.00    +0.126 A 
ATOM     27  F   UNL     1      10.176  -4.862  26.833  0.00  0.00    -0.205 F 
ATOM     28  C   UNL     1       8.070  -5.456  25.966  0.00  0.00    +0.077 A 
ATOM     29  C   UNL     1       6.808  -5.059  25.550  0.00  0.00    +0.131 A 
ATOM     30  F   UNL     1       5.969  -5.977  25.045  0.00  0.00    -0.205 F 
ENDBRANCH  22  23
ENDBRANCH  19  22
ENDBRANCH   9  18
BRANCH  12  31
ATOM     31  O   UNL     1      10.557  -1.260  22.576  0.00  0.00    -0.502 OA
ATOM     32  H   UNL     1      10.694  -2.087  22.069  0.00  0.00    +0.292 HD
ENDBRANCH  12  31
TORSDOF 4
ENDMDL
MODEL 8
REMARK VINA RESULT:      -7.7      4.884     10.079
REMARK  Name = 
REMARK  5 active torsions:
REMARK  status: ('A' for Active; 'I' for Inactive)
REMARK    1  A    between atoms: C_1  and  C_2
REMARK    2  A    between atoms: C_11  and  O_30
REMARK    3  A    between atoms: C_14  and  C_18
REMARK    4  A    between atoms: N_20  and  C_21
REMARK    5  A    between atoms: C_21  and  C_22
REMARK                            x       y       z     vdW  Elec       q    Type
REMARK                         _______ _______ _______ _____ _____    ______ ____
ROOT
ATOM      1  C   UNL     1       7.973   0.110  22.936  0.00  0.00    +0.028 C 
ATOM      2  C   UNL     1       8.091  -1.415  22.463  0.00  0.00    +0.078 C 
ATOM      3  N   UNL     1       7.680  -2.860  22.657  0.00  0.00    -0.266 N 
ATOM      4  C   UNL     1       6.389  -3.399  22.399  0.00  0.00    +0.269 C 
ATOM      5  C   UNL     1       5.899  -4.435  23.496  0.00  0.00    +0.151 A 
ATOM      6  N   UNL     1       6.360  -4.184  24.809  0.00  0.00    -0.335 N 
ATOM      7  C   UNL     1       7.668  -3.543  24.990  0.00  0.00    +0.173 C 
ATOM      8  C   UNL     1       5.817  -4.843  25.881  0.00  0.00    +0.103 A 
ATOM      9  C   UNL     1       5.022  -5.921  25.831  0.00  0.00    +0.103 A 
ATOM     10  C   UNL     1       4.840  -6.462  24.438  0.00  0.00    +0.236 A 
ATOM     11  O   UNL     1       4.502  -7.613  24.163  0.00  0.00    -0.283 OA
ATOM     12  C   UNL     1       5.179  -5.550  23.248  0.00  0.00    +0.194 A 
ATOM     13  O   UNL     1       5.682  -3.041  21.465  0.00  0.00    -0.268 OA
ATOM     14  C   UNL     1       8.409  -3.650  23.657  0.00  0.00    +0.228 C 
ATOM     15  O   UNL     1       9.796  -3.381  23.779  0.00  0.00    -0.357 OA
ATOM     16  C   UNL     1      10.111  -2.011  23.722  0.00  0.00    +0.164 C 
ATOM     17  C   UNL     1       9.624  -1.527  22.378  0.00  0.00    +0.050 C 
ENDROOT
BRANCH   9  18
ATOM     18  C   UNL     1       4.622  -6.386  27.204  0.00  0.00    +0.250 C 
ATOM     19  N   UNL     1       3.402  -6.187  27.754  0.00  0.00    -0.307 N 
ATOM     20  H   UNL     1       3.322  -6.557  28.695  0.00  0.00    +0.149 HD
ATOM     21  O   UNL     1       5.442  -6.946  27.945  0.00  0.00    -0.270 OA
BRANCH  19  22
ATOM     22  C   UNL     1       2.233  -5.676  27.109  0.00  0.00    +0.142 C 
BRANCH  22  23
ATOM     23  C   UNL     1       1.659  -6.605  26.086  0.00  0.00    +0.005 A 
ATOM     24  C   UNL     1       1.479  -7.963  26.387  0.00  0.00    +0.011 A 
ATOM     25  C   UNL     1       1.057  -8.846  25.393  0.00  0.00    +0.039 A 
ATOM     26  C   UNL     1       0.809  -8.361  24.111  0.00  0.00    +0.126 A 
ATOM     27  F   UNL     1       0.443  -9.218  23.148  0.00  0.00    -0.205 F 
ATOM     28  C   UNL     1       0.956  -7.016  23.801  0.00  0.00    +0.077 A 
ATOM     29  C   UNL     1       1.373  -6.145  24.796  0.00  0.00    +0.131 A 
ATOM     30  F   UNL     1       1.542  -4.848  24.498  0.00  0.00    -0.205 F 
ENDBRANCH  22  23
ENDBRANCH  19  22
ENDBRANCH   9  18
BRANCH  12  31
ATOM     31  O   UNL     1       4.945  -6.017  21.966  0.00  0.00    -0.502 OA
ATOM     32  H   UNL     1       5.665  -6.658  21.788  0.00  0.00    +0.292 HD
ENDBRANCH  12  31
TORSDOF 4
ENDMDL
MODEL 9
REMARK VINA RESULT:      -7.6      4.735      8.690
REMARK  Name = 
REMARK  5 active torsions:
REMARK  status: ('A' for Active; 'I' for Inactive)
REMARK    1  A    between atoms: C_1  and  C_2
REMARK    2  A    between atoms: C_11  and  O_30
REMARK    3  A    between atoms: C_14  and  C_18
REMARK    4  A    between atoms: N_20  and  C_21
REMARK    5  A    between atoms: C_21  and  C_22
REMARK                            x       y       z     vdW  Elec       q    Type
REMARK                         _______ _______ _______ _____ _____    ______ ____
ROOT
ATOM      1  C   UNL     1       9.105  -1.570  21.850  0.00  0.00    +0.028 C 
ATOM      2  C   UNL     1       9.542  -1.970  23.337  0.00  0.00    +0.078 C 
ATOM      3  N   UNL     1       9.143  -2.488  24.703  0.00  0.00    -0.266 N 
ATOM      4  C   UNL     1       8.731  -3.818  24.999  0.00  0.00    +0.269 C 
ATOM      5  C   UNL     1       7.513  -3.898  26.011  0.00  0.00    +0.151 A 
ATOM      6  N   UNL     1       6.594  -2.826  25.932  0.00  0.00    -0.335 N 
ATOM      7  C   UNL     1       7.083  -1.501  25.533  0.00  0.00    +0.173 C 
ATOM      8  C   UNL     1       5.379  -2.896  26.563  0.00  0.00    +0.103 A 
ATOM      9  C   UNL     1       5.014  -3.796  27.487  0.00  0.00    +0.103 A 
ATOM     10  C   UNL     1       6.133  -4.719  27.893  0.00  0.00    +0.236 A 
ATOM     11  O   UNL     1       6.185  -5.348  28.949  0.00  0.00    -0.283 OA
ATOM     12  C   UNL     1       7.357  -4.835  26.970  0.00  0.00    +0.194 A 
ATOM     13  O   UNL     1       9.213  -4.809  24.465  0.00  0.00    -0.268 OA
ATOM     14  C   UNL     1       8.606  -1.524  25.670  0.00  0.00    +0.228 C 
ATOM     15  O   UNL     1       9.177  -0.227  25.646  0.00  0.00    -0.357 OA
ATOM     16  C   UNL     1       9.408   0.263  24.348  0.00  0.00    +0.164 C 
ATOM     17  C   UNL     1      10.358  -0.714  23.698  0.00  0.00    +0.050 C 
ENDROOT
BRANCH   9  18
ATOM     18  C   UNL     1       3.610  -3.564  27.972  0.00  0.00    +0.250 C 
ATOM     19  N   UNL     1       2.565  -4.383  27.713  0.00  0.00    -0.307 N 
ATOM     20  H   UNL     1       1.691  -4.055  28.109  0.00  0.00    +0.149 HD
ATOM     21  O   UNL     1       3.323  -2.540  28.609  0.00  0.00    -0.270 OA
BRANCH  19  22
ATOM     22  C   UNL     1       2.608  -5.677  27.104  0.00  0.00    +0.142 C 
BRANCH  22  23
ATOM     23  C   UNL     1       3.242  -5.680  25.749  0.00  0.00    +0.005 A 
ATOM     24  C   UNL     1       2.721  -4.879  24.723  0.00  0.00    +0.011 A 
ATOM     25  C   UNL     1       3.241  -4.975  23.432  0.00  0.00    +0.039 A 
ATOM     26  C   UNL     1       4.283  -5.864  23.182  0.00  0.00    +0.126 A 
ATOM     27  F   UNL     1       4.754  -5.985  21.933  0.00  0.00    -0.205 F 
ATOM     28  C   UNL     1       4.830  -6.646  24.191  0.00  0.00    +0.077 A 
ATOM     29  C   UNL     1       4.310  -6.541  25.471  0.00  0.00    +0.131 A 
ATOM     30  F   UNL     1       4.816  -7.311  26.446  0.00  0.00    -0.205 F 
ENDBRANCH  22  23
ENDBRANCH  19  22
ENDBRANCH   9  18
BRANCH  12  31
ATOM     31  O   UNL     1       8.354  -5.735  27.303  0.00  0.00    -0.502 OA
ATOM     32  H   UNL     1       9.174  -5.376  26.904  0.00  0.00    +0.292 HD
ENDBRANCH  12  31
TORSDOF 4
ENDMDL
