MODEL 1
REMARK VINA RESULT:      -6.2      0.000      0.000
REMARK  Name = 
REMARK  5 active torsions:
REMARK  status: ('A' for Active; 'I' for Inactive)
REMARK    1  A    between atoms: C3*_2  and  O3*_19
REMARK    2  A    between atoms: C4*_3  and  C5*_17
REMARK    3  A    between atoms: C1*_5  and  N_6
REMARK    4  A    between atoms: C_8  and  C_14
REMARK    5  A    between atoms: C5*_17  and  O5*_18
REMARK                            x       y       z     vdW  Elec       q    Type
REMARK                         _______ _______ _______ _____ _____    ______ ____
ROOT
ATOM      1  N   UNL     1       8.737  -3.567  25.165  0.00  0.00    -0.258 N 
ATOM      2  C   UNL     1       9.439  -4.675  25.591  0.00  0.00    +0.310 C 
ATOM      3  O   UNL     1      10.429  -5.120  25.020  0.00  0.00    -0.252 OA
ATOM      4  N   UNL     1       8.915  -5.315  26.684  0.00  0.00    -0.239 N 
ATOM      5  H   UNL     1       9.418  -6.136  26.989  0.00  0.00    +0.159 HD
ATOM      6  C   UNL     1       7.614  -5.229  27.123  0.00  0.00    +0.229 C 
ATOM      7  O   UNL     1       7.176  -6.053  27.923  0.00  0.00    -0.275 OA
ATOM      8  C   UNL     1       6.761  -4.141  26.473  0.00  0.00    +0.116 C 
ATOM      9  C   UNL     1       7.695  -3.019  26.028  0.00  0.00    +0.128 C 
ENDROOT
BRANCH   1  11
ATOM     10  C2* UNL     1       9.854  -1.754  23.826  0.00  0.00    +0.086 C 
ATOM     11  C1* UNL     1       9.021  -3.028  23.846  0.00  0.00    +0.212 C 
ATOM     12  O4* UNL     1       7.804  -2.764  23.129  0.00  0.00    -0.350 OA
ATOM     13  C4* UNL     1       7.867  -1.428  22.580  0.00  0.00    +0.174 C 
ATOM     14  C3* UNL     1       9.345  -1.060  22.583  0.00  0.00    +0.150 C 
BRANCH  14  15
ATOM     15  O3* UNL     1       9.999  -1.595  21.430  0.00  0.00    -0.389 OA
ATOM     16  H3* UNL     1       9.404  -1.520  20.661  0.00  0.00    +0.210 HD
ENDBRANCH  14  15
BRANCH  13  17
ATOM     17  C5* UNL     1       7.026  -0.469  23.435  0.00  0.00    +0.190 C 
BRANCH  17  18
ATOM     18  O5* UNL     1       6.443   0.568  22.647  0.00  0.00    -0.392 OA
ATOM     19  H5* UNL     1       5.479   0.440  22.639  0.00  0.00    +0.210 HD
ENDBRANCH  17  18
ENDBRANCH  13  17
ENDBRANCH   1  11
BRANCH   8  20
ATOM     20  C   UNL     1       5.708  -3.639  27.429  0.00  0.00    -0.005 C 
ATOM     21  C   UNL     1       4.402  -3.907  27.298  0.00  0.00    +0.047 C 
ATOM     22 BR   UNL     1       3.104  -3.304  28.480  0.00  0.00    -0.059 Br
ENDBRANCH   8  20
TORSDOF 5
ENDMDL
MODEL 2
REMARK VINA RESULT:      -6.1      2.955      3.930
REMARK  Name = 
REMARK  5 active torsions:
REMARK  status: ('A' for Active; 'I' for Inactive)
REMARK    1  A    between atoms: C3*_2  and  O3*_19
REMARK    2  A    between atoms: C4*_3  and  C5*_17
REMARK    3  A    between atoms: C1*_5  and  N_6
REMARK    4  A    between atoms: C_8  and  C_14
REMARK    5  A    between atoms: C5*_17  and  O5*_18
REMARK                            x       y       z     vdW  Elec       q    Type
REMARK                         _______ _______ _______ _____ _____    ______ ____
ROOT
ATOM      1  N   UNL     1       8.474  -1.280  25.035  0.00  0.00    -0.258 N 
ATOM      2  C   UNL     1       8.571  -1.615  26.369  0.00  0.00    +0.310 C 
ATOM      3  O   UNL     1       8.922  -0.835  27.247  0.00  0.00    -0.252 OA
ATOM      4  N   UNL     1       8.312  -2.929  26.661  0.00  0.00    -0.239 N 
ATOM      5  H   UNL     1       8.397  -3.181  27.636  0.00  0.00    +0.159 HD
ATOM      6  C   UNL     1       8.373  -3.981  25.777  0.00  0.00    +0.229 C 
ATOM      7  O   UNL     1       8.410  -5.137  26.194  0.00  0.00    -0.275 OA
ATOM      8  C   UNL     1       8.504  -3.606  24.302  0.00  0.00    +0.116 C 
ATOM      9  C   UNL     1       7.866  -2.233  24.111  0.00  0.00    +0.128 C 
ENDROOT
BRANCH   1  11
ATOM     10  C2* UNL     1       8.071   0.920  23.883  0.00  0.00    +0.086 C 
ATOM     11  C1* UNL     1       9.040  -0.017  24.591  0.00  0.00    +0.212 C 
ATOM     12  O4* UNL     1      10.154  -0.237  23.712  0.00  0.00    -0.350 OA
ATOM     13  C4* UNL     1       9.987   0.582  22.533  0.00  0.00    +0.174 C 
ATOM     14  C3* UNL     1       8.982   1.657  22.929  0.00  0.00    +0.150 C 
BRANCH  14  15
ATOM     15  O3* UNL     1       9.636   2.729  23.614  0.00  0.00    -0.389 OA
ATOM     16  H3* UNL     1      10.494   2.415  23.953  0.00  0.00    +0.210 HD
ENDBRANCH  14  15
BRANCH  13  17
ATOM     17  C5* UNL     1       9.489  -0.278  21.362  0.00  0.00    +0.190 C 
BRANCH  17  18
ATOM     18  O5* UNL     1      10.055  -1.588  21.391  0.00  0.00    -0.392 OA
ATOM     19  H5* UNL     1      10.190  -1.882  20.475  0.00  0.00    +0.210 HD
ENDBRANCH  17  18
ENDBRANCH  13  17
ENDBRANCH   1  11
BRANCH   8  20
ATOM     20  C   UNL     1       7.857  -4.646  23.422  0.00  0.00    -0.005 C 
ATOM     21  C   UNL     1       7.137  -4.348  22.333  0.00  0.00    +0.047 C 
ATOM     22 BR   UNL     1       6.351  -5.626  21.238  0.00  0.00    -0.059 Br
ENDBRANCH   8  20
TORSDOF 5
ENDMDL
MODEL 3
REMARK VINA RESULT:      -5.9      2.823      3.648
REMARK  Name = 
REMARK  5 active torsions:
REMARK  status: ('A' for Active; 'I' for Inactive)
REMARK    1  A    between atoms: C3*_2  and  O3*_19
REMARK    2  A    between atoms: C4*_3  and  C5*_17
REMARK    3  A    between atoms: C1*_5  and  N_6
REMARK    4  A    between atoms: C_8  and  C_14
REMARK    5  A    between atoms: C5*_17  and  O5*_18
REMARK                            x       y       z     vdW  Elec       q    Type
REMARK                         _______ _______ _______ _____ _____    ______ ____
ROOT
ATOM      1  N   UNL     1       7.944  -1.473  23.292  0.00  0.00    -0.258 N 
ATOM      2  C   UNL     1       8.974  -2.357  23.533  0.00  0.00    +0.310 C 
ATOM      3  O   UNL     1      10.160  -2.048  23.519  0.00  0.00    -0.252 OA
ATOM      4  N   UNL     1       8.592  -3.659  23.729  0.00  0.00    -0.239 N 
ATOM      5  H   UNL     1       9.345  -4.313  23.890  0.00  0.00    +0.159 HD
ATOM      6  C   UNL     1       7.406  -4.223  23.320  0.00  0.00    +0.229 C 
ATOM      7  O   UNL     1       7.283  -5.446  23.283  0.00  0.00    -0.275 OA
ATOM      8  C   UNL     1       6.338  -3.247  22.827  0.00  0.00    +0.116 C 
ATOM      9  C   UNL     1       6.571  -1.910  23.523  0.00  0.00    +0.128 C 
ENDROOT
BRANCH   1  11
ATOM     10  C2* UNL     1       9.468  -0.111  21.824  0.00  0.00    +0.086 C 
ATOM     11  C1* UNL     1       8.265  -0.160  22.757  0.00  0.00    +0.212 C 
ATOM     12  O4* UNL     1       8.498   0.781  23.817  0.00  0.00    -0.350 OA
ATOM     13  C4* UNL     1       9.731   1.486  23.552  0.00  0.00    +0.174 C 
ATOM     14  C3* UNL     1      10.002   1.281  22.067  0.00  0.00    +0.150 C 
BRANCH  14  15
ATOM     15  O3* UNL     1       9.263   2.225  21.286  0.00  0.00    -0.389 OA
ATOM     16  H3* UNL     1       8.848   2.876  21.881  0.00  0.00    +0.210 HD
ENDBRANCH  14  15
BRANCH  13  17
ATOM     17  C5* UNL     1      10.857   0.922  24.432  0.00  0.00    +0.190 C 
BRANCH  17  18
ATOM     18  O5* UNL     1      10.343   0.264  25.589  0.00  0.00    -0.392 OA
ATOM     19  H5* UNL     1      11.059  -0.262  25.984  0.00  0.00    +0.210 HD
ENDBRANCH  17  18
ENDBRANCH  13  17
ENDBRANCH   1  11
BRANCH   8  20
ATOM     20  C   UNL     1       4.954  -3.781  23.098  0.00  0.00    -0.005 C 
ATOM     21  C   UNL     1       4.363  -3.727  24.298  0.00  0.00    +0.047 C 
ATOM     22 BR   UNL     1       2.653  -4.369  24.632  0.00  0.00    -0.059 Br
ENDBRANCH   8  20
TORSDOF 5
ENDMDL
MODEL 4
REMARK VINA RESULT:      -5.6      2.887      3.379
REMARK  Name = 
REMARK  5 active torsions:
REMARK  status: ('A' for Active; 'I' for Inactive)
REMARK    1  A    between atoms: C3*_2  and  O3*_19
REMARK    2  A    between atoms: C4*_3  and  C5*_17
REMARK    3  A    between atoms: C1*_5  and  N_6
REMARK    4  A    between atoms: C_8  and  C_14
REMARK    5  A    between atoms: C5*_17  and  O5*_18
REMARK                            x       y       z     vdW  Elec       q    Type
REMARK                         _______ _______ _______ _____ _____    ______ ____
ROOT
ATOM      1  N   UNL     1       6.689  -4.610  23.285  0.00  0.00    -0.258 N 
ATOM      2  C   UNL     1       6.305  -5.589  22.394  0.00  0.00    +0.310 C 
ATOM      3  O   UNL     1       7.034  -6.045  21.519  0.00  0.00    -0.252 OA
ATOM      4  N   UNL     1       4.998  -5.992  22.496  0.00  0.00    -0.239 N 
ATOM      5  H   UNL     1       4.709  -6.698  21.834  0.00  0.00    +0.159 HD
ATOM      6  C   UNL     1       3.975  -5.275  23.072  0.00  0.00    +0.229 C 
ATOM      7  O   UNL     1       2.805  -5.586  22.857  0.00  0.00    -0.275 OA
ATOM      8  C   UNL     1       4.392  -4.043  23.872  0.00  0.00    +0.116 C 
ATOM      9  C   UNL     1       5.804  -4.283  24.398  0.00  0.00    +0.128 C 
ENDROOT
BRANCH   1  11
ATOM     10  C2* UNL     1       8.747  -3.564  24.285  0.00  0.00    +0.086 C 
ATOM     11  C1* UNL     1       7.933  -3.898  23.042  0.00  0.00    +0.212 C 
ATOM     12  O4* UNL     1       7.690  -2.670  22.338  0.00  0.00    -0.350 OA
ATOM     13  C4* UNL     1       8.384  -1.598  23.016  0.00  0.00    +0.174 C 
ATOM     14  C3* UNL     1       9.437  -2.282  23.878  0.00  0.00    +0.150 C 
BRANCH  14  15
ATOM     15  O3* UNL     1      10.602  -2.585  23.104  0.00  0.00    -0.389 OA
ATOM     16  H3* UNL     1      10.633  -3.544  22.936  0.00  0.00    +0.210 HD
ENDBRANCH  14  15
BRANCH  13  17
ATOM     17  C5* UNL     1       7.393  -0.775  23.851  0.00  0.00    +0.190 C 
BRANCH  17  18
ATOM     18  O5* UNL     1       6.065  -0.866  23.336  0.00  0.00    -0.392 OA
ATOM     19  H5* UNL     1       5.897  -1.791  23.088  0.00  0.00    +0.210 HD
ENDBRANCH  17  18
ENDBRANCH  13  17
ENDBRANCH   1  11
BRANCH   8  20
ATOM     20  C   UNL     1       3.420  -3.775  24.994  0.00  0.00    -0.005 C 
ATOM     21  C   UNL     1       3.477  -4.388  26.184  0.00  0.00    +0.047 C 
ATOM     22 BR   UNL     1       2.292  -4.050  27.572  0.00  0.00    -0.059 Br
ENDBRANCH   8  20
TORSDOF 5
ENDMDL
MODEL 5
REMARK VINA RESULT:      -5.6      3.476      5.081
REMARK  Name = 
REMARK  5 active torsions:
REMARK  status: ('A' for Active; 'I' for Inactive)
REMARK    1  A    between atoms: C3*_2  and  O3*_19
REMARK    2  A    between atoms: C4*_3  and  C5*_17
REMARK    3  A    between atoms: C1*_5  and  N_6
REMARK    4  A    between atoms: C_8  and  C_14
REMARK    5  A    between atoms: C5*_17  and  O5*_18
REMARK                            x       y       z     vdW  Elec       q    Type
REMARK                         _______ _______ _______ _____ _____    ______ ____
ROOT
ATOM      1  N   UNL     1       8.302  -3.094  23.170  0.00  0.00    -0.258 N 
ATOM      2  C   UNL     1       9.406  -3.032  23.994  0.00  0.00    +0.310 C 
ATOM      3  O   UNL     1       9.944  -4.014  24.494  0.00  0.00    -0.252 OA
ATOM      4  N   UNL     1       9.843  -1.766  24.291  0.00  0.00    -0.239 N 
ATOM      5  H   UNL     1      10.641  -1.717  24.907  0.00  0.00    +0.159 HD
ATOM      6  C   UNL     1       9.097  -0.614  24.206  0.00  0.00    +0.229 C 
ATOM      7  O   UNL     1       9.480   0.413  24.763  0.00  0.00    -0.275 OA
ATOM      8  C   UNL     1       7.753  -0.739  23.490  0.00  0.00    +0.116 C 
ATOM      9  C   UNL     1       7.866  -1.881  22.484  0.00  0.00    +0.128 C 
ENDROOT
BRANCH   1  11
ATOM     10  C2* UNL     1       6.721  -4.511  21.820  0.00  0.00    +0.086 C 
ATOM     11  C1* UNL     1       7.580  -4.351  23.068  0.00  0.00    +0.212 C 
ATOM     12  O4* UNL     1       6.730  -4.546  24.209  0.00  0.00    -0.350 OA
ATOM     13  C4* UNL     1       5.410  -4.914  23.750  0.00  0.00    +0.174 C 
ATOM     14  C3* UNL     1       5.600  -5.394  22.317  0.00  0.00    +0.150 C 
BRANCH  14  15
ATOM     15  O3* UNL     1       6.018  -6.762  22.297  0.00  0.00    -0.389 OA
ATOM     16  H3* UNL     1       5.828  -7.141  21.419  0.00  0.00    +0.210 HD
ENDBRANCH  14  15
BRANCH  13  17
ATOM     17  C5* UNL     1       4.468  -3.704  23.838  0.00  0.00    +0.190 C 
BRANCH  17  18
ATOM     18  O5* UNL     1       5.014  -2.668  24.653  0.00  0.00    -0.392 OA
ATOM     19  H5* UNL     1       5.143  -1.879  24.099  0.00  0.00    +0.210 HD
ENDBRANCH  17  18
ENDBRANCH  13  17
ENDBRANCH   1  11
BRANCH   8  20
ATOM     20  C   UNL     1       7.377   0.557  22.817  0.00  0.00    -0.005 C 
ATOM     21  C   UNL     1       6.496   1.427  23.329  0.00  0.00    +0.047 C 
ATOM     22 BR   UNL     1       6.042   3.031  22.512  0.00  0.00    -0.059 Br
ENDBRANCH   8  20
TORSDOF 5
ENDMDL
MODEL 6
REMARK VINA RESULT:      -5.6      2.942      3.551
REMARK  Name = 
REMARK  5 active torsions:
REMARK  status: ('A' for Active; 'I' for Inactive)
REMARK    1  A    between atoms: C3*_2  and  O3*_19
REMARK    2  A    between atoms: C4*_3  and  C5*_17
REMARK    3  A    between atoms: C1*_5  and  N_6
REMARK    4  A    between atoms: C_8  and  C_14
REMARK    5  A    between atoms: C5*_17  and  O5*_18
REMARK                            x       y       z     vdW  Elec       q    Type
REMARK                         _______ _______ _______ _____ _____    ______ ____
ROOT
ATOM      1  N   UNL     1       6.761  -4.692  25.787  0.00  0.00    -0.258 N 
ATOM      2  C   UNL     1       7.546  -5.004  26.877  0.00  0.00    +0.310 C 
ATOM      3  O   UNL     1       8.721  -4.674  26.992  0.00  0.00    -0.252 OA
ATOM      4  N   UNL     1       6.942  -5.788  27.826  0.00  0.00    -0.239 N 
ATOM      5  H   UNL     1       7.519  -6.031  28.618  0.00  0.00    +0.159 HD
ATOM      6  C   UNL     1       5.847  -6.597  27.628  0.00  0.00    +0.229 C 
ATOM      7  O   UNL     1       5.566  -7.468  28.449  0.00  0.00    -0.275 OA
ATOM      8  C   UNL     1       5.110  -6.410  26.303  0.00  0.00    +0.116 C 
ATOM      9  C   UNL     1       5.330  -4.971  25.846  0.00  0.00    +0.128 C 
ENDROOT
BRANCH   1  11
ATOM     10  C2* UNL     1       6.694  -2.972  23.952  0.00  0.00    +0.086 C 
ATOM     11  C1* UNL     1       7.403  -4.154  24.599  0.00  0.00    +0.212 C 
ATOM     12  O4* UNL     1       7.556  -5.171  23.597  0.00  0.00    -0.350 OA
ATOM     13  C4* UNL     1       7.071  -4.660  22.335  0.00  0.00    +0.174 C 
ATOM     14  C3* UNL     1       7.053  -3.145  22.494  0.00  0.00    +0.150 C 
BRANCH  14  15
ATOM     15  O3* UNL     1       8.351  -2.598  22.247  0.00  0.00    -0.389 OA
ATOM     16  H3* UNL     1       8.262  -1.656  22.017  0.00  0.00    +0.210 HD
ENDBRANCH  14  15
BRANCH  13  17
ATOM     17  C5* UNL     1       5.676  -5.231  22.038  0.00  0.00    +0.190 C 
BRANCH  17  18
ATOM     18  O5* UNL     1       5.748  -6.415  21.244  0.00  0.00    -0.392 OA
ATOM     19  H5* UNL     1       5.767  -6.153  20.308  0.00  0.00    +0.210 HD
ENDBRANCH  17  18
ENDBRANCH  13  17
ENDBRANCH   1  11
BRANCH   8  20
ATOM     20  C   UNL     1       3.644  -6.728  26.452  0.00  0.00    -0.005 C 
ATOM     21  C   UNL     1       2.937  -7.407  25.539  0.00  0.00    +0.047 C 
ATOM     22 BR   UNL     1       1.135  -7.813  25.727  0.00  0.00    -0.059 Br
ENDBRANCH   8  20
TORSDOF 5
ENDMDL
MODEL 7
REMARK VINA RESULT:      -5.4      2.907      4.863
REMARK  Name = 
REMARK  5 active torsions:
REMARK  status: ('A' for Active; 'I' for Inactive)
REMARK    1  A    between atoms: C3*_2  and  O3*_19
REMARK    2  A    between atoms: C4*_3  and  C5*_17
REMARK    3  A    between atoms: C1*_5  and  N_6
REMARK    4  A    between atoms: C_8  and  C_14
REMARK    5  A    between atoms: C5*_17  and  O5*_18
REMARK                            x       y       z     vdW  Elec       q    Type
REMARK                         _______ _______ _______ _____ _____    ______ ____
ROOT
ATOM      1  N   UNL     1       8.063  -1.611  23.044  0.00  0.00    -0.258 N 
ATOM      2  C   UNL     1       9.122  -0.983  22.424  0.00  0.00    +0.310 C 
ATOM      3  O   UNL     1       9.458  -1.191  21.263  0.00  0.00    -0.252 OA
ATOM      4  N   UNL     1       9.849  -0.137  23.222  0.00  0.00    -0.239 N 
ATOM      5  H   UNL     1      10.635   0.312  22.775  0.00  0.00    +0.159 HD
ATOM      6  C   UNL     1       9.893  -0.163  24.597  0.00  0.00    +0.229 C 
ATOM      7  O   UNL     1      10.784   0.434  25.198  0.00  0.00    -0.275 OA
ATOM      8  C   UNL     1       8.856  -1.053  25.281  0.00  0.00    +0.116 C 
ATOM      9  C   UNL     1       7.642  -1.146  24.362  0.00  0.00    +0.128 C 
ENDROOT
BRANCH   1  11
ATOM     10  C2* UNL     1       5.928  -2.801  22.450  0.00  0.00    +0.086 C 
ATOM     11  C1* UNL     1       7.448  -2.752  22.386  0.00  0.00    +0.212 C 
ATOM     12  O4* UNL     1       7.947  -3.984  22.930  0.00  0.00    -0.350 OA
ATOM     13  C4* UNL     1       6.827  -4.843  23.242  0.00  0.00    +0.174 C 
ATOM     14  C3* UNL     1       5.657  -4.288  22.440  0.00  0.00    +0.150 C 
BRANCH  14  15
ATOM     15  O3* UNL     1       5.692  -4.777  21.096  0.00  0.00    -0.389 OA
ATOM     16  H3* UNL     1       5.924  -4.045  20.496  0.00  0.00    +0.210 HD
ENDBRANCH  14  15
BRANCH  13  17
ATOM     17  C5* UNL     1       6.557  -4.824  24.754  0.00  0.00    +0.190 C 
BRANCH  17  18
ATOM     18  O5* UNL     1       7.723  -4.464  25.494  0.00  0.00    -0.392 OA
ATOM     19  H5* UNL     1       7.827  -3.498  25.448  0.00  0.00    +0.210 HD
ENDBRANCH  17  18
ENDBRANCH  13  17
ENDBRANCH   1  11
BRANCH   8  20
ATOM     20  C   UNL     1       8.486  -0.504  26.637  0.00  0.00    -0.005 C 
ATOM     21  C   UNL     1       7.438   0.304  26.846  0.00  0.00    +0.047 C 
ATOM     22 BR   UNL     1       6.970   0.969  28.515  0.00  0.00    -0.059 Br
ENDBRANCH   8  20
TORSDOF 5
ENDMDL
MODEL 8
REMARK VINA RESULT:      -5.4      2.602      3.659
REMARK  Name = 
REMARK  5 active torsions:
REMARK  status: ('A' for Active; 'I' for Inactive)
REMARK    1  A    between atoms: C3*_2  and  O3*_19
REMARK    2  A    between atoms: C4*_3  and  C5*_17
REMARK    3  A    between atoms: C1*_5  and  N_6
REMARK    4  A    between atoms: C_8  and  C_14
REMARK    5  A    between atoms: C5*_17  and  O5*_18
REMARK                            x       y       z     vdW  Elec       q    Type
REMARK                         _______ _______ _______ _____ _____    ______ ____
ROOT
ATOM      1  N   UNL     1       9.036  -0.704  23.534  0.00  0.00    -0.258 N 
ATOM      2  C   UNL     1       9.617  -1.876  23.099  0.00  0.00    +0.310 C 
ATOM      3  O   UNL     1      10.685  -1.931  22.499  0.00  0.00    -0.252 OA
ATOM      4  N   UNL     1       8.879  -3.011  23.319  0.00  0.00    -0.239 N 
ATOM      5  H   UNL     1       9.294  -3.870  22.987  0.00  0.00    +0.159 HD
ATOM      6  C   UNL     1       7.521  -3.062  23.532  0.00  0.00    +0.229 C 
ATOM      7  O   UNL     1       6.919  -4.129  23.428  0.00  0.00    -0.275 OA
ATOM      8  C   UNL     1       6.834  -1.721  23.784  0.00  0.00    +0.116 C 
ATOM      9  C   UNL     1       7.863  -0.778  24.400  0.00  0.00    +0.128 C 
ENDROOT
BRANCH   1  11
ATOM     10  C2* UNL     1       9.735   1.640  24.120  0.00  0.00    +0.086 C 
ATOM     11  C1* UNL     1       9.577   0.559  23.060  0.00  0.00    +0.212 C 
ATOM     12  O4* UNL     1       8.767   1.099  22.005  0.00  0.00    -0.350 OA
ATOM     13  C4* UNL     1       8.486   2.486  22.295  0.00  0.00    +0.174 C 
ATOM     14  C3* UNL     1       9.536   2.904  23.317  0.00  0.00    +0.150 C 
BRANCH  14  15
ATOM     15  O3* UNL     1      10.758   3.260  22.665  0.00  0.00    -0.389 OA
ATOM     16  H3* UNL     1      10.636   3.196  21.700  0.00  0.00    +0.210 HD
ENDBRANCH  14  15
BRANCH  13  17
ATOM     17  C5* UNL     1       7.056   2.630  22.838  0.00  0.00    +0.190 C 
BRANCH  17  18
ATOM     18  O5* UNL     1       6.218   1.559  22.406  0.00  0.00    -0.392 OA
ATOM     19  H5* UNL     1       6.101   0.944  23.150  0.00  0.00    +0.210 HD
ENDBRANCH  17  18
ENDBRANCH  13  17
ENDBRANCH   1  11
BRANCH   8  20
ATOM     20  C   UNL     1       5.631  -1.891  24.679  0.00  0.00    -0.005 C 
ATOM     21  C   UNL     1       5.702  -1.913  26.016  0.00  0.00    +0.047 C 
ATOM     22 BR   UNL     1       4.223  -2.107  27.121  0.00  0.00    -0.059 Br
ENDBRANCH   8  20
TORSDOF 5
ENDMDL
MODEL 9
REMARK VINA RESULT:      -5.3      3.406      5.024
REMARK  Name = 
REMARK  5 active torsions:
REMARK  status: ('A' for Active; 'I' for Inactive)
REMARK    1  A    between atoms: C3*_2  and  O3*_19
REMARK    2  A    between atoms: C4*_3  and  C5*_17
REMARK    3  A    between atoms: C1*_5  and  N_6
REMARK    4  A    between atoms: C_8  and  C_14
REMARK    5  A    between atoms: C5*_17  and  O5*_18
REMARK                            x       y       z     vdW  Elec       q    Type
REMARK                         _______ _______ _______ _____ _____    ______ ____
ROOT
ATOM      1  N   UNL     1       9.055   0.665  23.769  0.00  0.00    -0.258 N 
ATOM      2  C   UNL     1      10.127   0.132  24.452  0.00  0.00    +0.310 C 
ATOM      3  O   UNL     1      11.060   0.796  24.890  0.00  0.00    -0.252 OA
ATOM      4  N   UNL     1      10.130  -1.235  24.561  0.00  0.00    -0.239 N 
ATOM      5  H   UNL     1      10.922  -1.630  25.047  0.00  0.00    +0.159 HD
ATOM      6  C   UNL     1       9.444  -2.110  23.751  0.00  0.00    +0.229 C 
ATOM      7  O   UNL     1       9.737  -3.304  23.744  0.00  0.00    -0.275 OA
ATOM      8  C   UNL     1       8.411  -1.485  22.815  0.00  0.00    +0.116 C 
ATOM      9  C   UNL     1       7.916  -0.195  23.463  0.00  0.00    +0.128 C 
ENDROOT
BRANCH   1  11
ATOM     10  C2* UNL     1       8.585   3.078  24.302  0.00  0.00    +0.086 C 
ATOM     11  C1* UNL     1       9.131   2.047  23.324  0.00  0.00    +0.212 C 
ATOM     12  O4* UNL     1       8.441   2.221  22.077  0.00  0.00    -0.350 OA
ATOM     13  C4* UNL     1       7.562   3.363  22.186  0.00  0.00    +0.174 C 
ATOM     14  C3* UNL     1       8.083   4.161  23.375  0.00  0.00    +0.150 C 
BRANCH  14  15
ATOM     15  O3* UNL     1       9.170   5.001  22.979  0.00  0.00    -0.389 OA
ATOM     16  H3* UNL     1       9.714   4.531  22.322  0.00  0.00    +0.210 HD
ENDBRANCH  14  15
BRANCH  13  17
ATOM     17  C5* UNL     1       6.114   2.893  22.390  0.00  0.00    +0.190 C 
BRANCH  17  18
ATOM     18  O5* UNL     1       5.291   3.932  22.919  0.00  0.00    -0.392 OA
ATOM     19  H5* UNL     1       5.409   3.952  23.884  0.00  0.00    +0.210 HD
ENDBRANCH  17  18
ENDBRANCH  13  17
ENDBRANCH   1  11
BRANCH   8  20
ATOM     20  C   UNL     1       7.277  -2.442  22.548  0.00  0.00    -0.005 C 
ATOM     21  C   UNL     1       6.319  -2.721  23.441  0.00  0.00    +0.047 C 
ATOM     22 BR   UNL     1       4.912  -3.888  23.110  0.00  0.00    -0.059 Br
ENDBRANCH   8  20
TORSDOF 5
ENDMDL
