MODEL 1
REMARK VINA RESULT:      -6.6      0.000      0.000
REMARK  Name = 
REMARK  17 active torsions:
REMARK  status: ('A' for Active; 'I' for Inactive)
REMARK    1  A    between atoms: C_1  and  C_2
REMARK    2  A    between atoms: C_2  and  C_3
REMARK    3  A    between atoms: C_2  and  O_4
REMARK    4  A    between atoms: O_4  and  C_5
REMARK    5  A    between atoms: C_5  and  C_7
REMARK    6  A    between atoms: C_7  and  C_8
REMARK    7  A    between atoms: C_7  and  N_9
REMARK    8  A    between atoms: N_9  and  P_10
REMARK    9  A    between atoms: P_10  and  C_12
REMARK   10  A    between atoms: P_10  and  O_27
REMARK   11  A    between atoms: C_12  and  O_13
REMARK   12  A    between atoms: O_13  and  C_14
REMARK   13  A    between atoms: C_14  and  C_15
REMARK   14  A    between atoms: C_14  and  C_16
REMARK   15  A    between atoms: C_16  and  N_17
REMARK   16  A    between atoms: C_21  and  N_26
REMARK   17  A    between atoms: O_27  and  C_28
REMARK                            x       y       z     vdW  Elec       q    Type
REMARK                         _______ _______ _______ _____ _____    ______ ____
ROOT
ATOM      1  P   UNL     1       7.206   1.328  23.176  0.00  0.00    +0.345 P 
ATOM      2  O   UNL     1       7.196   2.121  21.898  0.00  0.00    -0.257 OA
ENDROOT
BRANCH   1   3
ATOM      3  N   UNL     1       7.436  -0.295  22.967  0.00  0.00    -0.221 NA
ATOM      4  H   UNL     1       6.944  -0.807  23.696  0.00  0.00    +0.133 HD
BRANCH   3   5
ATOM      5  C   UNL     1       8.796  -0.844  22.847  0.00  0.00    +0.169 C 
ATOM      6  C   UNL     1       9.454  -0.359  21.560  0.00  0.00    +0.036 C 
BRANCH   5   7
ATOM      7  C   UNL     1       8.833  -2.372  22.896  0.00  0.00    +0.325 C 
ATOM      8  O   UNL     1       9.710  -2.997  23.479  0.00  0.00    -0.249 OA
BRANCH   7   9
ATOM      9  O   UNL     1       7.816  -2.930  22.183  0.00  0.00    -0.461 OA
BRANCH   9  11
ATOM     10  C   UNL     1       5.526  -3.455  22.846  0.00  0.00    +0.052 C 
ATOM     11  C   UNL     1       6.991  -3.877  22.892  0.00  0.00    +0.170 C 
ATOM     12  C   UNL     1       7.173  -5.230  22.213  0.00  0.00    +0.052 C 
ENDBRANCH   9  11
ENDBRANCH   7   9
ENDBRANCH   5   7
ENDBRANCH   3   5
ENDBRANCH   1   3
BRANCH   1  13
ATOM     13  O   UNL     1       8.299   1.854  24.243  0.00  0.00    -0.431 OA
BRANCH  13  14
ATOM     14  C   UNL     1       9.193   2.860  24.042  0.00  0.00    +0.129 A 
ATOM     15  C   UNL     1       8.753   4.143  24.369  0.00  0.00    +0.046 A 
ATOM     16  C   UNL     1       9.605   5.236  24.228  0.00  0.00    +0.004 A 
ATOM     17  C   UNL     1      10.892   5.044  23.738  0.00  0.00    +0.000 A 
ATOM     18  C   UNL     1      11.318   3.764  23.372  0.00  0.00    +0.004 A 
ATOM     19  C   UNL     1      10.466   2.667  23.521  0.00  0.00    +0.046 A 
ENDBRANCH  13  14
ENDBRANCH   1  13
BRANCH   1  20
ATOM     20  C   UNL     1       5.691   1.610  24.152  0.00  0.00    +0.286 C 
BRANCH  20  21
ATOM     21  O   UNL     1       5.393   0.373  24.811  0.00  0.00    -0.363 OA
BRANCH  21  22
ATOM     22  C   UNL     1       5.336   0.449  26.237  0.00  0.00    +0.136 C 
ATOM     23  C   UNL     1       4.111   1.260  26.648  0.00  0.00    +0.040 C 
BRANCH  22  24
ATOM     24  C   UNL     1       5.216  -0.990  26.768  0.00  0.00    +0.156 C 
BRANCH  24  25
ATOM     25  N   UNL     1       6.447  -1.737  26.592  0.00  0.00    -0.312 N 
ATOM     26  C   UNL     1       6.557  -3.094  26.479  0.00  0.00    +0.165 A 
ATOM     27  C   UNL     1       7.922  -3.336  26.457  0.00  0.00    +0.147 A 
ATOM     28  C   UNL     1       8.321  -4.682  26.422  0.00  0.00    +0.147 A 
ATOM     29  N   UNL     1       7.366  -5.639  26.389  0.00  0.00    -0.219 NA
ATOM     30  C   UNL     1       6.071  -5.251  26.380  0.00  0.00    +0.225 A 
ATOM     31  N   UNL     1       8.633  -2.153  26.509  0.00  0.00    -0.231 NA
ATOM     32  N   UNL     1       5.567  -4.001  26.442  0.00  0.00    -0.216 NA
ATOM     33  C   UNL     1       7.712  -1.213  26.582  0.00  0.00    +0.201 A 
BRANCH  28  34
ATOM     34  N   UNL     1       9.653  -5.084  26.466  0.00  0.00    -0.341 N 
ATOM     35  H   UNL     1       9.731  -6.085  26.589  0.00  0.00    +0.144 HD
ATOM     36  H   UNL     1      10.216  -4.498  27.075  0.00  0.00    +0.144 HD
ENDBRANCH  28  34
ENDBRANCH  24  25
ENDBRANCH  22  24
ENDBRANCH  21  22
ENDBRANCH  20  21
ENDBRANCH   1  20
TORSDOF 13
ENDMDL
MODEL 2
REMARK VINA RESULT:      -6.5      2.796      5.926
REMARK  Name = 
REMARK  17 active torsions:
REMARK  status: ('A' for Active; 'I' for Inactive)
REMARK    1  A    between atoms: C_1  and  C_2
REMARK    2  A    between atoms: C_2  and  C_3
REMARK    3  A    between atoms: C_2  and  O_4
REMARK    4  A    between atoms: O_4  and  C_5
REMARK    5  A    between atoms: C_5  and  C_7
REMARK    6  A    between atoms: C_7  and  C_8
REMARK    7  A    between atoms: C_7  and  N_9
REMARK    8  A    between atoms: N_9  and  P_10
REMARK    9  A    between atoms: P_10  and  C_12
REMARK   10  A    between atoms: P_10  and  O_27
REMARK   11  A    between atoms: C_12  and  O_13
REMARK   12  A    between atoms: O_13  and  C_14
REMARK   13  A    between atoms: C_14  and  C_15
REMARK   14  A    between atoms: C_14  and  C_16
REMARK   15  A    between atoms: C_16  and  N_17
REMARK   16  A    between atoms: C_21  and  N_26
REMARK   17  A    between atoms: O_27  and  C_28
REMARK                            x       y       z     vdW  Elec       q    Type
REMARK                         _______ _______ _______ _____ _____    ______ ____
ROOT
ATOM      1  P   UNL     1       8.339  -2.529  23.426  0.00  0.00    +0.345 P 
ATOM      2  O   UNL     1       7.574  -2.540  22.132  0.00  0.00    -0.257 OA
ENDROOT
BRANCH   1   3
ATOM      3  N   UNL     1       8.522  -4.018  24.121  0.00  0.00    -0.221 NA
ATOM      4  H   UNL     1       8.236  -4.739  23.464  0.00  0.00    +0.133 HD
BRANCH   3   5
ATOM      5  C   UNL     1       7.913  -4.308  25.429  0.00  0.00    +0.169 C 
ATOM      6  C   UNL     1       8.935  -4.947  26.362  0.00  0.00    +0.036 C 
BRANCH   5   7
ATOM      7  C   UNL     1       6.678  -5.204  25.330  0.00  0.00    +0.325 C 
ATOM      8  O   UNL     1       6.446  -6.106  26.126  0.00  0.00    -0.249 OA
BRANCH   7   9
ATOM      9  O   UNL     1       5.917  -4.906  24.241  0.00  0.00    -0.461 OA
BRANCH   9  11
ATOM     10  C   UNL     1       3.956  -5.936  23.216  0.00  0.00    +0.052 C 
ATOM     11  C   UNL     1       5.459  -6.029  23.462  0.00  0.00    +0.170 C 
ATOM     12  C   UNL     1       6.214  -6.001  22.138  0.00  0.00    +0.052 C 
ENDBRANCH   9  11
ENDBRANCH   7   9
ENDBRANCH   5   7
ENDBRANCH   3   5
ENDBRANCH   1   3
BRANCH   1  13
ATOM     13  O   UNL     1       9.802  -1.856  23.296  0.00  0.00    -0.431 OA
BRANCH  13  14
ATOM     14  C   UNL     1      10.064  -0.523  23.228  0.00  0.00    +0.129 A 
ATOM     15  C   UNL     1       9.794   0.092  22.005  0.00  0.00    +0.046 A 
ATOM     16  C   UNL     1      10.000   1.460  21.844  0.00  0.00    +0.004 A 
ATOM     17  C   UNL     1      10.497   2.208  22.905  0.00  0.00    +0.000 A 
ATOM     18  C   UNL     1      10.806   1.585  24.117  0.00  0.00    +0.004 A 
ATOM     19  C   UNL     1      10.592   0.215  24.281  0.00  0.00    +0.046 A 
ENDBRANCH  13  14
ENDBRANCH   1  13
BRANCH   1  20
ATOM     20  C   UNL     1       7.599  -1.379  24.634  0.00  0.00    +0.286 C 
BRANCH  20  21
ATOM     21  O   UNL     1       6.391  -0.886  24.042  0.00  0.00    -0.363 OA
BRANCH  21  22
ATOM     22  C   UNL     1       5.814   0.241  24.704  0.00  0.00    +0.136 C 
ATOM     23  C   UNL     1       5.221  -0.207  26.036  0.00  0.00    +0.040 C 
BRANCH  22  24
ATOM     24  C   UNL     1       6.944   1.257  24.947  0.00  0.00    +0.156 C 
BRANCH  24  25
ATOM     25  N   UNL     1       7.025   2.242  23.885  0.00  0.00    -0.312 N 
ATOM     26  C   UNL     1       7.568   3.491  23.985  0.00  0.00    +0.165 A 
ATOM     27  C   UNL     1       7.301   4.090  22.764  0.00  0.00    +0.147 A 
ATOM     28  C   UNL     1       7.690   5.432  22.622  0.00  0.00    +0.147 A 
ATOM     29  N   UNL     1       8.313   6.037  23.660  0.00  0.00    -0.219 NA
ATOM     30  C   UNL     1       8.539   5.315  24.780  0.00  0.00    +0.225 A 
ATOM     31  N   UNL     1       6.649   3.214  21.918  0.00  0.00    -0.231 NA
ATOM     32  N   UNL     1       8.187   4.039  25.044  0.00  0.00    -0.216 NA
ATOM     33  C   UNL     1       6.507   2.111  22.624  0.00  0.00    +0.201 A 
BRANCH  28  34
ATOM     34  N   UNL     1       7.427   6.187  21.483  0.00  0.00    -0.341 N 
ATOM     35  H   UNL     1       7.977   7.035  21.469  0.00  0.00    +0.144 HD
ATOM     36  H   UNL     1       6.434   6.277  21.297  0.00  0.00    +0.144 HD
ENDBRANCH  28  34
ENDBRANCH  24  25
ENDBRANCH  22  24
ENDBRANCH  21  22
ENDBRANCH  20  21
ENDBRANCH   1  20
TORSDOF 13
ENDMDL
MODEL 3
REMARK VINA RESULT:      -6.4      2.699      5.936
REMARK  Name = 
REMARK  17 active torsions:
REMARK  status: ('A' for Active; 'I' for Inactive)
REMARK    1  A    between atoms: C_1  and  C_2
REMARK    2  A    between atoms: C_2  and  C_3
REMARK    3  A    between atoms: C_2  and  O_4
REMARK    4  A    between atoms: O_4  and  C_5
REMARK    5  A    between atoms: C_5  and  C_7
REMARK    6  A    between atoms: C_7  and  C_8
REMARK    7  A    between atoms: C_7  and  N_9
REMARK    8  A    between atoms: N_9  and  P_10
REMARK    9  A    between atoms: P_10  and  C_12
REMARK   10  A    between atoms: P_10  and  O_27
REMARK   11  A    between atoms: C_12  and  O_13
REMARK   12  A    between atoms: O_13  and  C_14
REMARK   13  A    between atoms: C_14  and  C_15
REMARK   14  A    between atoms: C_14  and  C_16
REMARK   15  A    between atoms: C_16  and  N_17
REMARK   16  A    between atoms: C_21  and  N_26
REMARK   17  A    between atoms: O_27  and  C_28
REMARK                            x       y       z     vdW  Elec       q    Type
REMARK                         _______ _______ _______ _____ _____    ______ ____
ROOT
ATOM      1  P   UNL     1       8.032  -1.461  25.507  0.00  0.00    +0.345 P 
ATOM      2  O   UNL     1       6.905  -1.383  24.515  0.00  0.00    -0.257 OA
ENDROOT
BRANCH   1   3
ATOM      3  N   UNL     1       8.167  -2.921  26.270  0.00  0.00    -0.221 NA
ATOM      4  H   UNL     1       9.123  -3.053  26.590  0.00  0.00    +0.133 HD
BRANCH   3   5
ATOM      5  C   UNL     1       7.723  -4.154  25.599  0.00  0.00    +0.169 C 
ATOM      6  C   UNL     1       7.470  -5.255  26.622  0.00  0.00    +0.036 C 
BRANCH   5   7
ATOM      7  C   UNL     1       8.713  -4.652  24.544  0.00  0.00    +0.325 C 
ATOM      8  O   UNL     1       9.739  -5.257  24.830  0.00  0.00    -0.249 OA
BRANCH   7   9
ATOM      9  O   UNL     1       8.335  -4.299  23.285  0.00  0.00    -0.461 OA
BRANCH   9  11
ATOM     10  C   UNL     1       6.342  -3.657  22.031  0.00  0.00    +0.052 C 
ATOM     11  C   UNL     1       7.023  -4.731  22.873  0.00  0.00    +0.170 C 
ATOM     12  C   UNL     1       7.203  -6.007  22.057  0.00  0.00    +0.052 C 
ENDBRANCH   9  11
ENDBRANCH   7   9
ENDBRANCH   5   7
ENDBRANCH   3   5
ENDBRANCH   1   3
BRANCH   1  13
ATOM     13  O   UNL     1       9.470  -1.096  24.868  0.00  0.00    -0.431 OA
BRANCH  13  14
ATOM     14  C   UNL     1       9.725  -0.078  24.002  0.00  0.00    +0.129 A 
ATOM     15  C   UNL     1       9.316  -0.280  22.684  0.00  0.00    +0.046 A 
ATOM     16  C   UNL     1       9.503   0.716  21.728  0.00  0.00    +0.004 A 
ATOM     17  C   UNL     1      10.121   1.907  22.091  0.00  0.00    +0.000 A 
ATOM     18  C   UNL     1      10.567   2.093  23.403  0.00  0.00    +0.004 A 
ATOM     19  C   UNL     1      10.372   1.097  24.362  0.00  0.00    +0.046 A 
ENDBRANCH  13  14
ENDBRANCH   1  13
BRANCH   1  20
ATOM     20  C   UNL     1       7.924  -0.130  26.751  0.00  0.00    +0.286 C 
BRANCH  20  21
ATOM     21  O   UNL     1       6.531   0.157  26.922  0.00  0.00    -0.363 OA
BRANCH  21  22
ATOM     22  C   UNL     1       6.094   1.383  26.333  0.00  0.00    +0.136 C 
ATOM     23  C   UNL     1       5.106   2.068  27.272  0.00  0.00    +0.040 C 
BRANCH  22  24
ATOM     24  C   UNL     1       7.337   2.269  26.142  0.00  0.00    +0.156 C 
BRANCH  24  25
ATOM     25  N   UNL     1       7.334   2.939  24.856  0.00  0.00    -0.312 N 
ATOM     26  C   UNL     1       7.862   4.170  24.586  0.00  0.00    +0.165 A 
ATOM     27  C   UNL     1       7.506   4.426  23.271  0.00  0.00    +0.147 A 
ATOM     28  C   UNL     1       7.864   5.683  22.756  0.00  0.00    +0.147 A 
ATOM     29  N   UNL     1       8.544   6.538  23.554  0.00  0.00    -0.219 NA
ATOM     30  C   UNL     1       8.854   6.136  24.806  0.00  0.00    +0.225 A 
ATOM     31  N   UNL     1       6.814   3.360  22.732  0.00  0.00    -0.231 NA
ATOM     32  N   UNL     1       8.540   4.976  25.420  0.00  0.00    -0.216 NA
ATOM     33  C   UNL     1       6.736   2.482  23.711  0.00  0.00    +0.201 A 
BRANCH  28  34
ATOM     34  N   UNL     1       7.515   6.111  21.478  0.00  0.00    -0.341 N 
ATOM     35  H   UNL     1       7.638   5.372  20.798  0.00  0.00    +0.144 HD
ATOM     36  H   UNL     1       7.908   7.018  21.251  0.00  0.00    +0.144 HD
ENDBRANCH  28  34
ENDBRANCH  24  25
ENDBRANCH  22  24
ENDBRANCH  21  22
ENDBRANCH  20  21
ENDBRANCH   1  20
TORSDOF 13
ENDMDL
MODEL 4
REMARK VINA RESULT:      -6.3      2.113      4.883
REMARK  Name = 
REMARK  17 active torsions:
REMARK  status: ('A' for Active; 'I' for Inactive)
REMARK    1  A    between atoms: C_1  and  C_2
REMARK    2  A    between atoms: C_2  and  C_3
REMARK    3  A    between atoms: C_2  and  O_4
REMARK    4  A    between atoms: O_4  and  C_5
REMARK    5  A    between atoms: C_5  and  C_7
REMARK    6  A    between atoms: C_7  and  C_8
REMARK    7  A    between atoms: C_7  and  N_9
REMARK    8  A    between atoms: N_9  and  P_10
REMARK    9  A    between atoms: P_10  and  C_12
REMARK   10  A    between atoms: P_10  and  O_27
REMARK   11  A    between atoms: C_12  and  O_13
REMARK   12  A    between atoms: O_13  and  C_14
REMARK   13  A    between atoms: C_14  and  C_15
REMARK   14  A    between atoms: C_14  and  C_16
REMARK   15  A    between atoms: C_16  and  N_17
REMARK   16  A    between atoms: C_21  and  N_26
REMARK   17  A    between atoms: O_27  and  C_28
REMARK                            x       y       z     vdW  Elec       q    Type
REMARK                         _______ _______ _______ _____ _____    ______ ____
ROOT
ATOM      1  P   UNL     1       5.850  -1.317  25.392  0.00  0.00    +0.345 P 
ATOM      2  O   UNL     1       6.299  -1.065  26.804  0.00  0.00    -0.257 OA
ENDROOT
BRANCH   1   3
ATOM      3  N   UNL     1       5.595   0.054  24.505  0.00  0.00    -0.221 NA
ATOM      4  H   UNL     1       6.190   0.044  23.680  0.00  0.00    +0.133 HD
BRANCH   3   5
ATOM      5  C   UNL     1       5.695   1.379  25.138  0.00  0.00    +0.169 C 
ATOM      6  C   UNL     1       4.735   2.360  24.476  0.00  0.00    +0.036 C 
BRANCH   5   7
ATOM      7  C   UNL     1       7.113   1.952  25.110  0.00  0.00    +0.325 C 
ATOM      8  O   UNL     1       7.526   2.743  25.947  0.00  0.00    -0.249 OA
BRANCH   7   9
ATOM      9  O   UNL     1       7.818   1.514  24.030  0.00  0.00    -0.461 OA
BRANCH   9  11
ATOM     10  C   UNL     1       9.848   2.621  23.247  0.00  0.00    +0.052 C 
ATOM     11  C   UNL     1       8.327   2.536  23.150  0.00  0.00    +0.170 C 
ATOM     12  C   UNL     1       7.908   2.162  21.732  0.00  0.00    +0.052 C 
ENDBRANCH   9  11
ENDBRANCH   7   9
ENDBRANCH   5   7
ENDBRANCH   3   5
ENDBRANCH   1   3
BRANCH   1  13
ATOM     13  O   UNL     1       6.858  -2.269  24.562  0.00  0.00    -0.431 OA
BRANCH  13  14
ATOM     14  C   UNL     1       7.936  -1.856  23.842  0.00  0.00    +0.129 A 
ATOM     15  C   UNL     1       9.069  -1.514  24.581  0.00  0.00    +0.046 A 
ATOM     16  C   UNL     1      10.235  -1.110  23.934  0.00  0.00    +0.004 A 
ATOM     17  C   UNL     1      10.255  -1.026  22.547  0.00  0.00    +0.000 A 
ATOM     18  C   UNL     1       9.108  -1.330  21.809  0.00  0.00    +0.004 A 
ATOM     19  C   UNL     1       7.941  -1.743  22.457  0.00  0.00    +0.046 A 
ENDBRANCH  13  14
ENDBRANCH   1  13
BRANCH   1  20
ATOM     20  C   UNL     1       4.356  -2.364  25.339  0.00  0.00    +0.286 C 
BRANCH  20  21
ATOM     21  O   UNL     1       4.507  -3.344  26.373  0.00  0.00    -0.363 OA
BRANCH  21  22
ATOM     22  C   UNL     1       3.511  -4.368  26.382  0.00  0.00    +0.136 C 
ATOM     23  C   UNL     1       2.651  -4.243  25.128  0.00  0.00    +0.040 C 
BRANCH  22  24
ATOM     24  C   UNL     1       4.245  -5.721  26.382  0.00  0.00    +0.156 C 
BRANCH  24  25
ATOM     25  N   UNL     1       5.681  -5.557  26.502  0.00  0.00    -0.312 N 
ATOM     26  C   UNL     1       6.571  -5.457  25.470  0.00  0.00    +0.165 A 
ATOM     27  C   UNL     1       7.816  -5.443  26.078  0.00  0.00    +0.147 A 
ATOM     28  C   UNL     1       8.932  -5.423  25.225  0.00  0.00    +0.147 A 
ATOM     29  N   UNL     1       8.723  -5.395  23.889  0.00  0.00    -0.219 NA
ATOM     30  C   UNL     1       7.449  -5.377  23.440  0.00  0.00    +0.225 A 
ATOM     31  N   UNL     1       7.694  -5.488  27.453  0.00  0.00    -0.231 NA
ATOM     32  N   UNL     1       6.305  -5.424  24.154  0.00  0.00    -0.216 NA
ATOM     33  C   UNL     1       6.395  -5.548  27.671  0.00  0.00    +0.201 A 
BRANCH  28  34
ATOM     34  N   UNL     1      10.244  -5.476  25.686  0.00  0.00    -0.341 N 
ATOM     35  H   UNL     1      10.564  -6.432  25.775  0.00  0.00    +0.144 HD
ATOM     36  H   UNL     1      10.405  -4.861  26.476  0.00  0.00    +0.144 HD
ENDBRANCH  28  34
ENDBRANCH  24  25
ENDBRANCH  22  24
ENDBRANCH  21  22
ENDBRANCH  20  21
ENDBRANCH   1  20
TORSDOF 13
ENDMDL
MODEL 5
REMARK VINA RESULT:      -6.2      2.440      6.342
REMARK  Name = 
REMARK  17 active torsions:
REMARK  status: ('A' for Active; 'I' for Inactive)
REMARK    1  A    between atoms: C_1  and  C_2
REMARK    2  A    between atoms: C_2  and  C_3
REMARK    3  A    between atoms: C_2  and  O_4
REMARK    4  A    between atoms: O_4  and  C_5
REMARK    5  A    between atoms: C_5  and  C_7
REMARK    6  A    between atoms: C_7  and  C_8
REMARK    7  A    between atoms: C_7  and  N_9
REMARK    8  A    between atoms: N_9  and  P_10
REMARK    9  A    between atoms: P_10  and  C_12
REMARK   10  A    between atoms: P_10  and  O_27
REMARK   11  A    between atoms: C_12  and  O_13
REMARK   12  A    between atoms: O_13  and  C_14
REMARK   13  A    between atoms: C_14  and  C_15
REMARK   14  A    between atoms: C_14  and  C_16
REMARK   15  A    between atoms: C_16  and  N_17
REMARK   16  A    between atoms: C_21  and  N_26
REMARK   17  A    between atoms: O_27  and  C_28
REMARK                            x       y       z     vdW  Elec       q    Type
REMARK                         _______ _______ _______ _____ _____    ______ ____
ROOT
ATOM      1  P   UNL     1       9.336  -2.454  23.794  0.00  0.00    +0.345 P 
ATOM      2  O   UNL     1      10.171  -3.659  24.130  0.00  0.00    -0.257 OA
ENDROOT
BRANCH   1   3
ATOM      3  N   UNL     1      10.211  -1.112  23.390  0.00  0.00    -0.221 NA
ATOM      4  H   UNL     1      10.884  -0.908  24.125  0.00  0.00    +0.133 HD
BRANCH   3   5
ATOM      5  C   UNL     1       9.527   0.139  23.023  0.00  0.00    +0.169 C 
ATOM      6  C   UNL     1       9.456   0.281  21.507  0.00  0.00    +0.036 C 
BRANCH   5   7
ATOM      7  C   UNL     1      10.185   1.382  23.624  0.00  0.00    +0.325 C 
ATOM      8  O   UNL     1      11.149   1.324  24.378  0.00  0.00    -0.249 OA
BRANCH   7   9
ATOM      9  O   UNL     1       9.544   2.526  23.257  0.00  0.00    -0.461 OA
BRANCH   9  11
ATOM     10  C   UNL     1       8.779   4.786  23.771  0.00  0.00    +0.052 C 
ATOM     11  C   UNL     1       9.200   3.429  24.327  0.00  0.00    +0.170 C 
ATOM     12  C   UNL     1       8.049   2.795  25.101  0.00  0.00    +0.052 C 
ENDBRANCH   9  11
ENDBRANCH   7   9
ENDBRANCH   5   7
ENDBRANCH   3   5
ENDBRANCH   1   3
BRANCH   1  13
ATOM     13  O   UNL     1       8.267  -2.728  22.614  0.00  0.00    -0.431 OA
BRANCH  13  14
ATOM     14  C   UNL     1       7.282  -3.665  22.631  0.00  0.00    +0.129 A 
ATOM     15  C   UNL     1       5.975  -3.179  22.600  0.00  0.00    +0.046 A 
ATOM     16  C   UNL     1       4.896  -4.060  22.582  0.00  0.00    +0.004 A 
ATOM     17  C   UNL     1       5.128  -5.429  22.617  0.00  0.00    +0.000 A 
ATOM     18  C   UNL     1       6.436  -5.917  22.689  0.00  0.00    +0.004 A 
ATOM     19  C   UNL     1       7.518  -5.033  22.699  0.00  0.00    +0.046 A 
ENDBRANCH  13  14
ENDBRANCH   1  13
BRANCH   1  20
ATOM     20  C   UNL     1       8.177  -2.045  25.142  0.00  0.00    +0.286 C 
BRANCH  20  21
ATOM     21  O   UNL     1       8.397  -3.010  26.178  0.00  0.00    -0.363 OA
BRANCH  21  22
ATOM     22  C   UNL     1       7.208  -3.557  26.752  0.00  0.00    +0.136 C 
ATOM     23  C   UNL     1       5.991  -2.905  26.105  0.00  0.00    +0.040 C 
BRANCH  22  24
ATOM     24  C   UNL     1       7.213  -5.068  26.459  0.00  0.00    +0.156 C 
BRANCH  24  25
ATOM     25  N   UNL     1       5.987  -5.709  26.898  0.00  0.00    -0.312 N 
ATOM     26  C   UNL     1       5.611  -5.929  28.193  0.00  0.00    +0.165 A 
ATOM     27  C   UNL     1       4.444  -6.671  28.100  0.00  0.00    +0.147 A 
ATOM     28  C   UNL     1       3.878  -7.107  29.309  0.00  0.00    +0.147 A 
ATOM     29  N   UNL     1       4.483  -6.760  30.467  0.00  0.00    -0.219 NA
ATOM     30  C   UNL     1       5.600  -6.002  30.405  0.00  0.00    +0.225 A 
ATOM     31  N   UNL     1       4.087  -6.863  26.779  0.00  0.00    -0.231 NA
ATOM     32  N   UNL     1       6.251  -5.552  29.312  0.00  0.00    -0.216 NA
ATOM     33  C   UNL     1       5.034  -6.264  26.086  0.00  0.00    +0.201 A 
BRANCH  28  34
ATOM     34  N   UNL     1       2.747  -7.917  29.373  0.00  0.00    -0.341 N 
ATOM     35  H   UNL     1       2.802  -8.563  30.149  0.00  0.00    +0.144 HD
ATOM     36  H   UNL     1       2.493  -8.302  28.469  0.00  0.00    +0.144 HD
ENDBRANCH  28  34
ENDBRANCH  24  25
ENDBRANCH  22  24
ENDBRANCH  21  22
ENDBRANCH  20  21
ENDBRANCH   1  20
TORSDOF 13
ENDMDL
MODEL 6
REMARK VINA RESULT:      -6.1      2.983      7.335
REMARK  Name = 
REMARK  17 active torsions:
REMARK  status: ('A' for Active; 'I' for Inactive)
REMARK    1  A    between atoms: C_1  and  C_2
REMARK    2  A    between atoms: C_2  and  C_3
REMARK    3  A    between atoms: C_2  and  O_4
REMARK    4  A    between atoms: O_4  and  C_5
REMARK    5  A    between atoms: C_5  and  C_7
REMARK    6  A    between atoms: C_7  and  C_8
REMARK    7  A    between atoms: C_7  and  N_9
REMARK    8  A    between atoms: N_9  and  P_10
REMARK    9  A    between atoms: P_10  and  C_12
REMARK   10  A    between atoms: P_10  and  O_27
REMARK   11  A    between atoms: C_12  and  O_13
REMARK   12  A    between atoms: O_13  and  C_14
REMARK   13  A    between atoms: C_14  and  C_15
REMARK   14  A    between atoms: C_14  and  C_16
REMARK   15  A    between atoms: C_16  and  N_17
REMARK   16  A    between atoms: C_21  and  N_26
REMARK   17  A    between atoms: O_27  and  C_28
REMARK                            x       y       z     vdW  Elec       q    Type
REMARK                         _______ _______ _______ _____ _____    ______ ____
ROOT
ATOM      1  P   UNL     1       8.631  -3.769  24.486  0.00  0.00    +0.345 P 
ATOM      2  O   UNL     1       9.586  -4.931  24.485  0.00  0.00    -0.257 OA
ENDROOT
BRANCH   1   3
ATOM      3  N   UNL     1       7.244  -4.028  23.625  0.00  0.00    -0.221 NA
ATOM      4  H   UNL     1       6.461  -3.585  24.098  0.00  0.00    +0.133 HD
BRANCH   3   5
ATOM      5  C   UNL     1       6.850  -5.394  23.245  0.00  0.00    +0.169 C 
ATOM      6  C   UNL     1       7.403  -5.744  21.868  0.00  0.00    +0.036 C 
BRANCH   5   7
ATOM      7  C   UNL     1       5.335  -5.607  23.257  0.00  0.00    +0.325 C 
ATOM      8  O   UNL     1       4.661  -5.642  22.235  0.00  0.00    -0.249 OA
BRANCH   7   9
ATOM      9  O   UNL     1       4.844  -5.700  24.523  0.00  0.00    -0.461 OA
BRANCH   9  11
ATOM     10  C   UNL     1       2.894  -6.300  25.864  0.00  0.00    +0.052 C 
ATOM     11  C   UNL     1       3.421  -5.516  24.666  0.00  0.00    +0.170 C 
ATOM     12  C   UNL     1       3.175  -4.024  24.860  0.00  0.00    +0.052 C 
ENDBRANCH   9  11
ENDBRANCH   7   9
ENDBRANCH   5   7
ENDBRANCH   3   5
ENDBRANCH   1   3
BRANCH   1  13
ATOM     13  O   UNL     1       8.215  -3.288  25.971  0.00  0.00    -0.431 OA
BRANCH  13  14
ATOM     14  C   UNL     1       7.198  -3.794  26.719  0.00  0.00    +0.129 A 
ATOM     15  C   UNL     1       7.332  -5.127  27.110  0.00  0.00    +0.046 A 
ATOM     16  C   UNL     1       6.359  -5.728  27.905  0.00  0.00    +0.004 A 
ATOM     17  C   UNL     1       5.240  -4.998  28.290  0.00  0.00    +0.000 A 
ATOM     18  C   UNL     1       5.087  -3.675  27.865  0.00  0.00    +0.004 A 
ATOM     19  C   UNL     1       6.067  -3.070  27.075  0.00  0.00    +0.046 A 
ENDBRANCH  13  14
ENDBRANCH   1  13
BRANCH   1  20
ATOM     20  C   UNL     1       9.435  -2.239  23.902  0.00  0.00    +0.286 C 
BRANCH  20  21
ATOM     21  O   UNL     1       8.534  -1.635  22.967  0.00  0.00    -0.363 OA
BRANCH  21  22
ATOM     22  C   UNL     1       8.019  -0.362  23.364  0.00  0.00    +0.136 C 
ATOM     23  C   UNL     1       6.611  -0.541  23.922  0.00  0.00    +0.040 C 
BRANCH  22  24
ATOM     24  C   UNL     1       8.952   0.187  24.458  0.00  0.00    +0.156 C 
BRANCH  24  25
ATOM     25  N   UNL     1       9.523   1.469  24.090  0.00  0.00    -0.312 N 
ATOM     26  C   UNL     1       9.069   2.696  24.485  0.00  0.00    +0.165 A 
ATOM     27  C   UNL     1       9.850   3.603  23.785  0.00  0.00    +0.147 A 
ATOM     28  C   UNL     1       9.537   4.962  23.950  0.00  0.00    +0.147 A 
ATOM     29  N   UNL     1       8.527   5.295  24.785  0.00  0.00    -0.219 NA
ATOM     30  C   UNL     1       7.874   4.302  25.429  0.00  0.00    +0.225 A 
ATOM     31  N   UNL     1      10.790   2.949  23.013  0.00  0.00    -0.231 NA
ATOM     32  N   UNL     1       8.062   2.969  25.330  0.00  0.00    -0.216 NA
ATOM     33  C   UNL     1      10.568   1.668  23.228  0.00  0.00    +0.201 A 
BRANCH  28  34
ATOM     34  N   UNL     1      10.185   5.982  23.260  0.00  0.00    -0.341 N 
ATOM     35  H   UNL     1      11.069   5.667  22.883  0.00  0.00    +0.144 HD
ATOM     36  H   UNL     1      10.187   6.858  23.773  0.00  0.00    +0.144 HD
ENDBRANCH  28  34
ENDBRANCH  24  25
ENDBRANCH  22  24
ENDBRANCH  21  22
ENDBRANCH  20  21
ENDBRANCH   1  20
TORSDOF 13
ENDMDL
MODEL 7
REMARK VINA RESULT:      -6.0      1.475      2.220
REMARK  Name = 
REMARK  17 active torsions:
REMARK  status: ('A' for Active; 'I' for Inactive)
REMARK    1  A    between atoms: C_1  and  C_2
REMARK    2  A    between atoms: C_2  and  C_3
REMARK    3  A    between atoms: C_2  and  O_4
REMARK    4  A    between atoms: O_4  and  C_5
REMARK    5  A    between atoms: C_5  and  C_7
REMARK    6  A    between atoms: C_7  and  C_8
REMARK    7  A    between atoms: C_7  and  N_9
REMARK    8  A    between atoms: N_9  and  P_10
REMARK    9  A    between atoms: P_10  and  C_12
REMARK   10  A    between atoms: P_10  and  O_27
REMARK   11  A    between atoms: C_12  and  O_13
REMARK   12  A    between atoms: O_13  and  C_14
REMARK   13  A    between atoms: C_14  and  C_15
REMARK   14  A    between atoms: C_14  and  C_16
REMARK   15  A    between atoms: C_16  and  N_17
REMARK   16  A    between atoms: C_21  and  N_26
REMARK   17  A    between atoms: O_27  and  C_28
REMARK                            x       y       z     vdW  Elec       q    Type
REMARK                         _______ _______ _______ _____ _____    ______ ____
ROOT
ATOM      1  P   UNL     1       7.749   0.716  22.929  0.00  0.00    +0.345 P 
ATOM      2  O   UNL     1       7.465   1.656  21.791  0.00  0.00    -0.257 OA
ENDROOT
BRANCH   1   3
ATOM      3  N   UNL     1       8.155  -0.816  22.460  0.00  0.00    -0.221 NA
ATOM      4  H   UNL     1       7.312  -1.373  22.344  0.00  0.00    +0.133 HD
BRANCH   3   5
ATOM      5  C   UNL     1       9.130  -1.599  23.238  0.00  0.00    +0.169 C 
ATOM      6  C   UNL     1      10.506  -1.534  22.586  0.00  0.00    +0.036 C 
BRANCH   5   7
ATOM      7  C   UNL     1       8.718  -3.061  23.419  0.00  0.00    +0.325 C 
ATOM      8  O   UNL     1       9.276  -3.815  24.206  0.00  0.00    -0.249 OA
BRANCH   7   9
ATOM      9  O   UNL     1       7.708  -3.413  22.576  0.00  0.00    -0.461 OA
BRANCH   9  11
ATOM     10  C   UNL     1       5.406  -4.119  22.976  0.00  0.00    +0.052 C 
ATOM     11  C   UNL     1       6.879  -4.512  23.006  0.00  0.00    +0.170 C 
ATOM     12  C   UNL     1       7.136  -5.673  22.052  0.00  0.00    +0.052 C 
ENDBRANCH   9  11
ENDBRANCH   7   9
ENDBRANCH   5   7
ENDBRANCH   3   5
ENDBRANCH   1   3
BRANCH   1  13
ATOM     13  O   UNL     1       8.899   1.253  23.929  0.00  0.00    -0.431 OA
BRANCH  13  14
ATOM     14  C   UNL     1       9.419   2.510  23.945  0.00  0.00    +0.129 A 
ATOM     15  C   UNL     1      10.706   2.646  23.423  0.00  0.00    +0.046 A 
ATOM     16  C   UNL     1      11.314   3.898  23.366  0.00  0.00    +0.004 A 
ATOM     17  C   UNL     1      10.638   5.011  23.855  0.00  0.00    +0.000 A 
ATOM     18  C   UNL     1       9.366   4.868  24.415  0.00  0.00    +0.004 A 
ATOM     19  C   UNL     1       8.753   3.614  24.464  0.00  0.00    +0.046 A 
ENDBRANCH  13  14
ENDBRANCH   1  13
BRANCH   1  20
ATOM     20  C   UNL     1       6.356   0.645  24.105  0.00  0.00    +0.286 C 
BRANCH  20  21
ATOM     21  O   UNL     1       6.064  -0.742  24.311  0.00  0.00    -0.363 OA
BRANCH  21  22
ATOM     22  C   UNL     1       6.315  -1.220  25.634  0.00  0.00    +0.136 C 
ATOM     23  C   UNL     1       6.409  -0.033  26.587  0.00  0.00    +0.040 C 
BRANCH  22  24
ATOM     24  C   UNL     1       5.129  -2.117  26.029  0.00  0.00    +0.156 C 
BRANCH  24  25
ATOM     25  N   UNL     1       5.569  -3.396  26.556  0.00  0.00    -0.312 N 
ATOM     26  C   UNL     1       4.771  -4.465  26.847  0.00  0.00    +0.165 A 
ATOM     27  C   UNL     1       5.621  -5.391  27.432  0.00  0.00    +0.147 A 
ATOM     28  C   UNL     1       5.032  -6.575  27.905  0.00  0.00    +0.147 A 
ATOM     29  N   UNL     1       3.700  -6.744  27.740  0.00  0.00    -0.219 NA
ATOM     30  C   UNL     1       3.002  -5.769  27.118  0.00  0.00    +0.225 A 
ATOM     31  N   UNL     1       6.918  -4.919  27.460  0.00  0.00    -0.231 NA
ATOM     32  N   UNL     1       3.447  -4.583  26.651  0.00  0.00    -0.216 NA
ATOM     33  C   UNL     1       6.850  -3.720  26.917  0.00  0.00    +0.201 A 
BRANCH  28  34
ATOM     34  N   UNL     1       5.743  -7.565  28.577  0.00  0.00    -0.341 N 
ATOM     35  H   UNL     1       6.740  -7.458  28.439  0.00  0.00    +0.144 HD
ATOM     36  H   UNL     1       5.353  -8.490  28.432  0.00  0.00    +0.144 HD
ENDBRANCH  28  34
ENDBRANCH  24  25
ENDBRANCH  22  24
ENDBRANCH  21  22
ENDBRANCH  20  21
ENDBRANCH   1  20
TORSDOF 13
ENDMDL
MODEL 8
REMARK VINA RESULT:      -6.0      2.791      6.829
REMARK  Name = 
REMARK  17 active torsions:
REMARK  status: ('A' for Active; 'I' for Inactive)
REMARK    1  A    between atoms: C_1  and  C_2
REMARK    2  A    between atoms: C_2  and  C_3
REMARK    3  A    between atoms: C_2  and  O_4
REMARK    4  A    between atoms: O_4  and  C_5
REMARK    5  A    between atoms: C_5  and  C_7
REMARK    6  A    between atoms: C_7  and  C_8
REMARK    7  A    between atoms: C_7  and  N_9
REMARK    8  A    between atoms: N_9  and  P_10
REMARK    9  A    between atoms: P_10  and  C_12
REMARK   10  A    between atoms: P_10  and  O_27
REMARK   11  A    between atoms: C_12  and  O_13
REMARK   12  A    between atoms: O_13  and  C_14
REMARK   13  A    between atoms: C_14  and  C_15
REMARK   14  A    between atoms: C_14  and  C_16
REMARK   15  A    between atoms: C_16  and  N_17
REMARK   16  A    between atoms: C_21  and  N_26
REMARK   17  A    between atoms: O_27  and  C_28
REMARK                            x       y       z     vdW  Elec       q    Type
REMARK                         _______ _______ _______ _____ _____    ______ ____
ROOT
ATOM      1  P   UNL     1       5.455  -3.713  27.151  0.00  0.00    +0.345 P 
ATOM      2  O   UNL     1       6.064  -4.446  28.314  0.00  0.00    -0.257 OA
ENDROOT
BRANCH   1   3
ATOM      3  N   UNL     1       6.402  -3.683  25.796  0.00  0.00    -0.221 NA
ATOM      4  H   UNL     1       5.820  -3.795  24.970  0.00  0.00    +0.133 HD
BRANCH   3   5
ATOM      5  C   UNL     1       7.560  -4.583  25.679  0.00  0.00    +0.169 C 
ATOM      6  C   UNL     1       8.833  -3.875  26.130  0.00  0.00    +0.036 C 
BRANCH   5   7
ATOM      7  C   UNL     1       7.753  -5.131  24.264  0.00  0.00    +0.325 C 
ATOM      8  O   UNL     1       8.846  -5.468  23.825  0.00  0.00    -0.249 OA
BRANCH   7   9
ATOM      9  O   UNL     1       6.588  -5.148  23.561  0.00  0.00    -0.461 OA
BRANCH   9  11
ATOM     10  C   UNL     1       6.177  -5.696  21.218  0.00  0.00    +0.052 C 
ATOM     11  C   UNL     1       6.655  -4.642  22.212  0.00  0.00    +0.170 C 
ATOM     12  C   UNL     1       5.760  -3.410  22.146  0.00  0.00    +0.052 C 
ENDBRANCH   9  11
ENDBRANCH   7   9
ENDBRANCH   5   7
ENDBRANCH   3   5
ENDBRANCH   1   3
BRANCH   1  13
ATOM     13  O   UNL     1       4.001  -4.278  26.732  0.00  0.00    -0.431 OA
BRANCH  13  14
ATOM     14  C   UNL     1       3.726  -5.051  25.647  0.00  0.00    +0.129 A 
ATOM     15  C   UNL     1       3.052  -4.420  24.601  0.00  0.00    +0.046 A 
ATOM     16  C   UNL     1       2.754  -5.119  23.433  0.00  0.00    +0.004 A 
ATOM     17  C   UNL     1       3.112  -6.457  23.324  0.00  0.00    +0.000 A 
ATOM     18  C   UNL     1       3.752  -7.100  24.388  0.00  0.00    +0.004 A 
ATOM     19  C   UNL     1       4.058  -6.398  25.555  0.00  0.00    +0.046 A 
ENDBRANCH  13  14
ENDBRANCH   1  13
BRANCH   1  20
ATOM     20  C   UNL     1       4.983  -2.010  27.603  0.00  0.00    +0.286 C 
BRANCH  20  21
ATOM     21  O   UNL     1       5.015  -1.242  26.394  0.00  0.00    -0.363 OA
BRANCH  21  22
ATOM     22  C   UNL     1       5.637   0.040  26.511  0.00  0.00    +0.136 C 
ATOM     23  C   UNL     1       5.293   0.643  27.869  0.00  0.00    +0.040 C 
BRANCH  22  24
ATOM     24  C   UNL     1       7.156  -0.178  26.403  0.00  0.00    +0.156 C 
BRANCH  24  25
ATOM     25  N   UNL     1       7.744   0.621  25.344  0.00  0.00    -0.312 N 
ATOM     26  C   UNL     1       8.201   0.157  24.143  0.00  0.00    +0.165 A 
ATOM     27  C   UNL     1       8.778   1.261  23.535  0.00  0.00    +0.147 A 
ATOM     28  C   UNL     1       9.405   1.042  22.297  0.00  0.00    +0.147 A 
ATOM     29  N   UNL     1       9.385  -0.206  21.776  0.00  0.00    -0.219 NA
ATOM     30  C   UNL     1       8.753  -1.180  22.468  0.00  0.00    +0.225 A 
ATOM     31  N   UNL     1       8.638   2.386  24.323  0.00  0.00    -0.231 NA
ATOM     32  N   UNL     1       8.147  -1.099  23.671  0.00  0.00    -0.216 NA
ATOM     33  C   UNL     1       8.005   1.964  25.399  0.00  0.00    +0.201 A 
BRANCH  28  34
ATOM     34  N   UNL     1      10.085   2.036  21.601  0.00  0.00    -0.341 N 
ATOM     35  H   UNL     1      11.081   1.988  21.772  0.00  0.00    +0.144 HD
ATOM     36  H   UNL     1       9.645   2.945  21.691  0.00  0.00    +0.144 HD
ENDBRANCH  28  34
ENDBRANCH  24  25
ENDBRANCH  22  24
ENDBRANCH  21  22
ENDBRANCH  20  21
ENDBRANCH   1  20
TORSDOF 13
ENDMDL
MODEL 9
REMARK VINA RESULT:      -5.9      1.681      2.461
REMARK  Name = 
REMARK  17 active torsions:
REMARK  status: ('A' for Active; 'I' for Inactive)
REMARK    1  A    between atoms: C_1  and  C_2
REMARK    2  A    between atoms: C_2  and  C_3
REMARK    3  A    between atoms: C_2  and  O_4
REMARK    4  A    between atoms: O_4  and  C_5
REMARK    5  A    between atoms: C_5  and  C_7
REMARK    6  A    between atoms: C_7  and  C_8
REMARK    7  A    between atoms: C_7  and  N_9
REMARK    8  A    between atoms: N_9  and  P_10
REMARK    9  A    between atoms: P_10  and  C_12
REMARK   10  A    between atoms: P_10  and  O_27
REMARK   11  A    between atoms: C_12  and  O_13
REMARK   12  A    between atoms: O_13  and  C_14
REMARK   13  A    between atoms: C_14  and  C_15
REMARK   14  A    between atoms: C_14  and  C_16
REMARK   15  A    between atoms: C_16  and  N_17
REMARK   16  A    between atoms: C_21  and  N_26
REMARK   17  A    between atoms: O_27  and  C_28
REMARK                            x       y       z     vdW  Elec       q    Type
REMARK                         _______ _______ _______ _____ _____    ______ ____
ROOT
ATOM      1  P   UNL     1       7.755   1.635  23.342  0.00  0.00    +0.345 P 
ATOM      2  O   UNL     1       7.032   2.493  22.342  0.00  0.00    -0.257 OA
ENDROOT
BRANCH   1   3
ATOM      3  N   UNL     1       8.971   0.718  22.699  0.00  0.00    -0.221 NA
ATOM      4  H   UNL     1       8.656   0.293  21.831  0.00  0.00    +0.133 HD
BRANCH   3   5
ATOM      5  C   UNL     1       9.635  -0.313  23.512  0.00  0.00    +0.169 C 
ATOM      6  C   UNL     1      10.854   0.269  24.219  0.00  0.00    +0.036 C 
BRANCH   5   7
ATOM      7  C   UNL     1      10.051  -1.541  22.701  0.00  0.00    +0.325 C 
ATOM      8  O   UNL     1      10.192  -1.517  21.485  0.00  0.00    -0.249 OA
BRANCH   7   9
ATOM      9  O   UNL     1      10.192  -2.646  23.485  0.00  0.00    -0.461 OA
BRANCH   9  11
ATOM     10  C   UNL     1       7.916  -3.487  23.221  0.00  0.00    +0.052 C 
ATOM     11  C   UNL     1       9.013  -3.071  24.197  0.00  0.00    +0.170 C 
ATOM     12  C   UNL     1       9.415  -4.251  25.074  0.00  0.00    +0.052 C 
ENDBRANCH   9  11
ENDBRANCH   7   9
ENDBRANCH   5   7
ENDBRANCH   3   5
ENDBRANCH   1   3
BRANCH   1  13
ATOM     13  O   UNL     1       8.364   2.475  24.580  0.00  0.00    -0.431 OA
BRANCH  13  14
ATOM     14  C   UNL     1       8.972   3.689  24.499  0.00  0.00    +0.129 A 
ATOM     15  C   UNL     1       8.374   4.722  25.222  0.00  0.00    +0.046 A 
ATOM     16  C   UNL     1       8.939   5.996  25.228  0.00  0.00    +0.004 A 
ATOM     17  C   UNL     1      10.092   6.238  24.491  0.00  0.00    +0.000 A 
ATOM     18  C   UNL     1      10.669   5.214  23.735  0.00  0.00    +0.004 A 
ATOM     19  C   UNL     1      10.107   3.935  23.735  0.00  0.00    +0.046 A 
ENDBRANCH  13  14
ENDBRANCH   1  13
BRANCH   1  20
ATOM     20  C   UNL     1       6.603   0.561  24.263  0.00  0.00    +0.286 C 
BRANCH  20  21
ATOM     21  O   UNL     1       7.069   0.527  25.617  0.00  0.00    -0.363 OA
BRANCH  21  22
ATOM     22  C   UNL     1       7.351  -0.779  26.124  0.00  0.00    +0.136 C 
ATOM     23  C   UNL     1       8.526  -0.699  27.093  0.00  0.00    +0.040 C 
BRANCH  22  24
ATOM     24  C   UNL     1       6.093  -1.265  26.864  0.00  0.00    +0.156 C 
BRANCH  24  25
ATOM     25  N   UNL     1       5.524  -2.448  26.246  0.00  0.00    -0.312 N 
ATOM     26  C   UNL     1       5.843  -3.744  26.539  0.00  0.00    +0.165 A 
ATOM     27  C   UNL     1       5.140  -4.499  25.614  0.00  0.00    +0.147 A 
ATOM     28  C   UNL     1       5.353  -5.887  25.643  0.00  0.00    +0.147 A 
ATOM     29  N   UNL     1       6.196  -6.392  26.572  0.00  0.00    -0.219 NA
ATOM     30  C   UNL     1       6.786  -5.535  27.434  0.00  0.00    +0.225 A 
ATOM     31  N   UNL     1       4.372  -3.689  24.800  0.00  0.00    -0.231 NA
ATOM     32  N   UNL     1       6.686  -4.190  27.485  0.00  0.00    -0.216 NA
ATOM     33  C   UNL     1       4.622  -2.464  25.215  0.00  0.00    +0.201 A 
BRANCH  28  34
ATOM     34  N   UNL     1       4.772  -6.766  24.733  0.00  0.00    -0.341 N 
ATOM     35  H   UNL     1       4.248  -7.490  25.206  0.00  0.00    +0.144 HD
ATOM     36  H   UNL     1       5.420  -7.062  24.011  0.00  0.00    +0.144 HD
ENDBRANCH  28  34
ENDBRANCH  24  25
ENDBRANCH  22  24
ENDBRANCH  21  22
ENDBRANCH  20  21
ENDBRANCH   1  20
TORSDOF 13
ENDMDL
