MODEL 1
REMARK VINA RESULT:      -5.9      0.000      0.000
REMARK  Name = 
REMARK  4 active torsions:
REMARK  status: ('A' for Active; 'I' for Inactive)
REMARK    1  A    between atoms: C3*_2  and  O3*_19
REMARK    2  A    between atoms: C4*_4  and  C5*_17
REMARK    3  A    between atoms: C1*_7  and  N_8
REMARK    4  A    between atoms: C5*_17  and  O5*_18
REMARK                            x       y       z     vdW  Elec       q    Type
REMARK                         _______ _______ _______ _____ _____    ______ ____
ROOT
ATOM      1  C2* UNL     1       8.708  -4.037  24.493  0.00  0.00    +0.088 C 
ATOM      2  C1* UNL     1       8.002  -4.657  23.289  0.00  0.00    +0.226 C 
ATOM      3  O4* UNL     1       7.737  -3.596  22.348  0.00  0.00    -0.348 OA
ATOM      4  C4* UNL     1       8.235  -2.369  22.923  0.00  0.00    +0.175 C 
ATOM      5  C3* UNL     1       9.315  -2.785  23.905  0.00  0.00    +0.150 C 
ENDROOT
BRANCH   2   6
ATOM      6  N   UNL     1       6.761  -5.328  23.665  0.00  0.00    -0.273 N 
ATOM      7  C   UNL     1       6.118  -6.063  22.681  0.00  0.00    +0.331 A 
ATOM      8  O   UNL     1       6.515  -6.151  21.522  0.00  0.00    -0.246 OA
ATOM      9  N   UNL     1       4.996  -6.738  23.086  0.00  0.00    -0.274 N 
ATOM     10  H   UNL     1       4.545  -7.313  22.391  0.00  0.00    +0.173 HD
ATOM     11  C   UNL     1       4.568  -6.888  24.376  0.00  0.00    +0.267 A 
ATOM     12  O   UNL     1       3.673  -7.680  24.655  0.00  0.00    -0.267 OA
ATOM     13  C   UNL     1       5.276  -6.063  25.392  0.00  0.00    +0.094 A 
ATOM     14  I   UNL     1       4.678  -6.099  27.345  0.00  0.00    -0.037 I 
ATOM     15  C   UNL     1       6.325  -5.340  24.980  0.00  0.00    +0.113 A 
ENDBRANCH   2   6
BRANCH   5  16
ATOM     16  O3* UNL     1       9.591  -1.806  24.889  0.00  0.00    -0.389 OA
ATOM     17  H3* UNL     1      10.529  -1.860  25.144  0.00  0.00    +0.210 HD
ENDBRANCH   5  16
BRANCH   4  18
ATOM     18  C5* UNL     1       8.719  -1.445  21.814  0.00  0.00    +0.190 C 
BRANCH  18  19
ATOM     19  O5* UNL     1      10.131  -1.607  21.657  0.00  0.00    -0.392 OA
ATOM     20  H5* UNL     1      10.352  -2.454  22.089  0.00  0.00    +0.210 HD
ENDBRANCH  18  19
ENDBRANCH   4  18
TORSDOF 4
ENDMDL
MODEL 2
REMARK VINA RESULT:      -5.9      3.009      3.396
REMARK  Name = 
REMARK  4 active torsions:
REMARK  status: ('A' for Active; 'I' for Inactive)
REMARK    1  A    between atoms: C3*_2  and  O3*_19
REMARK    2  A    between atoms: C4*_4  and  C5*_17
REMARK    3  A    between atoms: C1*_7  and  N_8
REMARK    4  A    between atoms: C5*_17  and  O5*_18
REMARK                            x       y       z     vdW  Elec       q    Type
REMARK                         _______ _______ _______ _____ _____    ______ ____
ROOT
ATOM      1  C2* UNL     1       9.491  -0.955  25.011  0.00  0.00    +0.088 C 
ATOM      2  C1* UNL     1       9.653  -2.345  24.400  0.00  0.00    +0.226 C 
ATOM      3  O4* UNL     1       9.293  -2.251  23.006  0.00  0.00    -0.348 OA
ATOM      4  C4* UNL     1       8.914  -0.883  22.745  0.00  0.00    +0.175 C 
ATOM      5  C3* UNL     1       9.616  -0.054  23.805  0.00  0.00    +0.150 C 
ENDROOT
BRANCH   2   6
ATOM      6  N   UNL     1       8.826  -3.341  25.076  0.00  0.00    -0.273 N 
ATOM      7  C   UNL     1       9.378  -4.599  25.260  0.00  0.00    +0.331 A 
ATOM      8  O   UNL     1      10.495  -4.922  24.864  0.00  0.00    -0.246 OA
ATOM      9  N   UNL     1       8.605  -5.487  25.960  0.00  0.00    -0.274 N 
ATOM     10  H   UNL     1       9.013  -6.392  26.140  0.00  0.00    +0.173 HD
ATOM     11  C   UNL     1       7.445  -5.197  26.624  0.00  0.00    +0.267 A 
ATOM     12  O   UNL     1       6.938  -6.009  27.391  0.00  0.00    -0.267 OA
ATOM     13  C   UNL     1       6.882  -3.842  26.378  0.00  0.00    +0.094 A 
ATOM     14  I   UNL     1       5.099  -3.301  27.216  0.00  0.00    -0.037 I 
ATOM     15  C   UNL     1       7.602  -3.000  25.627  0.00  0.00    +0.113 A 
ENDBRANCH   2   6
BRANCH   5  16
ATOM     16  O3* UNL     1       9.022   1.214  24.015  0.00  0.00    -0.389 OA
ATOM     17  H3* UNL     1       9.495   1.883  23.489  0.00  0.00    +0.210 HD
ENDBRANCH   5  16
BRANCH   4  18
ATOM     18  C5* UNL     1       9.283  -0.514  21.315  0.00  0.00    +0.190 C 
BRANCH  18  19
ATOM     19  O5* UNL     1       9.091   0.890  21.133  0.00  0.00    -0.392 OA
ATOM     20  H5* UNL     1       8.242   0.985  20.660  0.00  0.00    +0.210 HD
ENDBRANCH  18  19
ENDBRANCH   4  18
TORSDOF 4
ENDMDL
MODEL 3
REMARK VINA RESULT:      -5.8      3.025      6.058
REMARK  Name = 
REMARK  4 active torsions:
REMARK  status: ('A' for Active; 'I' for Inactive)
REMARK    1  A    between atoms: C3*_2  and  O3*_19
REMARK    2  A    between atoms: C4*_4  and  C5*_17
REMARK    3  A    between atoms: C1*_7  and  N_8
REMARK    4  A    between atoms: C5*_17  and  O5*_18
REMARK                            x       y       z     vdW  Elec       q    Type
REMARK                         _______ _______ _______ _____ _____    ______ ____
ROOT
ATOM      1  C2* UNL     1       7.428  -5.189  22.581  0.00  0.00    +0.088 C 
ATOM      2  C1* UNL     1       7.458  -4.828  24.065  0.00  0.00    +0.226 C 
ATOM      3  O4* UNL     1       6.106  -4.919  24.560  0.00  0.00    -0.348 OA
ATOM      4  C4* UNL     1       5.262  -5.304  23.455  0.00  0.00    +0.175 C 
ATOM      5  C3* UNL     1       6.172  -6.020  22.474  0.00  0.00    +0.150 C 
ENDROOT
BRANCH   2   6
ATOM      6  N   UNL     1       7.999  -3.492  24.294  0.00  0.00    -0.273 N 
ATOM      7  C   UNL     1       8.320  -3.157  25.601  0.00  0.00    +0.331 A 
ATOM      8  O   UNL     1       8.148  -3.903  26.562  0.00  0.00    -0.246 OA
ATOM      9  N   UNL     1       8.892  -1.924  25.772  0.00  0.00    -0.274 N 
ATOM     10  H   UNL     1       9.172  -1.686  26.711  0.00  0.00    +0.173 HD
ATOM     11  C   UNL     1       9.321  -1.090  24.776  0.00  0.00    +0.267 A 
ATOM     12  O   UNL     1      10.004  -0.103  25.031  0.00  0.00    -0.267 OA
ATOM     13  C   UNL     1       8.933  -1.481  23.394  0.00  0.00    +0.094 A 
ATOM     14  I   UNL     1       9.410  -0.280  21.812  0.00  0.00    -0.037 I 
ATOM     15  C   UNL     1       8.303  -2.652  23.236  0.00  0.00    +0.113 A 
ENDBRANCH   2   6
BRANCH   5  16
ATOM     16  O3* UNL     1       5.661  -6.058  21.155  0.00  0.00    -0.389 OA
ATOM     17  H3* UNL     1       5.632  -6.981  20.846  0.00  0.00    +0.210 HD
ENDBRANCH   5  16
BRANCH   4  18
ATOM     18  C5* UNL     1       4.103  -6.149  23.967  0.00  0.00    +0.190 C 
BRANCH  18  19
ATOM     19  O5* UNL     1       4.414  -7.530  23.772  0.00  0.00    -0.392 OA
ATOM     20  H5* UNL     1       3.732  -8.029  24.259  0.00  0.00    +0.210 HD
ENDBRANCH  18  19
ENDBRANCH   4  18
TORSDOF 4
ENDMDL
MODEL 4
REMARK VINA RESULT:      -5.6      2.472      3.013
REMARK  Name = 
REMARK  4 active torsions:
REMARK  status: ('A' for Active; 'I' for Inactive)
REMARK    1  A    between atoms: C3*_2  and  O3*_19
REMARK    2  A    between atoms: C4*_4  and  C5*_17
REMARK    3  A    between atoms: C1*_7  and  N_8
REMARK    4  A    between atoms: C5*_17  and  O5*_18
REMARK                            x       y       z     vdW  Elec       q    Type
REMARK                         _______ _______ _______ _____ _____    ______ ____
ROOT
ATOM      1  C2* UNL     1       7.195  -1.463  24.720  0.00  0.00    +0.088 C 
ATOM      2  C1* UNL     1       8.126  -2.594  25.153  0.00  0.00    +0.226 C 
ATOM      3  O4* UNL     1       9.064  -2.817  24.079  0.00  0.00    -0.348 OA
ATOM      4  C4* UNL     1       8.743  -1.892  23.019  0.00  0.00    +0.175 C 
ATOM      5  C3* UNL     1       8.025  -0.734  23.690  0.00  0.00    +0.150 C 
ENDROOT
BRANCH   2   6
ATOM      6  N   UNL     1       7.395  -3.820  25.458  0.00  0.00    -0.273 N 
ATOM      7  C   UNL     1       7.957  -4.672  26.397  0.00  0.00    +0.331 A 
ATOM      8  O   UNL     1       9.033  -4.465  26.953  0.00  0.00    -0.246 OA
ATOM      9  N   UNL     1       7.211  -5.777  26.713  0.00  0.00    -0.274 N 
ATOM     10  H   UNL     1       7.587  -6.380  27.428  0.00  0.00    +0.173 HD
ATOM     11  C   UNL     1       5.922  -6.016  26.325  0.00  0.00    +0.267 A 
ATOM     12  O   UNL     1       5.273  -6.929  26.827  0.00  0.00    -0.267 OA
ATOM     13  C   UNL     1       5.372  -5.088  25.301  0.00  0.00    +0.094 A 
ATOM     14  I   UNL     1       3.497  -5.383  24.545  0.00  0.00    -0.037 I 
ATOM     15  C   UNL     1       6.134  -4.051  24.933  0.00  0.00    +0.113 A 
ENDBRANCH   2   6
BRANCH   5  16
ATOM     16  O3* UNL     1       7.232   0.030  22.800  0.00  0.00    -0.389 OA
ATOM     17  H3* UNL     1       7.737   0.808  22.505  0.00  0.00    +0.210 HD
ENDBRANCH   5  16
BRANCH   4  18
ATOM     18  C5* UNL     1      10.015  -1.497  22.282  0.00  0.00    +0.190 C 
BRANCH  18  19
ATOM     19  O5* UNL     1       9.666  -0.712  21.140  0.00  0.00    -0.392 OA
ATOM     20  H5* UNL     1       9.269   0.108  21.491  0.00  0.00    +0.210 HD
ENDBRANCH  18  19
ENDBRANCH   4  18
TORSDOF 4
ENDMDL
MODEL 5
REMARK VINA RESULT:      -5.6      5.557      8.351
REMARK  Name = 
REMARK  4 active torsions:
REMARK  status: ('A' for Active; 'I' for Inactive)
REMARK    1  A    between atoms: C3*_2  and  O3*_19
REMARK    2  A    between atoms: C4*_4  and  C5*_17
REMARK    3  A    between atoms: C1*_7  and  N_8
REMARK    4  A    between atoms: C5*_17  and  O5*_18
REMARK                            x       y       z     vdW  Elec       q    Type
REMARK                         _______ _______ _______ _____ _____    ______ ____
ROOT
ATOM      1  C2* UNL     1      10.143   0.487  22.191  0.00  0.00    +0.088 C 
ATOM      2  C1* UNL     1      10.003   1.136  23.567  0.00  0.00    +0.226 C 
ATOM      3  O4* UNL     1       9.362   0.178  24.434  0.00  0.00    -0.348 OA
ATOM      4  C4* UNL     1       9.099  -1.008  23.655  0.00  0.00    +0.175 C 
ATOM      5  C3* UNL     1      10.107  -0.986  22.521  0.00  0.00    +0.150 C 
ENDROOT
BRANCH   2   6
ATOM      6  N   UNL     1       9.231   2.374  23.513  0.00  0.00    -0.273 N 
ATOM      7  C   UNL     1       9.946   3.561  23.453  0.00  0.00    +0.331 A 
ATOM      8  O   UNL     1      11.173   3.623  23.473  0.00  0.00    -0.246 OA
ATOM      9  N   UNL     1       9.194   4.699  23.331  0.00  0.00    -0.274 N 
ATOM     10  H   UNL     1       9.703   5.565  23.241  0.00  0.00    +0.173 HD
ATOM     11  C   UNL     1       7.848   4.753  23.095  0.00  0.00    +0.267 A 
ATOM     12  O   UNL     1       7.303   5.811  22.797  0.00  0.00    -0.267 OA
ATOM     13  C   UNL     1       7.122   3.458  23.192  0.00  0.00    +0.094 A 
ATOM     14  I   UNL     1       5.092   3.397  22.969  0.00  0.00    -0.037 I 
ATOM     15  C   UNL     1       7.852   2.353  23.390  0.00  0.00    +0.113 A 
ENDBRANCH   2   6
BRANCH   5  16
ATOM     16  O3* UNL     1       9.727  -1.779  21.412  0.00  0.00    -0.389 OA
ATOM     17  H3* UNL     1       9.989  -2.703  21.571  0.00  0.00    +0.210 HD
ENDBRANCH   5  16
BRANCH   4  18
ATOM     18  C5* UNL     1       9.188  -2.237  24.549  0.00  0.00    +0.190 C 
BRANCH  18  19
ATOM     19  O5* UNL     1      10.124  -3.157  23.982  0.00  0.00    -0.392 OA
ATOM     20  H5* UNL     1       9.591  -3.813  23.493  0.00  0.00    +0.210 HD
ENDBRANCH  18  19
ENDBRANCH   4  18
TORSDOF 4
ENDMDL
MODEL 6
REMARK VINA RESULT:      -5.6      3.573      6.307
REMARK  Name = 
REMARK  4 active torsions:
REMARK  status: ('A' for Active; 'I' for Inactive)
REMARK    1  A    between atoms: C3*_2  and  O3*_19
REMARK    2  A    between atoms: C4*_4  and  C5*_17
REMARK    3  A    between atoms: C1*_7  and  N_8
REMARK    4  A    between atoms: C5*_17  and  O5*_18
REMARK                            x       y       z     vdW  Elec       q    Type
REMARK                         _______ _______ _______ _____ _____    ______ ____
ROOT
ATOM      1  C2* UNL     1       7.920  -3.759  23.297  0.00  0.00    +0.088 C 
ATOM      2  C1* UNL     1       8.981  -2.906  23.990  0.00  0.00    +0.226 C 
ATOM      3  O4* UNL     1       8.747  -2.995  25.411  0.00  0.00    -0.348 OA
ATOM      4  C4* UNL     1       7.599  -3.845  25.612  0.00  0.00    +0.175 C 
ATOM      5  C3* UNL     1       7.525  -4.732  24.383  0.00  0.00    +0.150 C 
ENDROOT
BRANCH   2   6
ATOM      6  N   UNL     1       8.940  -1.515  23.551  0.00  0.00    -0.273 N 
ATOM      7  C   UNL     1       9.898  -1.115  22.632  0.00  0.00    +0.331 A 
ATOM      8  O   UNL     1      10.783  -1.850  22.200  0.00  0.00    -0.246 OA
ATOM      9  N   UNL     1       9.787   0.176  22.186  0.00  0.00    -0.274 N 
ATOM     10  H   UNL     1      10.451   0.465  21.483  0.00  0.00    +0.173 HD
ATOM     11  C   UNL     1       8.743   1.025  22.427  0.00  0.00    +0.267 A 
ATOM     12  O   UNL     1       8.638   2.084  21.817  0.00  0.00    -0.267 OA
ATOM     13  C   UNL     1       7.752   0.560  23.436  0.00  0.00    +0.094 A 
ATOM     14  I   UNL     1       6.195   1.765  23.980  0.00  0.00    -0.037 I 
ATOM     15  C   UNL     1       7.907  -0.674  23.931  0.00  0.00    +0.113 A 
ENDBRANCH   2   6
BRANCH   5  16
ATOM     16  O3* UNL     1       6.243  -5.290  24.166  0.00  0.00    -0.389 OA
ATOM     17  H3* UNL     1       6.215  -6.189  24.539  0.00  0.00    +0.210 HD
ENDBRANCH   5  16
BRANCH   4  18
ATOM     18  C5* UNL     1       7.748  -4.604  26.924  0.00  0.00    +0.190 C 
BRANCH  18  19
ATOM     19  O5* UNL     1       8.159  -5.943  26.641  0.00  0.00    -0.392 OA
ATOM     20  H5* UNL     1       7.966  -6.089  25.696  0.00  0.00    +0.210 HD
ENDBRANCH  18  19
ENDBRANCH   4  18
TORSDOF 4
ENDMDL
MODEL 7
REMARK VINA RESULT:      -5.6      2.633      5.906
REMARK  Name = 
REMARK  4 active torsions:
REMARK  status: ('A' for Active; 'I' for Inactive)
REMARK    1  A    between atoms: C3*_2  and  O3*_19
REMARK    2  A    between atoms: C4*_4  and  C5*_17
REMARK    3  A    between atoms: C1*_7  and  N_8
REMARK    4  A    between atoms: C5*_17  and  O5*_18
REMARK                            x       y       z     vdW  Elec       q    Type
REMARK                         _______ _______ _______ _____ _____    ______ ____
ROOT
ATOM      1  C2* UNL     1       5.238  -4.769  22.734  0.00  0.00    +0.088 C 
ATOM      2  C1* UNL     1       6.422  -5.212  23.592  0.00  0.00    +0.226 C 
ATOM      3  O4* UNL     1       5.891  -5.926  24.728  0.00  0.00    -0.348 OA
ATOM      4  C4* UNL     1       4.453  -5.929  24.608  0.00  0.00    +0.175 C 
ATOM      5  C3* UNL     1       4.165  -5.757  23.127  0.00  0.00    +0.150 C 
ENDROOT
BRANCH   2   6
ATOM      6  N   UNL     1       7.233  -4.081  24.031  0.00  0.00    -0.273 N 
ATOM      7  C   UNL     1       8.569  -4.333  24.307  0.00  0.00    +0.331 A 
ATOM      8  O   UNL     1       9.087  -5.445  24.231  0.00  0.00    -0.246 OA
ATOM      9  N   UNL     1       9.319  -3.238  24.648  0.00  0.00    -0.274 N 
ATOM     10  H   UNL     1      10.302  -3.401  24.807  0.00  0.00    +0.173 HD
ATOM     11  C   UNL     1       8.919  -1.933  24.572  0.00  0.00    +0.267 A 
ATOM     12  O   UNL     1       9.727  -1.018  24.700  0.00  0.00    -0.267 OA
ATOM     13  C   UNL     1       7.474  -1.714  24.294  0.00  0.00    +0.094 A 
ATOM     14  I   UNL     1       6.707   0.178  24.256  0.00  0.00    -0.037 I 
ATOM     15  C   UNL     1       6.724  -2.794  24.039  0.00  0.00    +0.113 A 
ENDBRANCH   2   6
BRANCH   5  16
ATOM     16  O3* UNL     1       2.862  -5.273  22.859  0.00  0.00    -0.389 OA
ATOM     17  H3* UNL     1       2.445  -4.989  23.692  0.00  0.00    +0.210 HD
ENDBRANCH   5  16
BRANCH   4  18
ATOM     18  C5* UNL     1       3.893  -7.210  25.210  0.00  0.00    +0.190 C 
BRANCH  18  19
ATOM     19  O5* UNL     1       3.365  -8.025  24.161  0.00  0.00    -0.392 OA
ATOM     20  H5* UNL     1       2.625  -8.524  24.556  0.00  0.00    +0.210 HD
ENDBRANCH  18  19
ENDBRANCH   4  18
TORSDOF 4
ENDMDL
MODEL 8
REMARK VINA RESULT:      -5.5      3.141      6.190
REMARK  Name = 
REMARK  4 active torsions:
REMARK  status: ('A' for Active; 'I' for Inactive)
REMARK    1  A    between atoms: C3*_2  and  O3*_19
REMARK    2  A    between atoms: C4*_4  and  C5*_17
REMARK    3  A    between atoms: C1*_7  and  N_8
REMARK    4  A    between atoms: C5*_17  and  O5*_18
REMARK                            x       y       z     vdW  Elec       q    Type
REMARK                         _______ _______ _______ _____ _____    ______ ____
ROOT
ATOM      1  C2* UNL     1       5.753  -5.344  25.489  0.00  0.00    +0.088 C 
ATOM      2  C1* UNL     1       7.263  -5.353  25.717  0.00  0.00    +0.226 C 
ATOM      3  O4* UNL     1       7.486  -5.535  27.131  0.00  0.00    -0.348 OA
ATOM      4  C4* UNL     1       6.195  -5.626  27.768  0.00  0.00    +0.175 C 
ATOM      5  C3* UNL     1       5.238  -6.101  26.690  0.00  0.00    +0.150 C 
ENDROOT
BRANCH   2   6
ATOM      6  N   UNL     1       7.895  -4.121  25.254  0.00  0.00    -0.273 N 
ATOM      7  C   UNL     1       9.200  -4.216  24.794  0.00  0.00    +0.331 A 
ATOM      8  O   UNL     1       9.849  -5.259  24.786  0.00  0.00    -0.246 OA
ATOM      9  N   UNL     1       9.738  -3.058  24.299  0.00  0.00    -0.274 N 
ATOM     10  H   UNL     1      10.671  -3.123  23.920  0.00  0.00    +0.173 HD
ATOM     11  C   UNL     1       9.064  -1.892  24.065  0.00  0.00    +0.267 A 
ATOM     12  O   UNL     1       9.584  -0.979  23.430  0.00  0.00    -0.267 OA
ATOM     13  C   UNL     1       7.675  -1.831  24.595  0.00  0.00    +0.094 A 
ATOM     14  I   UNL     1       6.579  -0.117  24.416  0.00  0.00    -0.037 I 
ATOM     15  C   UNL     1       7.176  -2.942  25.151  0.00  0.00    +0.113 A 
ENDBRANCH   2   6
BRANCH   5  16
ATOM     16  O3* UNL     1       3.881  -5.810  26.970  0.00  0.00    -0.389 OA
ATOM     17  H3* UNL     1       3.445  -5.494  26.160  0.00  0.00    +0.210 HD
ENDBRANCH   5  16
BRANCH   4  18
ATOM     18  C5* UNL     1       6.284  -6.548  28.976  0.00  0.00    +0.190 C 
BRANCH  18  19
ATOM     19  O5* UNL     1       5.532  -7.734  28.712  0.00  0.00    -0.392 OA
ATOM     20  H5* UNL     1       4.630  -7.435  28.490  0.00  0.00    +0.210 HD
ENDBRANCH  18  19
ENDBRANCH   4  18
TORSDOF 4
ENDMDL
MODEL 9
REMARK VINA RESULT:      -5.4      2.896      3.969
REMARK  Name = 
REMARK  4 active torsions:
REMARK  status: ('A' for Active; 'I' for Inactive)
REMARK    1  A    between atoms: C3*_2  and  O3*_19
REMARK    2  A    between atoms: C4*_4  and  C5*_17
REMARK    3  A    between atoms: C1*_7  and  N_8
REMARK    4  A    between atoms: C5*_17  and  O5*_18
REMARK                            x       y       z     vdW  Elec       q    Type
REMARK                         _______ _______ _______ _____ _____    ______ ____
ROOT
ATOM      1  C2* UNL     1       6.859  -0.126  23.929  0.00  0.00    +0.088 C 
ATOM      2  C1* UNL     1       7.979  -1.075  24.348  0.00  0.00    +0.226 C 
ATOM      3  O4* UNL     1       9.024  -0.976  23.358  0.00  0.00    -0.348 OA
ATOM      4  C4* UNL     1       8.591  -0.027  22.361  0.00  0.00    +0.175 C 
ATOM      5  C3* UNL     1       7.586   0.871  23.058  0.00  0.00    +0.150 C 
ENDROOT
BRANCH   2   6
ATOM      6  N   UNL     1       7.515  -2.454  24.466  0.00  0.00    -0.273 N 
ATOM      7  C   UNL     1       7.130  -2.885  25.726  0.00  0.00    +0.331 A 
ATOM      8  O   UNL     1       7.188  -2.188  26.736  0.00  0.00    -0.246 OA
ATOM      9  N   UNL     1       6.632  -4.160  25.789  0.00  0.00    -0.274 N 
ATOM     10  H   UNL     1       6.306  -4.469  26.692  0.00  0.00    +0.173 HD
ATOM     11  C   UNL     1       6.327  -4.959  24.722  0.00  0.00    +0.267 A 
ATOM     12  O   UNL     1       5.695  -5.999  24.874  0.00  0.00    -0.267 OA
ATOM     13  C   UNL     1       6.778  -4.463  23.393  0.00  0.00    +0.094 A 
ATOM     14  I   UNL     1       6.489  -5.597  21.719  0.00  0.00    -0.037 I 
ATOM     15  C   UNL     1       7.338  -3.248  23.345  0.00  0.00    +0.113 A 
ENDBRANCH   2   6
BRANCH   5  16
ATOM     16  O3* UNL     1       6.717   1.544  22.166  0.00  0.00    -0.389 OA
ATOM     17  H3* UNL     1       6.933   1.290  21.251  0.00  0.00    +0.210 HD
ENDBRANCH   5  16
BRANCH   4  18
ATOM     18  C5* UNL     1       9.799   0.706  21.795  0.00  0.00    +0.190 C 
BRANCH  18  19
ATOM     19  O5* UNL     1       9.396   2.012  21.375  0.00  0.00    -0.392 OA
ATOM     20  H5* UNL     1       8.518   1.901  20.964  0.00  0.00    +0.210 HD
ENDBRANCH  18  19
ENDBRANCH   4  18
TORSDOF 4
ENDMDL
