MODEL 1
REMARK VINA RESULT:      -6.5      0.000      0.000
REMARK  Name = 
REMARK  8 active torsions:
REMARK  status: ('A' for Active; 'I' for Inactive)
REMARK    1  A    between atoms: C_1  and  C_2
REMARK    2  A    between atoms: C_2  and  C_3
REMARK    3  A    between atoms: C_2  and  N_4
REMARK    4  A    between atoms: N_13  and  C1*_14
REMARK    5  A    between atoms: C2*_16  and  O2*_26
REMARK    6  A    between atoms: C3*_18  and  O3*_25
REMARK    7  A    between atoms: C4*_20  and  C5*_23
REMARK    8  A    between atoms: C5*_23  and  O5*_24
REMARK                            x       y       z     vdW  Elec       q    Type
REMARK                         _______ _______ _______ _____ _____    ______ ____
ROOT
ATOM      1  N   UNL     1       6.625   0.467  25.205  0.00  0.00    -0.312 N 
ATOM      2  H   UNL     1       7.432   0.268  25.813  0.00  0.00    +0.149 HD
ATOM      3  C   UNL     1       6.268  -0.683  24.574  0.00  0.00    +0.199 A 
ATOM      4  N   UNL     1       6.983  -1.180  23.506  0.00  0.00    -0.283 N 
ATOM      5  C   UNL     1       6.373  -2.372  23.126  0.00  0.00    +0.074 A 
ATOM      6  C   UNL     1       5.347  -2.544  24.047  0.00  0.00    +0.092 A 
ATOM      7  C   UNL     1       4.573  -3.715  24.013  0.00  0.00    +0.051 A 
ATOM      8  C   UNL     1       4.838  -4.675  23.026  0.00  0.00    +0.061 A 
ATOM      9 CL   UNL     1       3.883  -6.119  23.045  0.00  0.00    -0.082 Cl
ATOM     10  C   UNL     1       5.844  -4.463  22.076  0.00  0.00    +0.061 A 
ATOM     11 CL   UNL     1       6.184  -5.605  20.820  0.00  0.00    -0.082 Cl
ATOM     12  C   UNL     1       6.635  -3.306  22.112  0.00  0.00    +0.049 A 
ATOM     13  N   UNL     1       5.273  -1.474  24.895  0.00  0.00    -0.214 NA
ENDROOT
BRANCH   4  14
ATOM     14  C1* UNL     1       8.179  -0.679  22.869  0.00  0.00    +0.254 C 
ATOM     15  O4* UNL     1       9.212  -0.525  23.865  0.00  0.00    -0.346 OA
ATOM     16  C4* UNL     1      10.268   0.257  23.262  0.00  0.00    +0.177 C 
ATOM     17  C3* UNL     1       9.743   0.764  21.903  0.00  0.00    +0.178 C 
ATOM     18  C2* UNL     1       8.228   0.602  22.026  0.00  0.00    +0.195 C 
BRANCH  17  19
ATOM     19  O3* UNL     1      10.110   2.107  21.599  0.00  0.00    -0.386 OA
ATOM     20  H3* UNL     1       9.422   2.660  22.035  0.00  0.00    +0.210 HD
ENDBRANCH  17  19
BRANCH  18  21
ATOM     21  O2* UNL     1       7.768   1.812  22.639  0.00  0.00    -0.385 OA
ATOM     22  H2* UNL     1       7.338   1.526  23.476  0.00  0.00    +0.210 HD
ENDBRANCH  18  21
BRANCH  16  23
ATOM     23  C5* UNL     1      10.743   1.333  24.240  0.00  0.00    +0.190 C 
BRANCH  23  24
ATOM     24  O5* UNL     1       9.654   1.993  24.875  0.00  0.00    -0.392 OA
ATOM     25  H5* UNL     1       9.044   2.273  24.160  0.00  0.00    +0.210 HD
ENDBRANCH  23  24
ENDBRANCH  16  23
ENDBRANCH   4  14
BRANCH   1  27
ATOM     26  C   UNL     1       6.369   1.920  27.133  0.00  0.00    +0.027 C 
ATOM     27  C   UNL     1       5.615   1.156  26.037  0.00  0.00    +0.067 C 
ATOM     28  C   UNL     1       4.789   2.149  25.217  0.00  0.00    +0.027 C 
ENDBRANCH   1  27
TORSDOF 6
ENDMDL
MODEL 2
REMARK VINA RESULT:      -6.0      3.801      6.128
REMARK  Name = 
REMARK  8 active torsions:
REMARK  status: ('A' for Active; 'I' for Inactive)
REMARK    1  A    between atoms: C_1  and  C_2
REMARK    2  A    between atoms: C_2  and  C_3
REMARK    3  A    between atoms: C_2  and  N_4
REMARK    4  A    between atoms: N_13  and  C1*_14
REMARK    5  A    between atoms: C2*_16  and  O2*_26
REMARK    6  A    between atoms: C3*_18  and  O3*_25
REMARK    7  A    between atoms: C4*_20  and  C5*_23
REMARK    8  A    between atoms: C5*_23  and  O5*_24
REMARK                            x       y       z     vdW  Elec       q    Type
REMARK                         _______ _______ _______ _____ _____    ______ ____
ROOT
ATOM      1  N   UNL     1      10.758   4.877  23.371  0.00  0.00    -0.312 N 
ATOM      2  H   UNL     1      10.582   5.130  22.389  0.00  0.00    +0.149 HD
ATOM      3  C   UNL     1      10.346   3.596  23.567  0.00  0.00    +0.199 A 
ATOM      4  N   UNL     1       9.014   3.271  23.695  0.00  0.00    -0.283 N 
ATOM      5  C   UNL     1       8.944   1.889  23.848  0.00  0.00    +0.074 A 
ATOM      6  C   UNL     1      10.261   1.463  23.740  0.00  0.00    +0.092 A 
ATOM      7  C   UNL     1      10.549   0.089  23.756  0.00  0.00    +0.051 A 
ATOM      8  C   UNL     1       9.496  -0.824  23.908  0.00  0.00    +0.061 A 
ATOM      9 CL   UNL     1       9.893  -2.509  23.885  0.00  0.00    -0.082 Cl
ATOM     10  C   UNL     1       8.180  -0.374  24.064  0.00  0.00    +0.061 A 
ATOM     11 CL   UNL     1       6.853  -1.462  24.289  0.00  0.00    -0.082 Cl
ATOM     12  C   UNL     1       7.879   0.995  24.032  0.00  0.00    +0.049 A 
ATOM     13  N   UNL     1      11.108   2.530  23.615  0.00  0.00    -0.214 NA
ENDROOT
BRANCH   4  14
ATOM     14  C1* UNL     1       7.838   4.109  23.633  0.00  0.00    +0.254 C 
ATOM     15  O4* UNL     1       6.887   3.656  24.620  0.00  0.00    -0.346 OA
ATOM     16  C4* UNL     1       5.628   4.301  24.322  0.00  0.00    +0.177 C 
ATOM     17  C3* UNL     1       5.791   5.017  22.965  0.00  0.00    +0.178 C 
ATOM     18  C2* UNL     1       7.021   4.346  22.356  0.00  0.00    +0.195 C 
BRANCH  17  19
ATOM     19  O3* UNL     1       4.655   4.917  22.111  0.00  0.00    -0.386 OA
ATOM     20  H3* UNL     1       4.758   4.050  21.656  0.00  0.00    +0.210 HD
ENDBRANCH  17  19
BRANCH  18  21
ATOM     21  O2* UNL     1       6.521   3.192  21.671  0.00  0.00    -0.385 OA
ATOM     22  H2* UNL     1       5.608   3.068  22.014  0.00  0.00    +0.210 HD
ENDBRANCH  18  21
BRANCH  16  23
ATOM     23  C5* UNL     1       4.488   3.285  24.409  0.00  0.00    +0.190 C 
BRANCH  23  24
ATOM     24  O5* UNL     1       4.635   2.237  23.458  0.00  0.00    -0.392 OA
ATOM     25  H5* UNL     1       4.230   2.559  22.625  0.00  0.00    +0.210 HD
ENDBRANCH  23  24
ENDBRANCH  16  23
ENDBRANCH   4  14
BRANCH   1  27
ATOM     26  C   UNL     1      12.850   5.522  22.319  0.00  0.00    +0.027 C 
ATOM     27  C   UNL     1      12.169   5.215  23.659  0.00  0.00    +0.067 C 
ATOM     28  C   UNL     1      12.282   6.443  24.566  0.00  0.00    +0.027 C 
ENDBRANCH   1  27
TORSDOF 6
ENDMDL
MODEL 3
REMARK VINA RESULT:      -5.9      4.608      6.474
REMARK  Name = 
REMARK  8 active torsions:
REMARK  status: ('A' for Active; 'I' for Inactive)
REMARK    1  A    between atoms: C_1  and  C_2
REMARK    2  A    between atoms: C_2  and  C_3
REMARK    3  A    between atoms: C_2  and  N_4
REMARK    4  A    between atoms: N_13  and  C1*_14
REMARK    5  A    between atoms: C2*_16  and  O2*_26
REMARK    6  A    between atoms: C3*_18  and  O3*_25
REMARK    7  A    between atoms: C4*_20  and  C5*_23
REMARK    8  A    between atoms: C5*_23  and  O5*_24
REMARK                            x       y       z     vdW  Elec       q    Type
REMARK                         _______ _______ _______ _____ _____    ______ ____
ROOT
ATOM      1  N   UNL     1       9.580   4.467  23.616  0.00  0.00    -0.312 N 
ATOM      2  H   UNL     1       9.680   4.061  24.557  0.00  0.00    +0.149 HD
ATOM      3  C   UNL     1       8.255   4.573  23.330  0.00  0.00    +0.199 A 
ATOM      4  N   UNL     1       7.499   3.480  22.967  0.00  0.00    -0.283 N 
ATOM      5  C   UNL     1       6.194   3.930  22.782  0.00  0.00    +0.074 A 
ATOM      6  C   UNL     1       6.244   5.278  23.111  0.00  0.00    +0.092 A 
ATOM      7  C   UNL     1       5.061   6.033  23.123  0.00  0.00    +0.051 A 
ATOM      8  C   UNL     1       3.854   5.410  22.775  0.00  0.00    +0.061 A 
ATOM      9 CL   UNL     1       2.415   6.370  22.840  0.00  0.00    -0.082 Cl
ATOM     10  C   UNL     1       3.830   4.062  22.400  0.00  0.00    +0.061 A 
ATOM     11 CL   UNL     1       2.370   3.260  21.929  0.00  0.00    -0.082 Cl
ATOM     12  C   UNL     1       5.004   3.294  22.401  0.00  0.00    +0.049 A 
ATOM     13  N   UNL     1       7.525   5.660  23.398  0.00  0.00    -0.214 NA
ENDROOT
BRANCH   4  14
ATOM     14  C1* UNL     1       7.870   2.090  22.836  0.00  0.00    +0.254 C 
ATOM     15  O4* UNL     1       8.513   1.659  24.054  0.00  0.00    -0.346 OA
ATOM     16  C4* UNL     1       9.138   0.386  23.775  0.00  0.00    +0.177 C 
ATOM     17  C3* UNL     1       9.030   0.146  22.255  0.00  0.00    +0.178 C 
ATOM     18  C2* UNL     1       8.738   1.538  21.697  0.00  0.00    +0.195 C 
BRANCH  17  19
ATOM     19  O3* UNL     1      10.196  -0.427  21.669  0.00  0.00    -0.386 OA
ATOM     20  H3* UNL     1      10.096  -1.396  21.807  0.00  0.00    +0.210 HD
ENDBRANCH  17  19
BRANCH  18  21
ATOM     21  O2* UNL     1      10.022   2.141  21.496  0.00  0.00    -0.385 OA
ATOM     22  H2* UNL     1       9.866   2.863  20.847  0.00  0.00    +0.210 HD
ENDBRANCH  18  21
BRANCH  16  23
ATOM     23  C5* UNL     1      10.552   0.360  24.357  0.00  0.00    +0.190 C 
BRANCH  23  24
ATOM     24  O5* UNL     1      11.250   1.576  24.113  0.00  0.00    -0.392 OA
ATOM     25  H5* UNL     1      12.163   1.326  23.856  0.00  0.00    +0.210 HD
ENDBRANCH  23  24
ENDBRANCH  16  23
ENDBRANCH   4  14
BRANCH   1  27
ATOM     26  C   UNL     1      10.286   6.364  24.957  0.00  0.00    +0.027 C 
ATOM     27  C   UNL     1      10.407   5.693  23.583  0.00  0.00    +0.067 C 
ATOM     28  C   UNL     1      11.879   5.376  23.314  0.00  0.00    +0.027 C 
ENDBRANCH   1  27
TORSDOF 6
ENDMDL
MODEL 4
REMARK VINA RESULT:      -5.9      4.257      6.554
REMARK  Name = 
REMARK  8 active torsions:
REMARK  status: ('A' for Active; 'I' for Inactive)
REMARK    1  A    between atoms: C_1  and  C_2
REMARK    2  A    between atoms: C_2  and  C_3
REMARK    3  A    between atoms: C_2  and  N_4
REMARK    4  A    between atoms: N_13  and  C1*_14
REMARK    5  A    between atoms: C2*_16  and  O2*_26
REMARK    6  A    between atoms: C3*_18  and  O3*_25
REMARK    7  A    between atoms: C4*_20  and  C5*_23
REMARK    8  A    between atoms: C5*_23  and  O5*_24
REMARK                            x       y       z     vdW  Elec       q    Type
REMARK                         _______ _______ _______ _____ _____    ______ ____
ROOT
ATOM      1  N   UNL     1       7.519  -3.997  25.586  0.00  0.00    -0.312 N 
ATOM      2  H   UNL     1       6.527  -4.029  25.860  0.00  0.00    +0.149 HD
ATOM      3  C   UNL     1       7.793  -2.754  25.108  0.00  0.00    +0.199 A 
ATOM      4  N   UNL     1       7.404  -2.355  23.848  0.00  0.00    -0.283 N 
ATOM      5  C   UNL     1       7.809  -1.032  23.695  0.00  0.00    +0.074 A 
ATOM      6  C   UNL     1       8.373  -0.700  24.920  0.00  0.00    +0.092 A 
ATOM      7  C   UNL     1       8.809   0.614  25.149  0.00  0.00    +0.051 A 
ATOM      8  C   UNL     1       8.690   1.559  24.120  0.00  0.00    +0.061 A 
ATOM      9 CL   UNL     1       9.207   3.176  24.459  0.00  0.00    -0.082 Cl
ATOM     10  C   UNL     1       8.164   1.194  22.875  0.00  0.00    +0.061 A 
ATOM     11 CL   UNL     1       8.029   2.316  21.565  0.00  0.00    -0.082 Cl
ATOM     12  C   UNL     1       7.708  -0.112  22.641  0.00  0.00    +0.049 A 
ATOM     13  N   UNL     1       8.394  -1.784  25.754  0.00  0.00    -0.214 NA
ENDROOT
BRANCH   4  14
ATOM     14  C1* UNL     1       6.664  -3.066  22.831  0.00  0.00    +0.254 C 
ATOM     15  O4* UNL     1       5.376  -3.442  23.364  0.00  0.00    -0.346 OA
ATOM     16  C4* UNL     1       4.802  -4.401  22.448  0.00  0.00    +0.177 C 
ATOM     17  C3* UNL     1       5.895  -4.765  21.422  0.00  0.00    +0.178 C 
ATOM     18  C2* UNL     1       7.186  -4.313  22.105  0.00  0.00    +0.195 C 
BRANCH  17  19
ATOM     19  O3* UNL     1       5.935  -6.147  21.076  0.00  0.00    -0.386 OA
ATOM     20  H3* UNL     1       5.518  -6.194  20.185  0.00  0.00    +0.210 HD
ENDBRANCH  17  19
BRANCH  18  21
ATOM     21  O2* UNL     1       7.594  -5.423  22.913  0.00  0.00    -0.385 OA
ATOM     22  H2* UNL     1       6.832  -5.597  23.510  0.00  0.00    +0.210 HD
ENDBRANCH  18  21
BRANCH  16  23
ATOM     23  C5* UNL     1       4.200  -5.571  23.228  0.00  0.00    +0.190 C 
BRANCH  23  24
ATOM     24  O5* UNL     1       5.173  -6.234  24.027  0.00  0.00    -0.392 OA
ATOM     25  H5* UNL     1       5.111  -5.841  24.924  0.00  0.00    +0.210 HD
ENDBRANCH  23  24
ENDBRANCH  16  23
ENDBRANCH   4  14
BRANCH   1  27
ATOM     26  C   UNL     1       7.473  -5.596  27.413  0.00  0.00    +0.027 C 
ATOM     27  C   UNL     1       8.303  -4.498  26.735  0.00  0.00    +0.067 C 
ATOM     28  C   UNL     1       9.642  -5.092  26.290  0.00  0.00    +0.027 C 
ENDBRANCH   1  27
TORSDOF 6
ENDMDL
MODEL 5
REMARK VINA RESULT:      -5.7      2.683      2.836
REMARK  Name = 
REMARK  8 active torsions:
REMARK  status: ('A' for Active; 'I' for Inactive)
REMARK    1  A    between atoms: C_1  and  C_2
REMARK    2  A    between atoms: C_2  and  C_3
REMARK    3  A    between atoms: C_2  and  N_4
REMARK    4  A    between atoms: N_13  and  C1*_14
REMARK    5  A    between atoms: C2*_16  and  O2*_26
REMARK    6  A    between atoms: C3*_18  and  O3*_25
REMARK    7  A    between atoms: C4*_20  and  C5*_23
REMARK    8  A    between atoms: C5*_23  and  O5*_24
REMARK                            x       y       z     vdW  Elec       q    Type
REMARK                         _______ _______ _______ _____ _____    ______ ____
ROOT
ATOM      1  N   UNL     1       6.346   1.419  25.162  0.00  0.00    -0.312 N 
ATOM      2  H   UNL     1       6.899   2.012  25.795  0.00  0.00    +0.149 HD
ATOM      3  C   UNL     1       6.684   0.121  25.381  0.00  0.00    +0.199 A 
ATOM      4  N   UNL     1       7.858  -0.417  24.901  0.00  0.00    -0.283 N 
ATOM      5  C   UNL     1       7.906  -1.741  25.330  0.00  0.00    +0.074 A 
ATOM      6  C   UNL     1       6.763  -1.894  26.104  0.00  0.00    +0.092 A 
ATOM      7  C   UNL     1       6.540  -3.104  26.780  0.00  0.00    +0.051 A 
ATOM      8  C   UNL     1       7.469  -4.144  26.634  0.00  0.00    +0.061 A 
ATOM      9 CL   UNL     1       7.173  -5.605  27.514  0.00  0.00    -0.082 Cl
ATOM     10  C   UNL     1       8.591  -3.988  25.811  0.00  0.00    +0.061 A 
ATOM     11 CL   UNL     1       9.746  -5.256  25.574  0.00  0.00    -0.082 Cl
ATOM     12  C   UNL     1       8.832  -2.778  25.146  0.00  0.00    +0.049 A 
ATOM     13  N   UNL     1       6.006  -0.755  26.083  0.00  0.00    -0.214 NA
ENDROOT
BRANCH   4  14
ATOM     14  C1* UNL     1       8.927   0.197  24.148  0.00  0.00    +0.254 C 
ATOM     15  O4* UNL     1       9.319   1.423  24.802  0.00  0.00    -0.346 OA
ATOM     16  C4* UNL     1      10.152   2.151  23.872  0.00  0.00    +0.177 C 
ATOM     17  C3* UNL     1      10.084   1.411  22.520  0.00  0.00    +0.178 C 
ATOM     18  C2* UNL     1       8.835   0.540  22.655  0.00  0.00    +0.195 C 
BRANCH  17  19
ATOM     19  O3* UNL     1      10.012   2.270  21.385  0.00  0.00    -0.386 OA
ATOM     20  H3* UNL     1      10.919   2.642  21.294  0.00  0.00    +0.210 HD
ENDBRANCH  17  19
BRANCH  18  21
ATOM     21  O2* UNL     1       7.748   1.374  22.237  0.00  0.00    -0.385 OA
ATOM     22  H2* UNL     1       7.230   1.546  23.054  0.00  0.00    +0.210 HD
ENDBRANCH  18  21
BRANCH  16  23
ATOM     23  C5* UNL     1       9.742   3.625  23.849  0.00  0.00    +0.190 C 
BRANCH  23  24
ATOM     24  O5* UNL     1      10.743   4.446  23.261  0.00  0.00    -0.392 OA
ATOM     25  H5* UNL     1      11.535   3.879  23.143  0.00  0.00    +0.210 HD
ENDBRANCH  23  24
ENDBRANCH  16  23
ENDBRANCH   4  14
BRANCH   1  27
ATOM     26  C   UNL     1       4.819   2.593  26.641  0.00  0.00    +0.027 C 
ATOM     27  C   UNL     1       4.930   1.815  25.324  0.00  0.00    +0.067 C 
ATOM     28  C   UNL     1       4.457   2.711  24.177  0.00  0.00    +0.027 C 
ENDBRANCH   1  27
TORSDOF 6
ENDMDL
MODEL 6
REMARK VINA RESULT:      -5.7      4.298      6.458
REMARK  Name = 
REMARK  8 active torsions:
REMARK  status: ('A' for Active; 'I' for Inactive)
REMARK    1  A    between atoms: C_1  and  C_2
REMARK    2  A    between atoms: C_2  and  C_3
REMARK    3  A    between atoms: C_2  and  N_4
REMARK    4  A    between atoms: N_13  and  C1*_14
REMARK    5  A    between atoms: C2*_16  and  O2*_26
REMARK    6  A    between atoms: C3*_18  and  O3*_25
REMARK    7  A    between atoms: C4*_20  and  C5*_23
REMARK    8  A    between atoms: C5*_23  and  O5*_24
REMARK                            x       y       z     vdW  Elec       q    Type
REMARK                         _______ _______ _______ _____ _____    ______ ____
ROOT
ATOM      1  N   UNL     1       6.581   0.170  25.406  0.00  0.00    -0.312 N 
ATOM      2  H   UNL     1       6.074  -0.077  24.545  0.00  0.00    +0.149 HD
ATOM      3  C   UNL     1       7.420   1.204  25.131  0.00  0.00    +0.199 A 
ATOM      4  N   UNL     1       8.606   1.019  24.454  0.00  0.00    -0.283 N 
ATOM      5  C   UNL     1       9.195   2.272  24.312  0.00  0.00    +0.074 A 
ATOM      6  C   UNL     1       8.277   3.150  24.873  0.00  0.00    +0.092 A 
ATOM      7  C   UNL     1       8.515   4.533  24.816  0.00  0.00    +0.051 A 
ATOM      8  C   UNL     1       9.695   4.994  24.215  0.00  0.00    +0.061 A 
ATOM      9 CL   UNL     1       9.929   6.707  24.134  0.00  0.00    -0.082 Cl
ATOM     10  C   UNL     1      10.632   4.092  23.698  0.00  0.00    +0.061 A 
ATOM     11 CL   UNL     1      12.117   4.614  22.978  0.00  0.00    -0.082 Cl
ATOM     12  C   UNL     1      10.396   2.710  23.734  0.00  0.00    +0.049 A 
ATOM     13  N   UNL     1       7.219   2.469  25.410  0.00  0.00    -0.214 NA
ENDROOT
BRANCH   4  14
ATOM     14  C1* UNL     1       9.187  -0.183  23.900  0.00  0.00    +0.254 C 
ATOM     15  O4* UNL     1       8.241  -0.787  22.993  0.00  0.00    -0.346 OA
ATOM     16  C4* UNL     1       8.720  -2.120  22.707  0.00  0.00    +0.177 C 
ATOM     17  C3* UNL     1       9.907  -2.392  23.654  0.00  0.00    +0.178 C 
ATOM     18  C2* UNL     1       9.738  -1.338  24.747  0.00  0.00    +0.195 C 
BRANCH  17  19
ATOM     19  O3* UNL     1       9.937  -3.712  24.191  0.00  0.00    -0.386 OA
ATOM     20  H3* UNL     1      10.858  -4.024  24.040  0.00  0.00    +0.210 HD
ENDBRANCH  17  19
BRANCH  18  21
ATOM     21  O2* UNL     1       8.854  -1.929  25.707  0.00  0.00    -0.385 OA
ATOM     22  H2* UNL     1       9.442  -2.282  26.412  0.00  0.00    +0.210 HD
ENDBRANCH  18  21
BRANCH  16  23
ATOM     23  C5* UNL     1       7.563  -3.118  22.782  0.00  0.00    +0.190 C 
BRANCH  23  24
ATOM     24  O5* UNL     1       6.779  -2.936  23.955  0.00  0.00    -0.392 OA
ATOM     25  H5* UNL     1       7.389  -3.043  24.716  0.00  0.00    +0.210 HD
ENDBRANCH  23  24
ENDBRANCH  16  23
ENDBRANCH   4  14
BRANCH   1  27
ATOM     26  C   UNL     1       4.578  -0.816  26.361  0.00  0.00    +0.027 C 
ATOM     27  C   UNL     1       5.569   0.350  26.470  0.00  0.00    +0.067 C 
ATOM     28  C   UNL     1       6.203   0.335  27.863  0.00  0.00    +0.027 C 
ENDBRANCH   1  27
TORSDOF 6
ENDMDL
MODEL 7
REMARK VINA RESULT:      -5.7      1.970      4.272
REMARK  Name = 
REMARK  8 active torsions:
REMARK  status: ('A' for Active; 'I' for Inactive)
REMARK    1  A    between atoms: C_1  and  C_2
REMARK    2  A    between atoms: C_2  and  C_3
REMARK    3  A    between atoms: C_2  and  N_4
REMARK    4  A    between atoms: N_13  and  C1*_14
REMARK    5  A    between atoms: C2*_16  and  O2*_26
REMARK    6  A    between atoms: C3*_18  and  O3*_25
REMARK    7  A    between atoms: C4*_20  and  C5*_23
REMARK    8  A    between atoms: C5*_23  and  O5*_24
REMARK                            x       y       z     vdW  Elec       q    Type
REMARK                         _______ _______ _______ _____ _____    ______ ____
ROOT
ATOM      1  N   UNL     1       8.950   0.172  23.763  0.00  0.00    -0.312 N 
ATOM      2  H   UNL     1       8.254   0.862  23.449  0.00  0.00    +0.149 HD
ATOM      3  C   UNL     1       8.399  -1.068  23.676  0.00  0.00    +0.199 A 
ATOM      4  N   UNL     1       7.490  -1.527  24.603  0.00  0.00    -0.283 N 
ATOM      5  C   UNL     1       7.106  -2.804  24.201  0.00  0.00    +0.074 A 
ATOM      6  C   UNL     1       7.781  -3.005  23.003  0.00  0.00    +0.092 A 
ATOM      7  C   UNL     1       7.547  -4.176  22.265  0.00  0.00    +0.051 A 
ATOM      8  C   UNL     1       6.654  -5.131  22.770  0.00  0.00    +0.061 A 
ATOM      9 CL   UNL     1       6.369  -6.542  21.809  0.00  0.00    -0.082 Cl
ATOM     10  C   UNL     1       6.020  -4.933  24.002  0.00  0.00    +0.061 A 
ATOM     11 CL   UNL     1       4.936  -6.099  24.682  0.00  0.00    -0.082 Cl
ATOM     12  C   UNL     1       6.232  -3.759  24.740  0.00  0.00    +0.049 A 
ATOM     13  N   UNL     1       8.602  -1.948  22.726  0.00  0.00    -0.214 NA
ENDROOT
BRANCH   4  14
ATOM     14  C1* UNL     1       6.927  -0.874  25.763  0.00  0.00    +0.254 C 
ATOM     15  O4* UNL     1       6.471   0.442  25.385  0.00  0.00    -0.346 OA
ATOM     16  C4* UNL     1       6.210   1.167  26.608  0.00  0.00    +0.177 C 
ATOM     17  C3* UNL     1       6.732   0.302  27.773  0.00  0.00    +0.178 C 
ATOM     18  C2* UNL     1       7.679  -0.683  27.087  0.00  0.00    +0.195 C 
BRANCH  17  19
ATOM     19  O3* UNL     1       7.388   1.039  28.801  0.00  0.00    -0.386 OA
ATOM     20  H3* UNL     1       7.563   1.923  28.404  0.00  0.00    +0.210 HD
ENDBRANCH  17  19
BRANCH  18  21
ATOM     21  O2* UNL     1       8.945  -0.014  27.034  0.00  0.00    -0.385 OA
ATOM     22  H2* UNL     1       8.828   0.796  27.580  0.00  0.00    +0.210 HD
ENDBRANCH  18  21
BRANCH  16  23
ATOM     23  C5* UNL     1       6.790   2.579  26.511  0.00  0.00    +0.190 C 
BRANCH  23  24
ATOM     24  O5* UNL     1       8.099   2.579  25.954  0.00  0.00    -0.392 OA
ATOM     25  H5* UNL     1       8.723   2.563  26.711  0.00  0.00    +0.210 HD
ENDBRANCH  23  24
ENDBRANCH  16  23
ENDBRANCH   4  14
BRANCH   1  27
ATOM     26  C   UNL     1       9.852   1.438  21.897  0.00  0.00    +0.027 C 
ATOM     27  C   UNL     1      10.196   0.443  23.013  0.00  0.00    +0.067 C 
ATOM     28  C   UNL     1      11.275   1.055  23.909  0.00  0.00    +0.027 C 
ENDBRANCH   1  27
TORSDOF 6
ENDMDL
MODEL 8
REMARK VINA RESULT:      -5.6      4.869      7.360
REMARK  Name = 
REMARK  8 active torsions:
REMARK  status: ('A' for Active; 'I' for Inactive)
REMARK    1  A    between atoms: C_1  and  C_2
REMARK    2  A    between atoms: C_2  and  C_3
REMARK    3  A    between atoms: C_2  and  N_4
REMARK    4  A    between atoms: N_13  and  C1*_14
REMARK    5  A    between atoms: C2*_16  and  O2*_26
REMARK    6  A    between atoms: C3*_18  and  O3*_25
REMARK    7  A    between atoms: C4*_20  and  C5*_23
REMARK    8  A    between atoms: C5*_23  and  O5*_24
REMARK                            x       y       z     vdW  Elec       q    Type
REMARK                         _______ _______ _______ _____ _____    ______ ____
ROOT
ATOM      1  N   UNL     1       8.824  -0.661  24.478  0.00  0.00    -0.312 N 
ATOM      2  H   UNL     1       9.032  -0.907  25.455  0.00  0.00    +0.149 HD
ATOM      3  C   UNL     1       9.215   0.623  24.263  0.00  0.00    +0.199 A 
ATOM      4  N   UNL     1       8.477   1.694  24.716  0.00  0.00    -0.283 N 
ATOM      5  C   UNL     1       9.170   2.848  24.360  0.00  0.00    +0.074 A 
ATOM      6  C   UNL     1      10.330   2.380  23.756  0.00  0.00    +0.092 A 
ATOM      7  C   UNL     1      11.318   3.292  23.352  0.00  0.00    +0.051 A 
ATOM      8  C   UNL     1      11.096   4.663  23.544  0.00  0.00    +0.061 A 
ATOM      9 CL   UNL     1      12.356   5.749  23.064  0.00  0.00    -0.082 Cl
ATOM     10  C   UNL     1       9.900   5.119  24.110  0.00  0.00    +0.061 A 
ATOM     11 CL   UNL     1       9.567   6.803  24.335  0.00  0.00    -0.082 Cl
ATOM     12  C   UNL     1       8.914   4.216  24.533  0.00  0.00    +0.049 A 
ATOM     13  N   UNL     1      10.314   1.016  23.666  0.00  0.00    -0.214 NA
ENDROOT
BRANCH   4  14
ATOM     14  C1* UNL     1       7.248   1.727  25.476  0.00  0.00    +0.254 C 
ATOM     15  O4* UNL     1       7.377   0.851  26.616  0.00  0.00    -0.346 OA
ATOM     16  C4* UNL     1       6.052   0.671  27.163  0.00  0.00    +0.177 C 
ATOM     17  C3* UNL     1       5.057   1.313  26.175  0.00  0.00    +0.178 C 
ATOM     18  C2* UNL     1       5.865   1.427  24.882  0.00  0.00    +0.195 C 
BRANCH  17  19
ATOM     19  O3* UNL     1       3.857   0.567  25.985  0.00  0.00    -0.386 OA
ATOM     20  H3* UNL     1       3.816  -0.043  26.757  0.00  0.00    +0.210 HD
ENDBRANCH  17  19
BRANCH  18  21
ATOM     21  O2* UNL     1       5.693   0.170  24.218  0.00  0.00    -0.385 OA
ATOM     22  H2* UNL     1       6.272  -0.458  24.706  0.00  0.00    +0.210 HD
ENDBRANCH  18  21
BRANCH  16  23
ATOM     23  C5* UNL     1       5.817  -0.806  27.484  0.00  0.00    +0.190 C 
BRANCH  23  24
ATOM     24  O5* UNL     1       6.227  -1.654  26.418  0.00  0.00    -0.392 OA
ATOM     25  H5* UNL     1       6.826  -1.121  25.854  0.00  0.00    +0.210 HD
ENDBRANCH  23  24
ENDBRANCH  16  23
ENDBRANCH   4  14
BRANCH   1  27
ATOM     26  C   UNL     1       9.343  -3.033  24.430  0.00  0.00    +0.027 C 
ATOM     27  C   UNL     1       9.405  -1.725  23.630  0.00  0.00    +0.067 C 
ATOM     28  C   UNL     1       8.622  -1.902  22.327  0.00  0.00    +0.027 C 
ENDBRANCH   1  27
TORSDOF 6
ENDMDL
MODEL 9
REMARK VINA RESULT:      -5.6      4.228      6.929
REMARK  Name = 
REMARK  8 active torsions:
REMARK  status: ('A' for Active; 'I' for Inactive)
REMARK    1  A    between atoms: C_1  and  C_2
REMARK    2  A    between atoms: C_2  and  C_3
REMARK    3  A    between atoms: C_2  and  N_4
REMARK    4  A    between atoms: N_13  and  C1*_14
REMARK    5  A    between atoms: C2*_16  and  O2*_26
REMARK    6  A    between atoms: C3*_18  and  O3*_25
REMARK    7  A    between atoms: C4*_20  and  C5*_23
REMARK    8  A    between atoms: C5*_23  and  O5*_24
REMARK                            x       y       z     vdW  Elec       q    Type
REMARK                         _______ _______ _______ _____ _____    ______ ____
ROOT
ATOM      1  N   UNL     1       6.589  -4.525  23.454  0.00  0.00    -0.312 N 
ATOM      2  H   UNL     1       7.256  -5.116  23.969  0.00  0.00    +0.149 HD
ATOM      3  C   UNL     1       7.088  -3.262  23.395  0.00  0.00    +0.199 A 
ATOM      4  N   UNL     1       7.046  -2.411  24.477  0.00  0.00    -0.283 N 
ATOM      5  C   UNL     1       7.665  -1.226  24.089  0.00  0.00    +0.074 A 
ATOM      6  C   UNL     1       8.099  -1.472  22.793  0.00  0.00    +0.092 A 
ATOM      7  C   UNL     1       8.859  -0.502  22.120  0.00  0.00    +0.051 A 
ATOM      8  C   UNL     1       9.139   0.710  22.767  0.00  0.00    +0.061 A 
ATOM      9 CL   UNL     1      10.110   1.861  21.914  0.00  0.00    -0.082 Cl
ATOM     10  C   UNL     1       8.653   0.959  24.056  0.00  0.00    +0.061 A 
ATOM     11 CL   UNL     1       8.946   2.453  24.880  0.00  0.00    -0.082 Cl
ATOM     12  C   UNL     1       7.908  -0.009  24.744  0.00  0.00    +0.049 A 
ATOM     13  N   UNL     1       7.694  -2.708  22.372  0.00  0.00    -0.214 NA
ENDROOT
BRANCH   4  14
ATOM     14  C1* UNL     1       6.541  -2.625  25.814  0.00  0.00    +0.254 C 
ATOM     15  O4* UNL     1       7.149  -3.814  26.361  0.00  0.00    -0.346 OA
ATOM     16  C4* UNL     1       6.401  -4.164  27.547  0.00  0.00    +0.177 C 
ATOM     17  C3* UNL     1       5.160  -3.249  27.594  0.00  0.00    +0.178 C 
ATOM     18  C2* UNL     1       5.050  -2.730  26.160  0.00  0.00    +0.195 C 
BRANCH  17  19
ATOM     19  O3* UNL     1       3.966  -3.903  28.014  0.00  0.00    -0.386 OA
ATOM     20  H3* UNL     1       3.850  -3.634  28.954  0.00  0.00    +0.210 HD
ENDBRANCH  17  19
BRANCH  18  21
ATOM     21  O2* UNL     1       4.280  -3.715  25.461  0.00  0.00    -0.385 OA
ATOM     22  H2* UNL     1       3.347  -3.416  25.544  0.00  0.00    +0.210 HD
ENDBRANCH  18  21
BRANCH  16  23
ATOM     23  C5* UNL     1       6.124  -5.669  27.564  0.00  0.00    +0.190 C 
BRANCH  23  24
ATOM     24  O5* UNL     1       6.008  -6.203  26.251  0.00  0.00    -0.392 OA
ATOM     25  H5* UNL     1       6.714  -5.780  25.716  0.00  0.00    +0.210 HD
ENDBRANCH  23  24
ENDBRANCH  16  23
ENDBRANCH   4  14
BRANCH   1  27
ATOM     26  C   UNL     1       7.403  -6.243  21.942  0.00  0.00    +0.027 C 
ATOM     27  C   UNL     1       6.284  -5.222  22.185  0.00  0.00    +0.067 C 
ATOM     28  C   UNL     1       4.945  -5.959  22.252  0.00  0.00    +0.027 C 
ENDBRANCH   1  27
TORSDOF 6
ENDMDL
