MODEL 1
REMARK VINA RESULT:      -6.8      0.000      0.000
REMARK  Name = 
REMARK  16 active torsions:
REMARK  status: ('A' for Active; 'I' for Inactive)
REMARK    1  A    between atoms: C_1  and  C_2
REMARK    2  A    between atoms: C_2  and  C_4
REMARK    3  A    between atoms: C_2  and  N_10
REMARK    4  A    between atoms: C_4  and  O_6
REMARK    5  A    between atoms: O_6  and  C_7
REMARK    6  A    between atoms: C_7  and  C_8
REMARK    7  A    between atoms: C_7  and  C_9
REMARK    8  A    between atoms: N_10  and  P_11
REMARK    9  A    between atoms: P_11  and  O_13
REMARK   10  A    between atoms: P_11  and  O_33
REMARK   11  A    between atoms: O_13  and  C_14
REMARK   12  A    between atoms: C_14  and  C_15
REMARK   13  A    between atoms: C_16  and  O_32
REMARK   14  A    between atoms: C_18  and  C_30
REMARK   15  A    between atoms: C_19  and  N_22
REMARK   16  A    between atoms: O_33  and  C_34
REMARK                            x       y       z     vdW  Elec       q    Type
REMARK                         _______ _______ _______ _____ _____    ______ ____
ROOT
ATOM      1  O   UNL     1      10.505   0.237  22.947  0.00  0.00    -0.284 OA
ENDROOT
BRANCH   1   2
ATOM      2  P   UNL     1       9.399   1.343  22.384  0.00  0.00    +0.462 P 
ATOM      3  O   UNL     1       9.275   0.540  21.066  0.00  0.00    -0.228 OA
BRANCH   2   4
ATOM      4  N   UNL     1       7.888   0.806  22.928  0.00  0.00    -0.199 NA
ATOM      5  H   UNL     1       7.426   0.470  22.082  0.00  0.00    +0.135 HD
BRANCH   4   7
ATOM      6  C   UNL     1       6.053   2.517  22.521  0.00  0.00    +0.036 C 
ATOM      7  C   UNL     1       6.977   1.823  23.525  0.00  0.00    +0.171 C 
BRANCH   7   8
ATOM      8  C   UNL     1       6.136   1.261  24.692  0.00  0.00    +0.325 C 
ATOM      9  O   UNL     1       4.918   1.142  24.666  0.00  0.00    -0.249 OA
BRANCH   8  10
ATOM     10  O   UNL     1       6.939   1.014  25.761  0.00  0.00    -0.461 OA
BRANCH  10  11
ATOM     11  C   UNL     1       6.550   1.608  27.016  0.00  0.00    +0.170 C 
ATOM     12  C   UNL     1       7.127   3.024  27.034  0.00  0.00    +0.052 C 
ATOM     13  C   UNL     1       7.121   0.852  28.198  0.00  0.00    +0.052 C 
ENDBRANCH  10  11
ENDBRANCH   8  10
ENDBRANCH   7   8
ENDBRANCH   4   7
ENDBRANCH   2   4
BRANCH   2  14
ATOM     14  O   UNL     1       9.538   2.240  23.856  0.00  0.00    -0.413 OA
BRANCH  14  15
ATOM     15  C   UNL     1      10.181   3.458  23.744  0.00  0.00    +0.131 A 
ATOM     16  C   UNL     1       9.441   4.595  24.057  0.00  0.00    +0.046 A 
ATOM     17  C   UNL     1      10.047   5.855  24.025  0.00  0.00    +0.004 A 
ATOM     18  C   UNL     1      11.393   5.980  23.677  0.00  0.00    +0.000 A 
ATOM     19  C   UNL     1      12.122   4.852  23.317  0.00  0.00    +0.004 A 
ATOM     20  C   UNL     1      11.517   3.594  23.340  0.00  0.00    +0.046 A 
ENDBRANCH  14  15
ENDBRANCH   2  14
ENDBRANCH   1   2
BRANCH   1  21
ATOM     21  C   UNL     1      10.302  -1.122  22.500  0.00  0.00    +0.206 C 
BRANCH  21  22
ATOM     22  C   UNL     1       9.492  -2.137  23.388  0.00  0.00    +0.179 C 
ATOM     23  O   UNL     1       8.174  -2.423  22.855  0.00  0.00    -0.345 OA
ATOM     24  C   UNL     1       7.219  -2.469  23.960  0.00  0.00    +0.263 C 
ATOM     25  C   UNL     1       8.026  -2.589  25.257  0.00  0.00    +0.182 C 
ATOM     26  C   UNL     1       8.217  -4.040  25.669  0.00  0.00    +0.055 C 
ATOM     27  F   UNL     1       7.423  -1.947  26.292  0.00  0.00    -0.235 F 
ATOM     28  C   UNL     1       9.359  -1.898  24.903  0.00  0.00    +0.187 C 
BRANCH  24  29
ATOM     29  N   UNL     1       6.176  -3.475  23.690  0.00  0.00    -0.271 N 
ATOM     30  C   UNL     1       4.875  -3.241  24.145  0.00  0.00    +0.331 A 
ATOM     31  O   UNL     1       4.552  -2.407  24.983  0.00  0.00    -0.246 OA
ATOM     32  N   UNL     1       3.909  -4.058  23.612  0.00  0.00    -0.275 N 
ATOM     33  H   UNL     1       2.961  -3.888  23.921  0.00  0.00    +0.173 HD
ATOM     34  C   UNL     1       4.146  -5.241  22.989  0.00  0.00    +0.254 A 
ATOM     35  O   UNL     1       3.272  -6.060  22.759  0.00  0.00    -0.268 OA
ATOM     36  C   UNL     1       5.546  -5.496  22.631  0.00  0.00    +0.088 A 
ATOM     37  C   UNL     1       6.473  -4.603  22.956  0.00  0.00    +0.098 A 
ENDBRANCH  24  29
BRANCH  28  38
ATOM     38  O   UNL     1       9.379  -0.531  25.310  0.00  0.00    -0.386 OA
ATOM     39  H   UNL     1       9.331   0.039  24.523  0.00  0.00    +0.210 HD
ENDBRANCH  28  38
ENDBRANCH  21  22
ENDBRANCH   1  21
TORSDOF 12
ENDMDL
MODEL 2
REMARK VINA RESULT:      -6.8      2.709      7.701
REMARK  Name = 
REMARK  16 active torsions:
REMARK  status: ('A' for Active; 'I' for Inactive)
REMARK    1  A    between atoms: C_1  and  C_2
REMARK    2  A    between atoms: C_2  and  C_4
REMARK    3  A    between atoms: C_2  and  N_10
REMARK    4  A    between atoms: C_4  and  O_6
REMARK    5  A    between atoms: O_6  and  C_7
REMARK    6  A    between atoms: C_7  and  C_8
REMARK    7  A    between atoms: C_7  and  C_9
REMARK    8  A    between atoms: N_10  and  P_11
REMARK    9  A    between atoms: P_11  and  O_13
REMARK   10  A    between atoms: P_11  and  O_33
REMARK   11  A    between atoms: O_13  and  C_14
REMARK   12  A    between atoms: C_14  and  C_15
REMARK   13  A    between atoms: C_16  and  O_32
REMARK   14  A    between atoms: C_18  and  C_30
REMARK   15  A    between atoms: C_19  and  N_22
REMARK   16  A    between atoms: O_33  and  C_34
REMARK                            x       y       z     vdW  Elec       q    Type
REMARK                         _______ _______ _______ _____ _____    ______ ____
ROOT
ATOM      1  O   UNL     1       8.754  -2.828  26.339  0.00  0.00    -0.284 OA
ENDROOT
BRANCH   1   2
ATOM      2  P   UNL     1       7.539  -3.912  26.008  0.00  0.00    +0.462 P 
ATOM      3  O   UNL     1       7.897  -4.697  27.293  0.00  0.00    -0.228 OA
BRANCH   2   4
ATOM      4  N   UNL     1       6.139  -3.271  26.712  0.00  0.00    -0.199 NA
ATOM      5  H   UNL     1       6.400  -3.122  27.688  0.00  0.00    +0.135 HD
BRANCH   4   7
ATOM      6  C   UNL     1       4.209  -4.196  28.080  0.00  0.00    +0.036 C 
ATOM      7  C   UNL     1       4.926  -4.136  26.730  0.00  0.00    +0.171 C 
BRANCH   7   8
ATOM      8  C   UNL     1       3.911  -3.766  25.627  0.00  0.00    +0.325 C 
ATOM      9  O   UNL     1       3.699  -2.623  25.241  0.00  0.00    -0.249 OA
BRANCH   8  10
ATOM     10  O   UNL     1       3.239  -4.879  25.229  0.00  0.00    -0.461 OA
BRANCH  10  11
ATOM     11  C   UNL     1       3.937  -5.775  24.339  0.00  0.00    +0.170 C 
ATOM     12  C   UNL     1       3.082  -5.903  23.079  0.00  0.00    +0.052 C 
ATOM     13  C   UNL     1       4.097  -7.156  24.942  0.00  0.00    +0.052 C 
ENDBRANCH  10  11
ENDBRANCH   8  10
ENDBRANCH   7   8
ENDBRANCH   4   7
ENDBRANCH   2   4
BRANCH   2  14
ATOM     14  O   UNL     1       7.140  -3.035  24.571  0.00  0.00    -0.413 OA
BRANCH  14  15
ATOM     15  C   UNL     1       6.922  -3.812  23.449  0.00  0.00    +0.131 A 
ATOM     16  C   UNL     1       7.499  -5.079  23.435  0.00  0.00    +0.046 A 
ATOM     17  C   UNL     1       7.266  -5.941  22.359  0.00  0.00    +0.004 A 
ATOM     18  C   UNL     1       6.460  -5.537  21.294  0.00  0.00    +0.000 A 
ATOM     19  C   UNL     1       5.922  -4.254  21.282  0.00  0.00    +0.004 A 
ATOM     20  C   UNL     1       6.159  -3.389  22.351  0.00  0.00    +0.046 A 
ENDBRANCH  14  15
ENDBRANCH   2  14
ENDBRANCH   1   2
BRANCH   1  21
ATOM     21  C   UNL     1       8.321  -1.471  26.588  0.00  0.00    +0.206 C 
BRANCH  21  22
ATOM     22  C   UNL     1       8.899  -0.285  25.733  0.00  0.00    +0.179 C 
ATOM     23  O   UNL     1       7.863   0.539  25.141  0.00  0.00    -0.345 OA
ATOM     24  C   UNL     1       8.257   0.882  23.776  0.00  0.00    +0.263 C 
ATOM     25  C   UNL     1       9.753   0.578  23.642  0.00  0.00    +0.182 C 
ATOM     26  C   UNL     1      10.604   1.802  23.946  0.00  0.00    +0.055 C 
ATOM     27  F   UNL     1      10.077   0.157  22.391  0.00  0.00    -0.235 F 
ATOM     28  C   UNL     1       9.970  -0.558  24.662  0.00  0.00    +0.187 C 
BRANCH  24  29
ATOM     29  N   UNL     1       7.785   2.236  23.434  0.00  0.00    -0.271 N 
ATOM     30  C   UNL     1       7.497   2.537  22.100  0.00  0.00    +0.331 A 
ATOM     31  O   UNL     1       7.847   1.876  21.129  0.00  0.00    -0.246 OA
ATOM     32  N   UNL     1       6.792   3.697  21.896  0.00  0.00    -0.275 N 
ATOM     33  H   UNL     1       6.563   3.917  20.937  0.00  0.00    +0.173 HD
ATOM     34  C   UNL     1       6.670   4.703  22.801  0.00  0.00    +0.254 A 
ATOM     35  O   UNL     1       6.265   5.815  22.509  0.00  0.00    -0.268 OA
ATOM     36  C   UNL     1       7.091   4.376  24.168  0.00  0.00    +0.088 A 
ATOM     37  C   UNL     1       7.583   3.171  24.426  0.00  0.00    +0.098 A 
ENDBRANCH  24  29
BRANCH  28  38
ATOM     38  O   UNL     1       9.909  -1.846  24.051  0.00  0.00    -0.386 OA
ATOM     39  H   UNL     1       9.139  -2.329  24.398  0.00  0.00    +0.210 HD
ENDBRANCH  28  38
ENDBRANCH  21  22
ENDBRANCH   1  21
TORSDOF 12
ENDMDL
MODEL 3
REMARK VINA RESULT:      -6.6      2.650      7.800
REMARK  Name = 
REMARK  16 active torsions:
REMARK  status: ('A' for Active; 'I' for Inactive)
REMARK    1  A    between atoms: C_1  and  C_2
REMARK    2  A    between atoms: C_2  and  C_4
REMARK    3  A    between atoms: C_2  and  N_10
REMARK    4  A    between atoms: C_4  and  O_6
REMARK    5  A    between atoms: O_6  and  C_7
REMARK    6  A    between atoms: C_7  and  C_8
REMARK    7  A    between atoms: C_7  and  C_9
REMARK    8  A    between atoms: N_10  and  P_11
REMARK    9  A    between atoms: P_11  and  O_13
REMARK   10  A    between atoms: P_11  and  O_33
REMARK   11  A    between atoms: O_13  and  C_14
REMARK   12  A    between atoms: C_14  and  C_15
REMARK   13  A    between atoms: C_16  and  O_32
REMARK   14  A    between atoms: C_18  and  C_30
REMARK   15  A    between atoms: C_19  and  N_22
REMARK   16  A    between atoms: O_33  and  C_34
REMARK                            x       y       z     vdW  Elec       q    Type
REMARK                         _______ _______ _______ _____ _____    ______ ____
ROOT
ATOM      1  O   UNL     1       9.247  -3.314  23.474  0.00  0.00    -0.284 OA
ENDROOT
BRANCH   1   2
ATOM      2  P   UNL     1       7.640  -3.617  23.769  0.00  0.00    +0.462 P 
ATOM      3  O   UNL     1       7.260  -2.784  22.521  0.00  0.00    -0.228 OA
BRANCH   2   4
ATOM      4  N   UNL     1       7.291  -5.075  22.982  0.00  0.00    -0.199 NA
ATOM      5  H   UNL     1       8.019  -5.152  22.271  0.00  0.00    +0.135 HD
BRANCH   4   7
ATOM      6  C   UNL     1       6.041  -5.969  20.959  0.00  0.00    +0.036 C 
ATOM      7  C   UNL     1       5.990  -5.167  22.261  0.00  0.00    +0.171 C 
BRANCH   7   8
ATOM      8  C   UNL     1       4.849  -5.706  23.151  0.00  0.00    +0.325 C 
ATOM      9  O   UNL     1       4.906  -6.754  23.783  0.00  0.00    -0.249 OA
BRANCH   8  10
ATOM     10  O   UNL     1       3.763  -4.896  23.046  0.00  0.00    -0.461 OA
BRANCH  10  11
ATOM     11  C   UNL     1       2.646  -5.192  23.911  0.00  0.00    +0.170 C 
ATOM     12  C   UNL     1       1.452  -5.493  23.006  0.00  0.00    +0.052 C 
ATOM     13  C   UNL     1       2.286  -4.011  24.788  0.00  0.00    +0.052 C 
ENDBRANCH  10  11
ENDBRANCH   8  10
ENDBRANCH   7   8
ENDBRANCH   4   7
ENDBRANCH   2   4
BRANCH   2  14
ATOM     14  O   UNL     1       8.066  -4.548  25.164  0.00  0.00    -0.413 OA
BRANCH  14  15
ATOM     15  C   UNL     1       7.142  -4.525  26.191  0.00  0.00    +0.131 A 
ATOM     16  C   UNL     1       6.188  -3.511  26.160  0.00  0.00    +0.046 A 
ATOM     17  C   UNL     1       5.185  -3.466  27.134  0.00  0.00    +0.004 A 
ATOM     18  C   UNL     1       5.137  -4.430  28.142  0.00  0.00    +0.000 A 
ATOM     19  C   UNL     1       6.117  -5.416  28.203  0.00  0.00    +0.004 A 
ATOM     20  C   UNL     1       7.124  -5.458  27.237  0.00  0.00    +0.046 A 
ENDBRANCH  14  15
ENDBRANCH   2  14
ENDBRANCH   1   2
BRANCH   1  21
ATOM     21  C   UNL     1       9.843  -2.283  24.294  0.00  0.00    +0.206 C 
BRANCH  21  22
ATOM     22  C   UNL     1       9.891  -0.795  23.787  0.00  0.00    +0.179 C 
ATOM     23  O   UNL     1       8.791   0.005  24.288  0.00  0.00    -0.345 OA
ATOM     24  C   UNL     1       8.305   0.865  23.210  0.00  0.00    +0.263 C 
ATOM     25  C   UNL     1       9.376   0.873  22.114  0.00  0.00    +0.182 C 
ATOM     26  C   UNL     1      10.346   2.032  22.285  0.00  0.00    +0.055 C 
ATOM     27  F   UNL     1       8.832   0.976  20.873  0.00  0.00    -0.235 F 
ATOM     28  C   UNL     1      10.060  -0.498  22.286  0.00  0.00    +0.187 C 
BRANCH  24  29
ATOM     29  N   UNL     1       7.851   2.157  23.755  0.00  0.00    -0.271 N 
ATOM     30  C   UNL     1       6.859   2.869  23.074  0.00  0.00    +0.331 A 
ATOM     31  O   UNL     1       6.502   2.667  21.920  0.00  0.00    -0.246 OA
ATOM     32  N   UNL     1       6.283   3.897  23.779  0.00  0.00    -0.275 N 
ATOM     33  H   UNL     1       5.552   4.408  23.304  0.00  0.00    +0.173 HD
ATOM     34  C   UNL     1       6.815   4.476  24.885  0.00  0.00    +0.254 A 
ATOM     35  O   UNL     1       6.422   5.540  25.335  0.00  0.00    -0.268 OA
ATOM     36  C   UNL     1       7.931   3.751  25.503  0.00  0.00    +0.088 A 
ATOM     37  C   UNL     1       8.365   2.629  24.943  0.00  0.00    +0.098 A 
ENDBRANCH  24  29
BRANCH  28  38
ATOM     38  O   UNL     1       9.520  -1.481  21.404  0.00  0.00    -0.386 OA
ATOM     39  H   UNL     1      10.199  -2.154  21.221  0.00  0.00    +0.210 HD
ENDBRANCH  28  38
ENDBRANCH  21  22
ENDBRANCH   1  21
TORSDOF 12
ENDMDL
MODEL 4
REMARK VINA RESULT:      -6.5      2.630      7.124
REMARK  Name = 
REMARK  16 active torsions:
REMARK  status: ('A' for Active; 'I' for Inactive)
REMARK    1  A    between atoms: C_1  and  C_2
REMARK    2  A    between atoms: C_2  and  C_4
REMARK    3  A    between atoms: C_2  and  N_10
REMARK    4  A    between atoms: C_4  and  O_6
REMARK    5  A    between atoms: O_6  and  C_7
REMARK    6  A    between atoms: C_7  and  C_8
REMARK    7  A    between atoms: C_7  and  C_9
REMARK    8  A    between atoms: N_10  and  P_11
REMARK    9  A    between atoms: P_11  and  O_13
REMARK   10  A    between atoms: P_11  and  O_33
REMARK   11  A    between atoms: O_13  and  C_14
REMARK   12  A    between atoms: C_14  and  C_15
REMARK   13  A    between atoms: C_16  and  O_32
REMARK   14  A    between atoms: C_18  and  C_30
REMARK   15  A    between atoms: C_19  and  N_22
REMARK   16  A    between atoms: O_33  and  C_34
REMARK                            x       y       z     vdW  Elec       q    Type
REMARK                         _______ _______ _______ _____ _____    ______ ____
ROOT
ATOM      1  O   UNL     1       9.406  -1.313  22.190  0.00  0.00    -0.284 OA
ENDROOT
BRANCH   1   2
ATOM      2  P   UNL     1       8.902  -2.705  22.943  0.00  0.00    +0.462 P 
ATOM      3  O   UNL     1      10.238  -2.760  23.724  0.00  0.00    -0.228 OA
BRANCH   2   4
ATOM      4  N   UNL     1       8.046  -2.206  24.317  0.00  0.00    -0.199 NA
ATOM      5  H   UNL     1       7.999  -1.191  24.223  0.00  0.00    +0.135 HD
BRANCH   4   7
ATOM      6  C   UNL     1       8.430  -1.384  26.690  0.00  0.00    +0.036 C 
ATOM      7  C   UNL     1       8.668  -2.475  25.644  0.00  0.00    +0.171 C 
BRANCH   7   8
ATOM      8  C   UNL     1       8.259  -3.844  26.230  0.00  0.00    +0.325 C 
ATOM      9  O   UNL     1       8.977  -4.525  26.952  0.00  0.00    -0.249 OA
BRANCH   8  10
ATOM     10  O   UNL     1       7.040  -4.204  25.749  0.00  0.00    -0.461 OA
BRANCH  10  11
ATOM     11  C   UNL     1       6.017  -4.495  26.725  0.00  0.00    +0.170 C 
ATOM     12  C   UNL     1       5.574  -5.938  26.485  0.00  0.00    +0.052 C 
ATOM     13  C   UNL     1       4.808  -3.598  26.557  0.00  0.00    +0.052 C 
ENDBRANCH  10  11
ENDBRANCH   8  10
ENDBRANCH   7   8
ENDBRANCH   4   7
ENDBRANCH   2   4
BRANCH   2  14
ATOM     14  O   UNL     1       7.409  -2.644  22.071  0.00  0.00    -0.413 OA
BRANCH  14  15
ATOM     15  C   UNL     1       6.544  -3.694  22.312  0.00  0.00    +0.131 A 
ATOM     16  C   UNL     1       7.040  -4.980  22.116  0.00  0.00    +0.046 A 
ATOM     17  C   UNL     1       6.239  -6.090  22.401  0.00  0.00    +0.004 A 
ATOM     18  C   UNL     1       4.938  -5.915  22.877  0.00  0.00    +0.000 A 
ATOM     19  C   UNL     1       4.423  -4.632  23.028  0.00  0.00    +0.004 A 
ATOM     20  C   UNL     1       5.219  -3.523  22.736  0.00  0.00    +0.046 A 
ENDBRANCH  14  15
ENDBRANCH   2  14
ENDBRANCH   1   2
BRANCH   1  21
ATOM     21  C   UNL     1      10.144  -0.391  23.024  0.00  0.00    +0.206 C 
BRANCH  21  22
ATOM     22  C   UNL     1       9.450   0.905  23.582  0.00  0.00    +0.179 C 
ATOM     23  O   UNL     1       8.029   0.728  23.810  0.00  0.00    -0.345 OA
ATOM     24  C   UNL     1       7.328   1.932  23.369  0.00  0.00    +0.263 C 
ATOM     25  C   UNL     1       8.375   3.039  23.211  0.00  0.00    +0.182 C 
ATOM     26  C   UNL     1       8.514   3.867  24.480  0.00  0.00    +0.055 C 
ATOM     27  F   UNL     1       8.065   3.892  22.200  0.00  0.00    -0.235 F 
ATOM     28  C   UNL     1       9.661   2.256  22.876  0.00  0.00    +0.187 C 
BRANCH  24  29
ATOM     29  N   UNL     1       6.163   2.189  24.236  0.00  0.00    -0.271 N 
ATOM     30  C   UNL     1       5.050   2.842  23.699  0.00  0.00    +0.331 A 
ATOM     31  O   UNL     1       5.030   3.468  22.646  0.00  0.00    -0.246 OA
ATOM     32  N   UNL     1       3.909   2.784  24.461  0.00  0.00    -0.275 N 
ATOM     33  H   UNL     1       3.092   3.238  24.076  0.00  0.00    +0.173 HD
ATOM     34  C   UNL     1       3.870   2.473  25.782  0.00  0.00    +0.254 A 
ATOM     35  O   UNL     1       2.896   2.679  26.487  0.00  0.00    -0.268 OA
ATOM     36  C   UNL     1       5.102   1.895  26.331  0.00  0.00    +0.088 A 
ATOM     37  C   UNL     1       6.158   1.747  25.541  0.00  0.00    +0.098 A 
ENDBRANCH  24  29
BRANCH  28  38
ATOM     38  O   UNL     1       9.891   2.181  21.470  0.00  0.00    -0.386 OA
ATOM     39  H   UNL     1       9.511   1.354  21.126  0.00  0.00    +0.210 HD
ENDBRANCH  28  38
ENDBRANCH  21  22
ENDBRANCH   1  21
TORSDOF 12
ENDMDL
MODEL 5
REMARK VINA RESULT:      -6.3      2.477      6.978
REMARK  Name = 
REMARK  16 active torsions:
REMARK  status: ('A' for Active; 'I' for Inactive)
REMARK    1  A    between atoms: C_1  and  C_2
REMARK    2  A    between atoms: C_2  and  C_4
REMARK    3  A    between atoms: C_2  and  N_10
REMARK    4  A    between atoms: C_4  and  O_6
REMARK    5  A    between atoms: O_6  and  C_7
REMARK    6  A    between atoms: C_7  and  C_8
REMARK    7  A    between atoms: C_7  and  C_9
REMARK    8  A    between atoms: N_10  and  P_11
REMARK    9  A    between atoms: P_11  and  O_13
REMARK   10  A    between atoms: P_11  and  O_33
REMARK   11  A    between atoms: O_13  and  C_14
REMARK   12  A    between atoms: C_14  and  C_15
REMARK   13  A    between atoms: C_16  and  O_32
REMARK   14  A    between atoms: C_18  and  C_30
REMARK   15  A    between atoms: C_19  and  N_22
REMARK   16  A    between atoms: O_33  and  C_34
REMARK                            x       y       z     vdW  Elec       q    Type
REMARK                         _______ _______ _______ _____ _____    ______ ____
ROOT
ATOM      1  O   UNL     1       6.630  -2.239  23.664  0.00  0.00    -0.284 OA
ENDROOT
BRANCH   1   2
ATOM      2  P   UNL     1       7.779  -3.205  24.376  0.00  0.00    +0.462 P 
ATOM      3  O   UNL     1       6.835  -3.430  25.582  0.00  0.00    -0.228 OA
BRANCH   2   4
ATOM      4  N   UNL     1       7.502  -4.768  23.785  0.00  0.00    -0.199 NA
ATOM      5  H   UNL     1       8.423  -5.078  23.469  0.00  0.00    +0.135 HD
BRANCH   4   7
ATOM      6  C   UNL     1       7.080  -5.872  21.536  0.00  0.00    +0.036 C 
ATOM      7  C   UNL     1       6.590  -4.904  22.616  0.00  0.00    +0.171 C 
BRANCH   7   8
ATOM      8  C   UNL     1       5.148  -5.279  23.022  0.00  0.00    +0.325 C 
ATOM      9  O   UNL     1       4.156  -4.629  22.715  0.00  0.00    -0.249 OA
BRANCH   8  10
ATOM     10  O   UNL     1       5.168  -6.368  23.836  0.00  0.00    -0.461 OA
BRANCH  10  11
ATOM     11  C   UNL     1       4.279  -6.346  24.972  0.00  0.00    +0.170 C 
ATOM     12  C   UNL     1       5.146  -6.534  26.216  0.00  0.00    +0.052 C 
ATOM     13  C   UNL     1       3.275  -7.478  24.923  0.00  0.00    +0.052 C 
ENDBRANCH  10  11
ENDBRANCH   8  10
ENDBRANCH   7   8
ENDBRANCH   4   7
ENDBRANCH   2   4
BRANCH   2  14
ATOM     14  O   UNL     1       8.834  -2.953  23.028  0.00  0.00    -0.413 OA
BRANCH  14  15
ATOM     15  C   UNL     1       9.318  -1.666  22.892  0.00  0.00    +0.131 A 
ATOM     16  C   UNL     1       9.113  -1.039  21.667  0.00  0.00    +0.046 A 
ATOM     17  C   UNL     1       9.522   0.286  21.482  0.00  0.00    +0.004 A 
ATOM     18  C   UNL     1      10.140   0.984  22.521  0.00  0.00    +0.000 A 
ATOM     19  C   UNL     1      10.389   0.344  23.731  0.00  0.00    +0.004 A 
ATOM     20  C   UNL     1       9.990  -0.981  23.914  0.00  0.00    +0.046 A 
ENDBRANCH  14  15
ENDBRANCH   2  14
ENDBRANCH   1   2
BRANCH   1  21
ATOM     21  C   UNL     1       5.627  -1.708  24.560  0.00  0.00    +0.206 C 
BRANCH  21  22
ATOM     22  C   UNL     1       5.630  -0.182  24.939  0.00  0.00    +0.179 C 
ATOM     23  O   UNL     1       6.309   0.640  23.957  0.00  0.00    -0.345 OA
ATOM     24  C   UNL     1       7.107   1.646  24.655  0.00  0.00    +0.263 C 
ATOM     25  C   UNL     1       6.615   1.693  26.105  0.00  0.00    +0.182 C 
ATOM     26  C   UNL     1       5.539   2.749  26.300  0.00  0.00    +0.055 C 
ATOM     27  F   UNL     1       7.622   1.972  26.975  0.00  0.00    -0.235 F 
ATOM     28  C   UNL     1       6.086   0.263  26.340  0.00  0.00    +0.187 C 
BRANCH  24  29
ATOM     29  N   UNL     1       7.132   2.902  23.884  0.00  0.00    -0.271 N 
ATOM     30  C   UNL     1       8.267   3.716  23.949  0.00  0.00    +0.331 A 
ATOM     31  O   UNL     1       9.153   3.636  24.791  0.00  0.00    -0.246 OA
ATOM     32  N   UNL     1       8.342   4.700  22.994  0.00  0.00    -0.275 N 
ATOM     33  H   UNL     1       9.166   5.284  23.020  0.00  0.00    +0.173 HD
ATOM     34  C   UNL     1       7.295   5.151  22.257  0.00  0.00    +0.254 A 
ATOM     35  O   UNL     1       7.332   6.186  21.612  0.00  0.00    -0.268 OA
ATOM     36  C   UNL     1       6.084   4.325  22.308  0.00  0.00    +0.088 A 
ATOM     37  C   UNL     1       6.070   3.240  23.073  0.00  0.00    +0.098 A 
ENDBRANCH  24  29
BRANCH  28  38
ATOM     38  O   UNL     1       7.061  -0.574  26.959  0.00  0.00    -0.386 OA
ATOM     39  H   UNL     1       7.786  -0.741  26.332  0.00  0.00    +0.210 HD
ENDBRANCH  28  38
ENDBRANCH  21  22
ENDBRANCH   1  21
TORSDOF 12
ENDMDL
MODEL 6
REMARK VINA RESULT:      -6.2      2.945      8.414
REMARK  Name = 
REMARK  16 active torsions:
REMARK  status: ('A' for Active; 'I' for Inactive)
REMARK    1  A    between atoms: C_1  and  C_2
REMARK    2  A    between atoms: C_2  and  C_4
REMARK    3  A    between atoms: C_2  and  N_10
REMARK    4  A    between atoms: C_4  and  O_6
REMARK    5  A    between atoms: O_6  and  C_7
REMARK    6  A    between atoms: C_7  and  C_8
REMARK    7  A    between atoms: C_7  and  C_9
REMARK    8  A    between atoms: N_10  and  P_11
REMARK    9  A    between atoms: P_11  and  O_13
REMARK   10  A    between atoms: P_11  and  O_33
REMARK   11  A    between atoms: O_13  and  C_14
REMARK   12  A    between atoms: C_14  and  C_15
REMARK   13  A    between atoms: C_16  and  O_32
REMARK   14  A    between atoms: C_18  and  C_30
REMARK   15  A    between atoms: C_19  and  N_22
REMARK   16  A    between atoms: O_33  and  C_34
REMARK                            x       y       z     vdW  Elec       q    Type
REMARK                         _______ _______ _______ _____ _____    ______ ____
ROOT
ATOM      1  O   UNL     1       8.279  -2.439  25.773  0.00  0.00    -0.284 OA
ENDROOT
BRANCH   1   2
ATOM      2  P   UNL     1       7.846  -4.025  26.008  0.00  0.00    +0.462 P 
ATOM      3  O   UNL     1       9.118  -4.240  26.863  0.00  0.00    -0.228 OA
BRANCH   2   4
ATOM      4  N   UNL     1       6.846  -4.036  27.375  0.00  0.00    -0.199 NA
ATOM      5  H   UNL     1       7.501  -4.078  28.158  0.00  0.00    +0.135 HD
BRANCH   4   7
ATOM      6  C   UNL     1       6.246  -6.101  28.728  0.00  0.00    +0.036 C 
ATOM      7  C   UNL     1       5.924  -5.194  27.538  0.00  0.00    +0.171 C 
BRANCH   7   8
ATOM      8  C   UNL     1       4.440  -4.772  27.602  0.00  0.00    +0.325 C 
ATOM      9  O   UNL     1       3.927  -4.205  28.558  0.00  0.00    -0.249 OA
BRANCH   8  10
ATOM     10  O   UNL     1       3.789  -5.208  26.490  0.00  0.00    -0.461 OA
BRANCH  10  11
ATOM     11  C   UNL     1       3.204  -6.525  26.554  0.00  0.00    +0.170 C 
ATOM     12  C   UNL     1       3.797  -7.330  25.399  0.00  0.00    +0.052 C 
ATOM     13  C   UNL     1       1.700  -6.482  26.375  0.00  0.00    +0.052 C 
ENDBRANCH  10  11
ENDBRANCH   8  10
ENDBRANCH   7   8
ENDBRANCH   4   7
ENDBRANCH   2   4
BRANCH   2  14
ATOM     14  O   UNL     1       6.424  -3.785  25.052  0.00  0.00    -0.413 OA
BRANCH  14  15
ATOM     15  C   UNL     1       6.362  -4.534  23.892  0.00  0.00    +0.131 A 
ATOM     16  C   UNL     1       7.555  -5.080  23.427  0.00  0.00    +0.046 A 
ATOM     17  C   UNL     1       7.554  -5.901  22.295  0.00  0.00    +0.004 A 
ATOM     18  C   UNL     1       6.361  -6.172  21.623  0.00  0.00    +0.000 A 
ATOM     19  C   UNL     1       5.175  -5.589  22.056  0.00  0.00    +0.004 A 
ATOM     20  C   UNL     1       5.175  -4.763  23.182  0.00  0.00    +0.046 A 
ENDBRANCH  14  15
ENDBRANCH   2  14
ENDBRANCH   1   2
BRANCH   1  21
ATOM     21  C   UNL     1       9.301  -2.218  24.773  0.00  0.00    +0.206 C 
BRANCH  21  22
ATOM     22  C   UNL     1       9.191  -1.003  23.781  0.00  0.00    +0.179 C 
ATOM     23  O   UNL     1       9.570   0.257  24.390  0.00  0.00    -0.345 OA
ATOM     24  C   UNL     1       8.640   1.293  23.947  0.00  0.00    +0.263 C 
ATOM     25  C   UNL     1       7.887   0.742  22.732  0.00  0.00    +0.182 C 
ATOM     26  C   UNL     1       8.568   1.124  21.427  0.00  0.00    +0.055 C 
ATOM     27  F   UNL     1       6.609   1.202  22.674  0.00  0.00    -0.235 F 
ATOM     28  C   UNL     1       7.897  -0.780  22.978  0.00  0.00    +0.187 C 
BRANCH  24  29
ATOM     29  N   UNL     1       9.342   2.582  23.809  0.00  0.00    -0.271 N 
ATOM     30  C   UNL     1       8.638   3.766  24.050  0.00  0.00    +0.331 A 
ATOM     31  O   UNL     1       7.419   3.871  24.108  0.00  0.00    -0.246 OA
ATOM     32  N   UNL     1       9.411   4.892  24.193  0.00  0.00    -0.275 N 
ATOM     33  H   UNL     1       8.915   5.752  24.385  0.00  0.00    +0.173 HD
ATOM     34  C   UNL     1      10.702   5.008  23.787  0.00  0.00    +0.254 A 
ATOM     35  O   UNL     1      11.276   6.079  23.690  0.00  0.00    -0.268 OA
ATOM     36  C   UNL     1      11.367   3.748  23.435  0.00  0.00    +0.088 A 
ATOM     37  C   UNL     1      10.684   2.612  23.497  0.00  0.00    +0.098 A 
ENDBRANCH  24  29
BRANCH  28  38
ATOM     38  O   UNL     1       6.699  -1.229  23.610  0.00  0.00    -0.386 OA
ATOM     39  H   UNL     1       6.262  -1.884  23.040  0.00  0.00    +0.210 HD
ENDBRANCH  28  38
ENDBRANCH  21  22
ENDBRANCH   1  21
TORSDOF 12
ENDMDL
MODEL 7
REMARK VINA RESULT:      -6.1      2.450      3.746
REMARK  Name = 
REMARK  16 active torsions:
REMARK  status: ('A' for Active; 'I' for Inactive)
REMARK    1  A    between atoms: C_1  and  C_2
REMARK    2  A    between atoms: C_2  and  C_4
REMARK    3  A    between atoms: C_2  and  N_10
REMARK    4  A    between atoms: C_4  and  O_6
REMARK    5  A    between atoms: O_6  and  C_7
REMARK    6  A    between atoms: C_7  and  C_8
REMARK    7  A    between atoms: C_7  and  C_9
REMARK    8  A    between atoms: N_10  and  P_11
REMARK    9  A    between atoms: P_11  and  O_13
REMARK   10  A    between atoms: P_11  and  O_33
REMARK   11  A    between atoms: O_13  and  C_14
REMARK   12  A    between atoms: C_14  and  C_15
REMARK   13  A    between atoms: C_16  and  O_32
REMARK   14  A    between atoms: C_18  and  C_30
REMARK   15  A    between atoms: C_19  and  N_22
REMARK   16  A    between atoms: O_33  and  C_34
REMARK                            x       y       z     vdW  Elec       q    Type
REMARK                         _______ _______ _______ _____ _____    ______ ____
ROOT
ATOM      1  O   UNL     1       9.099   0.878  23.420  0.00  0.00    -0.284 OA
ENDROOT
BRANCH   1   2
ATOM      2  P   UNL     1       8.971   2.167  22.379  0.00  0.00    +0.462 P 
ATOM      3  O   UNL     1       8.930   1.188  21.181  0.00  0.00    -0.228 OA
BRANCH   2   4
ATOM      4  N   UNL     1       7.315   2.497  22.250  0.00  0.00    -0.199 NA
ATOM      5  H   UNL     1       7.170   2.641  21.249  0.00  0.00    +0.135 HD
BRANCH   4   7
ATOM      6  C   UNL     1       6.877   4.994  22.076  0.00  0.00    +0.036 C 
ATOM      7  C   UNL     1       6.808   3.723  22.926  0.00  0.00    +0.171 C 
BRANCH   7   8
ATOM      8  C   UNL     1       5.375   3.554  23.477  0.00  0.00    +0.325 C 
ATOM      9  O   UNL     1       5.084   3.607  24.665  0.00  0.00    -0.249 OA
BRANCH   8  10
ATOM     10  O   UNL     1       4.525   3.249  22.461  0.00  0.00    -0.461 OA
BRANCH  10  11
ATOM     11  C   UNL     1       3.196   3.807  22.536  0.00  0.00    +0.170 C 
ATOM     12  C   UNL     1       2.384   3.169  21.409  0.00  0.00    +0.052 C 
ATOM     13  C   UNL     1       3.203   5.306  22.321  0.00  0.00    +0.052 C 
ENDBRANCH  10  11
ENDBRANCH   8  10
ENDBRANCH   7   8
ENDBRANCH   4   7
ENDBRANCH   2   4
BRANCH   2  14
ATOM     14  O   UNL     1       9.017   3.261  23.719  0.00  0.00    -0.413 OA
BRANCH  14  15
ATOM     15  C   UNL     1      10.093   4.128  23.734  0.00  0.00    +0.131 A 
ATOM     16  C   UNL     1       9.877   5.396  24.266  0.00  0.00    +0.046 A 
ATOM     17  C   UNL     1      10.938   6.301  24.369  0.00  0.00    +0.004 A 
ATOM     18  C   UNL     1      12.215   5.941  23.936  0.00  0.00    +0.000 A 
ATOM     19  C   UNL     1      12.424   4.693  23.360  0.00  0.00    +0.004 A 
ATOM     20  C   UNL     1      11.365   3.791  23.248  0.00  0.00    +0.046 A 
ENDBRANCH  14  15
ENDBRANCH   2  14
ENDBRANCH   1   2
BRANCH   1  21
ATOM     21  C   UNL     1       7.920   0.602  24.210  0.00  0.00    +0.206 C 
BRANCH  21  22
ATOM     22  C   UNL     1       7.253  -0.822  24.169  0.00  0.00    +0.179 C 
ATOM     23  O   UNL     1       7.642  -1.657  25.288  0.00  0.00    -0.345 OA
ATOM     24  C   UNL     1       7.873  -3.017  24.804  0.00  0.00    +0.263 C 
ATOM     25  C   UNL     1       7.245  -3.118  23.410  0.00  0.00    +0.182 C 
ATOM     26  C   UNL     1       5.816  -3.633  23.473  0.00  0.00    +0.055 C 
ATOM     27  F   UNL     1       7.944  -3.953  22.597  0.00  0.00    -0.235 F 
ATOM     28  C   UNL     1       7.326  -1.670  22.886  0.00  0.00    +0.187 C 
BRANCH  24  29
ATOM     29  N   UNL     1       7.467  -3.998  25.827  0.00  0.00    -0.271 N 
ATOM     30  C   UNL     1       8.186  -5.191  25.945  0.00  0.00    +0.331 A 
ATOM     31  O   UNL     1       8.964  -5.639  25.112  0.00  0.00    -0.246 OA
ATOM     32  N   UNL     1       7.948  -5.911  27.089  0.00  0.00    -0.275 N 
ATOM     33  H   UNL     1       8.475  -6.767  27.195  0.00  0.00    +0.173 HD
ATOM     34  C   UNL     1       6.870  -5.753  27.899  0.00  0.00    +0.254 A 
ATOM     35  O   UNL     1       6.551  -6.565  28.751  0.00  0.00    -0.268 OA
ATOM     36  C   UNL     1       6.076  -4.541  27.663  0.00  0.00    +0.088 A 
ATOM     37  C   UNL     1       6.425  -3.716  26.684  0.00  0.00    +0.098 A 
ENDBRANCH  24  29
BRANCH  28  38
ATOM     38  O   UNL     1       8.482  -1.456  22.077  0.00  0.00    -0.386 OA
ATOM     39  H   UNL     1       9.055  -2.241  22.123  0.00  0.00    +0.210 HD
ENDBRANCH  28  38
ENDBRANCH  21  22
ENDBRANCH   1  21
TORSDOF 12
ENDMDL
MODEL 8
REMARK VINA RESULT:      -6.0      1.683      2.034
REMARK  Name = 
REMARK  16 active torsions:
REMARK  status: ('A' for Active; 'I' for Inactive)
REMARK    1  A    between atoms: C_1  and  C_2
REMARK    2  A    between atoms: C_2  and  C_4
REMARK    3  A    between atoms: C_2  and  N_10
REMARK    4  A    between atoms: C_4  and  O_6
REMARK    5  A    between atoms: O_6  and  C_7
REMARK    6  A    between atoms: C_7  and  C_8
REMARK    7  A    between atoms: C_7  and  C_9
REMARK    8  A    between atoms: N_10  and  P_11
REMARK    9  A    between atoms: P_11  and  O_13
REMARK   10  A    between atoms: P_11  and  O_33
REMARK   11  A    between atoms: O_13  and  C_14
REMARK   12  A    between atoms: C_14  and  C_15
REMARK   13  A    between atoms: C_16  and  O_32
REMARK   14  A    between atoms: C_18  and  C_30
REMARK   15  A    between atoms: C_19  and  N_22
REMARK   16  A    between atoms: O_33  and  C_34
REMARK                            x       y       z     vdW  Elec       q    Type
REMARK                         _______ _______ _______ _____ _____    ______ ____
ROOT
ATOM      1  O   UNL     1       8.851   0.743  23.542  0.00  0.00    -0.284 OA
ENDROOT
BRANCH   1   2
ATOM      2  P   UNL     1       9.163   1.955  22.449  0.00  0.00    +0.462 P 
ATOM      3  O   UNL     1       9.291   0.900  21.324  0.00  0.00    -0.228 OA
BRANCH   2   4
ATOM      4  N   UNL     1       7.651   2.469  21.882  0.00  0.00    -0.199 NA
ATOM      5  H   UNL     1       7.876   3.036  21.063  0.00  0.00    +0.135 HD
BRANCH   4   7
ATOM      6  C   UNL     1       6.707   4.788  22.314  0.00  0.00    +0.036 C 
ATOM      7  C   UNL     1       6.844   3.338  22.783  0.00  0.00    +0.171 C 
BRANCH   7   8
ATOM      8  C   UNL     1       5.442   2.760  23.074  0.00  0.00    +0.325 C 
ATOM      9  O   UNL     1       4.441   3.019  22.418  0.00  0.00    -0.249 OA
BRANCH   8  10
ATOM     10  O   UNL     1       5.480   2.008  24.207  0.00  0.00    -0.461 OA
BRANCH  10  11
ATOM     11  C   UNL     1       5.975   2.655  25.398  0.00  0.00    +0.170 C 
ATOM     12  C   UNL     1       6.755   1.600  26.183  0.00  0.00    +0.052 C 
ATOM     13  C   UNL     1       4.847   3.156  26.276  0.00  0.00    +0.052 C 
ENDBRANCH  10  11
ENDBRANCH   8  10
ENDBRANCH   7   8
ENDBRANCH   4   7
ENDBRANCH   2   4
BRANCH   2  14
ATOM     14  O   UNL     1       9.019   3.134  23.707  0.00  0.00    -0.413 OA
BRANCH  14  15
ATOM     15  C   UNL     1      10.048   4.054  23.772  0.00  0.00    +0.131 A 
ATOM     16  C   UNL     1      11.301   3.633  23.334  0.00  0.00    +0.046 A 
ATOM     17  C   UNL     1      12.372   4.531  23.313  0.00  0.00    +0.004 A 
ATOM     18  C   UNL     1      12.195   5.849  23.735  0.00  0.00    +0.000 A 
ATOM     19  C   UNL     1      10.957   6.260  24.218  0.00  0.00    +0.004 A 
ATOM     20  C   UNL     1       9.888   5.363  24.248  0.00  0.00    +0.046 A 
ENDBRANCH  14  15
ENDBRANCH   2  14
ENDBRANCH   1   2
BRANCH   1  21
ATOM     21  C   UNL     1       7.986  -0.313  23.064  0.00  0.00    +0.206 C 
BRANCH  21  22
ATOM     22  C   UNL     1       8.182  -1.789  23.570  0.00  0.00    +0.179 C 
ATOM     23  O   UNL     1       6.927  -2.486  23.770  0.00  0.00    -0.345 OA
ATOM     24  C   UNL     1       7.016  -3.274  24.998  0.00  0.00    +0.263 C 
ATOM     25  C   UNL     1       8.499  -3.368  25.373  0.00  0.00    +0.182 C 
ATOM     26  C   UNL     1       9.146  -4.619  24.800  0.00  0.00    +0.055 C 
ATOM     27  F   UNL     1       8.681  -3.395  26.720  0.00  0.00    -0.235 F 
ATOM     28  C   UNL     1       9.091  -2.074  24.779  0.00  0.00    +0.187 C 
BRANCH  24  29
ATOM     29  N   UNL     1       6.250  -4.526  24.856  0.00  0.00    -0.271 N 
ATOM     30  C   UNL     1       5.734  -5.137  26.003  0.00  0.00    +0.331 A 
ATOM     31  O   UNL     1       6.071  -4.892  27.155  0.00  0.00    -0.246 OA
ATOM     32  N   UNL     1       4.797  -6.115  25.777  0.00  0.00    -0.275 N 
ATOM     33  H   UNL     1       4.403  -6.553  26.599  0.00  0.00    +0.173 HD
ATOM     34  C   UNL     1       4.605  -6.752  24.593  0.00  0.00    +0.254 A 
ATOM     35  O   UNL     1       3.957  -7.780  24.487  0.00  0.00    -0.268 OA
ATOM     36  C   UNL     1       5.260  -6.137  23.433  0.00  0.00    +0.088 A 
ATOM     37  C   UNL     1       6.006  -5.053  23.607  0.00  0.00    +0.098 A 
ENDBRANCH  24  29
BRANCH  28  38
ATOM     38  O   UNL     1       9.169  -1.027  25.745  0.00  0.00    -0.386 OA
ATOM     39  H   UNL     1      10.093  -0.732  25.824  0.00  0.00    +0.210 HD
ENDBRANCH  28  38
ENDBRANCH  21  22
ENDBRANCH   1  21
TORSDOF 12
ENDMDL
MODEL 9
REMARK VINA RESULT:      -6.0      2.430      8.004
REMARK  Name = 
REMARK  16 active torsions:
REMARK  status: ('A' for Active; 'I' for Inactive)
REMARK    1  A    between atoms: C_1  and  C_2
REMARK    2  A    between atoms: C_2  and  C_4
REMARK    3  A    between atoms: C_2  and  N_10
REMARK    4  A    between atoms: C_4  and  O_6
REMARK    5  A    between atoms: O_6  and  C_7
REMARK    6  A    between atoms: C_7  and  C_8
REMARK    7  A    between atoms: C_7  and  C_9
REMARK    8  A    between atoms: N_10  and  P_11
REMARK    9  A    between atoms: P_11  and  O_13
REMARK   10  A    between atoms: P_11  and  O_33
REMARK   11  A    between atoms: O_13  and  C_14
REMARK   12  A    between atoms: C_14  and  C_15
REMARK   13  A    between atoms: C_16  and  O_32
REMARK   14  A    between atoms: C_18  and  C_30
REMARK   15  A    between atoms: C_19  and  N_22
REMARK   16  A    between atoms: O_33  and  C_34
REMARK                            x       y       z     vdW  Elec       q    Type
REMARK                         _______ _______ _______ _____ _____    ______ ____
ROOT
ATOM      1  O   UNL     1       5.138  -0.497  25.214  0.00  0.00    -0.284 OA
ENDROOT
BRANCH   1   2
ATOM      2  P   UNL     1       5.678  -2.051  25.443  0.00  0.00    +0.462 P 
ATOM      3  O   UNL     1       5.293  -1.959  26.940  0.00  0.00    -0.228 OA
BRANCH   2   4
ATOM      4  N   UNL     1       4.359  -3.057  25.100  0.00  0.00    -0.199 NA
ATOM      5  H   UNL     1       3.752  -2.953  25.914  0.00  0.00    +0.135 HD
BRANCH   4   7
ATOM      6  C   UNL     1       3.948  -5.390  26.017  0.00  0.00    +0.036 C 
ATOM      7  C   UNL     1       4.630  -4.515  24.963  0.00  0.00    +0.171 C 
BRANCH   7   8
ATOM      8  C   UNL     1       4.297  -5.056  23.555  0.00  0.00    +0.325 C 
ATOM      9  O   UNL     1       3.253  -4.825  22.958  0.00  0.00    -0.249 OA
BRANCH   8  10
ATOM     10  O   UNL     1       5.288  -5.887  23.136  0.00  0.00    -0.461 OA
BRANCH  10  11
ATOM     11  C   UNL     1       6.310  -5.309  22.298  0.00  0.00    +0.170 C 
ATOM     12  C   UNL     1       6.134  -5.910  20.904  0.00  0.00    +0.052 C 
ATOM     13  C   UNL     1       7.701  -5.655  22.788  0.00  0.00    +0.052 C 
ENDBRANCH  10  11
ENDBRANCH   8  10
ENDBRANCH   7   8
ENDBRANCH   4   7
ENDBRANCH   2   4
BRANCH   2  14
ATOM     14  O   UNL     1       6.109  -2.155  23.771  0.00  0.00    -0.413 OA
BRANCH  14  15
ATOM     15  C   UNL     1       7.465  -2.111  23.510  0.00  0.00    +0.131 A 
ATOM     16  C   UNL     1       7.850  -1.738  22.224  0.00  0.00    +0.046 A 
ATOM     17  C   UNL     1       9.206  -1.611  21.909  0.00  0.00    +0.004 A 
ATOM     18  C   UNL     1      10.180  -1.862  22.877  0.00  0.00    +0.000 A 
ATOM     19  C   UNL     1       9.801  -2.282  24.148  0.00  0.00    +0.004 A 
ATOM     20  C   UNL     1       8.448  -2.417  24.462  0.00  0.00    +0.046 A 
ENDBRANCH  14  15
ENDBRANCH   2  14
ENDBRANCH   1   2
BRANCH   1  21
ATOM     21  C   UNL     1       6.098   0.542  25.512  0.00  0.00    +0.206 C 
BRANCH  21  22
ATOM     22  C   UNL     1       6.947   1.193  24.360  0.00  0.00    +0.179 C 
ATOM     23  O   UNL     1       7.833   2.238  24.835  0.00  0.00    -0.345 OA
ATOM     24  C   UNL     1       7.810   3.345  23.882  0.00  0.00    +0.263 C 
ATOM     25  C   UNL     1       7.184   2.819  22.586  0.00  0.00    +0.182 C 
ATOM     26  C   UNL     1       8.241   2.312  21.616  0.00  0.00    +0.055 C 
ATOM     27  F   UNL     1       6.466   3.777  21.942  0.00  0.00    -0.235 F 
ATOM     28  C   UNL     1       6.252   1.695  23.081  0.00  0.00    +0.187 C 
BRANCH  24  29
ATOM     29  N   UNL     1       9.138   3.982  23.809  0.00  0.00    -0.271 N 
ATOM     30  C   UNL     1      10.274   3.172  23.721  0.00  0.00    +0.331 A 
ATOM     31  O   UNL     1      10.314   1.972  23.964  0.00  0.00    -0.246 OA
ATOM     32  N   UNL     1      11.431   3.818  23.362  0.00  0.00    -0.275 N 
ATOM     33  H   UNL     1      12.257   3.240  23.278  0.00  0.00    +0.173 HD
ATOM     34  C   UNL     1      11.628   5.159  23.432  0.00  0.00    +0.254 A 
ATOM     35  O   UNL     1      12.731   5.676  23.357  0.00  0.00    -0.268 OA
ATOM     36  C   UNL     1      10.419   5.964  23.640  0.00  0.00    +0.088 A 
ATOM     37  C   UNL     1       9.248   5.355  23.778  0.00  0.00    +0.098 A 
ENDBRANCH  24  29
BRANCH  28  38
ATOM     38  O   UNL     1       4.910   2.147  23.252  0.00  0.00    -0.386 OA
ATOM     39  H   UNL     1       4.726   2.853  22.609  0.00  0.00    +0.210 HD
ENDBRANCH  28  38
ENDBRANCH  21  22
ENDBRANCH   1  21
TORSDOF 12
ENDMDL
