MODEL 1
REMARK VINA RESULT:      -8.5      0.000      0.000
REMARK  Name = 
REMARK  5 active torsions:
REMARK  status: ('A' for Active; 'I' for Inactive)
REMARK    1  A    between atoms: C_1  and  C_2
REMARK    2  A    between atoms: C_11  and  O_30
REMARK    3  A    between atoms: C_14  and  C_18
REMARK    4  A    between atoms: N_20  and  C_21
REMARK    5  A    between atoms: C_21  and  C_22
REMARK                            x       y       z     vdW  Elec       q    Type
REMARK                         _______ _______ _______ _____ _____    ______ ____
ROOT
ATOM      1  C   UNL     1       1.437  -5.039  28.436  0.00  0.00    +0.028 C 
ATOM      2  C   UNL     1       2.145  -6.090  27.498  0.00  0.00    +0.078 C 
ATOM      3  N   UNL     1       3.453  -5.761  26.796  0.00  0.00    -0.266 N 
ATOM      4  C   UNL     1       3.716  -5.946  25.411  0.00  0.00    +0.269 C 
ATOM      5  C   UNL     1       5.145  -5.517  24.836  0.00  0.00    +0.151 A 
ATOM      6  N   UNL     1       5.999  -4.954  25.790  0.00  0.00    -0.335 N 
ATOM      7  C   UNL     1       5.971  -5.621  27.074  0.00  0.00    +0.173 C 
ATOM      8  C   UNL     1       7.229  -4.444  25.448  0.00  0.00    +0.103 A 
ATOM      9  C   UNL     1       7.872  -4.546  24.277  0.00  0.00    +0.103 A 
ATOM     10  C   UNL     1       7.048  -5.214  23.221  0.00  0.00    +0.236 A 
ATOM     11  O   UNL     1       7.482  -5.418  22.087  0.00  0.00    -0.283 OA
ATOM     12  C   UNL     1       5.602  -5.672  23.562  0.00  0.00    +0.194 A 
ATOM     13  O   UNL     1       2.904  -6.418  24.594  0.00  0.00    -0.268 OA
ATOM     14  C   UNL     1       4.596  -5.587  27.691  0.00  0.00    +0.228 C 
ATOM     15  O   UNL     1       4.688  -6.702  28.579  0.00  0.00    -0.357 OA
ATOM     16  C   UNL     1       3.547  -6.863  29.377  0.00  0.00    +0.164 C 
ATOM     17  C   UNL     1       2.384  -7.261  28.469  0.00  0.00    +0.050 C 
ENDROOT
BRANCH   9  18
ATOM     18  C   UNL     1       9.300  -4.083  24.402  0.00  0.00    +0.250 C 
ATOM     19  N   UNL     1       9.813  -2.952  23.875  0.00  0.00    -0.307 N 
ATOM     20  H   UNL     1      10.818  -2.870  24.000  0.00  0.00    +0.149 HD
ATOM     21  O   UNL     1      10.132  -4.772  25.023  0.00  0.00    -0.270 OA
BRANCH  19  22
ATOM     22  C   UNL     1       9.144  -2.019  23.026  0.00  0.00    +0.142 C 
BRANCH  22  23
ATOM     23  C   UNL     1       9.680  -0.628  23.132  0.00  0.00    +0.005 A 
ATOM     24  C   UNL     1      10.125  -0.129  24.370  0.00  0.00    +0.011 A 
ATOM     25  C   UNL     1      10.500   1.207  24.475  0.00  0.00    +0.039 A 
ATOM     26  C   UNL     1      10.456   2.029  23.356  0.00  0.00    +0.126 A 
ATOM     27  F   UNL     1      10.803   3.317  23.477  0.00  0.00    -0.205 F 
ATOM     28  C   UNL     1      10.060   1.544  22.117  0.00  0.00    +0.077 A 
ATOM     29  C   UNL     1       9.679   0.211  22.015  0.00  0.00    +0.131 A 
ATOM     30  F   UNL     1       9.284  -0.259  20.824  0.00  0.00    -0.205 F 
ENDBRANCH  22  23
ENDBRANCH  19  22
ENDBRANCH   9  18
BRANCH  12  31
ATOM     31  O   UNL     1       4.911  -6.271  22.522  0.00  0.00    -0.502 OA
ATOM     32  H   UNL     1       3.963  -6.328  22.753  0.00  0.00    +0.292 HD
ENDBRANCH  12  31
TORSDOF 4
ENDMDL
MODEL 2
REMARK VINA RESULT:      -8.5      3.721      8.304
REMARK  Name = 
REMARK  5 active torsions:
REMARK  status: ('A' for Active; 'I' for Inactive)
REMARK    1  A    between atoms: C_1  and  C_2
REMARK    2  A    between atoms: C_11  and  O_30
REMARK    3  A    between atoms: C_14  and  C_18
REMARK    4  A    between atoms: N_20  and  C_21
REMARK    5  A    between atoms: C_21  and  C_22
REMARK                            x       y       z     vdW  Elec       q    Type
REMARK                         _______ _______ _______ _____ _____    ______ ____
ROOT
ATOM      1  C   UNL     1      10.104   5.353  24.426  0.00  0.00    +0.028 C 
ATOM      2  C   UNL     1       9.446   4.329  23.425  0.00  0.00    +0.078 C 
ATOM      3  N   UNL     1       9.282   2.863  23.795  0.00  0.00    -0.266 N 
ATOM      4  C   UNL     1       9.673   1.760  22.988  0.00  0.00    +0.269 C 
ATOM      5  C   UNL     1       9.450   0.279  23.550  0.00  0.00    +0.151 A 
ATOM      6  N   UNL     1       8.903   0.233  24.837  0.00  0.00    -0.335 N 
ATOM      7  C   UNL     1       7.849   1.198  25.065  0.00  0.00    +0.173 C 
ATOM      8  C   UNL     1       8.734  -0.954  25.508  0.00  0.00    +0.103 A 
ATOM      9  C   UNL     1       8.869  -2.200  25.035  0.00  0.00    +0.103 A 
ATOM     10  C   UNL     1       9.377  -2.233  23.627  0.00  0.00    +0.236 A 
ATOM     11  O   UNL     1       9.541  -3.289  23.017  0.00  0.00    -0.283 OA
ATOM     12  C   UNL     1       9.702  -0.894  22.906  0.00  0.00    +0.194 A 
ATOM     13  O   UNL     1      10.193   1.857  21.861  0.00  0.00    -0.268 OA
ATOM     14  C   UNL     1       8.338   2.613  24.883  0.00  0.00    +0.228 C 
ATOM     15  O   UNL     1       7.103   3.277  24.613  0.00  0.00    -0.357 OA
ATOM     16  C   UNL     1       7.243   4.665  24.486  0.00  0.00    +0.164 C 
ATOM     17  C   UNL     1       8.050   4.948  23.221  0.00  0.00    +0.050 C 
ENDROOT
BRANCH   9  18
ATOM     18  C   UNL     1       8.333  -3.212  26.014  0.00  0.00    +0.250 C 
ATOM     19  N   UNL     1       7.072  -3.691  26.044  0.00  0.00    -0.307 N 
ATOM     20  H   UNL     1       6.892  -4.299  26.838  0.00  0.00    +0.149 HD
ATOM     21  O   UNL     1       9.068  -3.671  26.909  0.00  0.00    -0.270 OA
BRANCH  19  22
ATOM     22  C   UNL     1       5.977  -3.281  25.225  0.00  0.00    +0.142 C 
BRANCH  22  23
ATOM     23  C   UNL     1       5.928  -3.977  23.903  0.00  0.00    +0.005 A 
ATOM     24  C   UNL     1       5.853  -5.380  23.841  0.00  0.00    +0.011 A 
ATOM     25  C   UNL     1       5.937  -6.017  22.606  0.00  0.00    +0.039 A 
ATOM     26  C   UNL     1       6.068  -5.263  21.446  0.00  0.00    +0.126 A 
ATOM     27  F   UNL     1       6.165  -5.890  20.267  0.00  0.00    -0.205 F 
ATOM     28  C   UNL     1       6.101  -3.876  21.485  0.00  0.00    +0.077 A 
ATOM     29  C   UNL     1       6.023  -3.242  22.720  0.00  0.00    +0.131 A 
ATOM     30  F   UNL     1       6.068  -1.904  22.763  0.00  0.00    -0.205 F 
ENDBRANCH  22  23
ENDBRANCH  19  22
ENDBRANCH   9  18
BRANCH  12  31
ATOM     31  O   UNL     1      10.175  -1.021  21.610  0.00  0.00    -0.502 OA
ATOM     32  H   UNL     1      10.988  -1.563  21.614  0.00  0.00    +0.292 HD
ENDBRANCH  12  31
TORSDOF 4
ENDMDL
MODEL 3
REMARK VINA RESULT:      -8.4      1.865      2.974
REMARK  Name = 
REMARK  5 active torsions:
REMARK  status: ('A' for Active; 'I' for Inactive)
REMARK    1  A    between atoms: C_1  and  C_2
REMARK    2  A    between atoms: C_11  and  O_30
REMARK    3  A    between atoms: C_14  and  C_18
REMARK    4  A    between atoms: N_20  and  C_21
REMARK    5  A    between atoms: C_21  and  C_22
REMARK                            x       y       z     vdW  Elec       q    Type
REMARK                         _______ _______ _______ _____ _____    ______ ____
ROOT
ATOM      1  C   UNL     1       2.969  -7.135  28.861  0.00  0.00    +0.028 C 
ATOM      2  C   UNL     1       4.194  -6.164  29.059  0.00  0.00    +0.078 C 
ATOM      3  N   UNL     1       4.947  -5.594  27.866  0.00  0.00    -0.266 N 
ATOM      4  C   UNL     1       6.358  -5.610  27.697  0.00  0.00    +0.269 C 
ATOM      5  C   UNL     1       6.979  -4.988  26.361  0.00  0.00    +0.151 A 
ATOM      6  N   UNL     1       6.025  -4.507  25.458  0.00  0.00    -0.335 N 
ATOM      7  C   UNL     1       4.931  -3.793  26.080  0.00  0.00    +0.173 C 
ATOM      8  C   UNL     1       6.379  -4.027  24.220  0.00  0.00    +0.103 A 
ATOM      9  C   UNL     1       7.608  -3.771  23.750  0.00  0.00    +0.103 A 
ATOM     10  C   UNL     1       8.688  -4.186  24.701  0.00  0.00    +0.236 A 
ATOM     11  O   UNL     1       9.880  -4.007  24.451  0.00  0.00    -0.283 OA
ATOM     12  C   UNL     1       8.298  -4.858  26.047  0.00  0.00    +0.194 A 
ATOM     13  O   UNL     1       7.164  -6.087  28.518  0.00  0.00    -0.268 OA
ATOM     14  C   UNL     1       4.170  -4.666  27.045  0.00  0.00    +0.228 C 
ATOM     15  O   UNL     1       3.575  -3.669  27.876  0.00  0.00    -0.357 OA
ATOM     16  C   UNL     1       2.710  -4.203  28.841  0.00  0.00    +0.164 C 
ATOM     17  C   UNL     1       3.547  -5.003  29.837  0.00  0.00    +0.050 C 
ENDROOT
BRANCH   9  18
ATOM     18  C   UNL     1       7.543  -3.005  22.455  0.00  0.00    +0.250 C 
ATOM     19  N   UNL     1       8.503  -2.189  21.971  0.00  0.00    -0.307 N 
ATOM     20  H   UNL     1       8.226  -1.700  21.125  0.00  0.00    +0.149 HD
ATOM     21  O   UNL     1       6.533  -3.079  21.730  0.00  0.00    -0.270 OA
BRANCH  19  22
ATOM     22  C   UNL     1       9.721  -1.816  22.618  0.00  0.00    +0.142 C 
BRANCH  22  23
ATOM     23  C   UNL     1       9.833  -0.348  22.875  0.00  0.00    +0.005 A 
ATOM     24  C   UNL     1       9.809   0.565  21.805  0.00  0.00    +0.011 A 
ATOM     25  C   UNL     1      10.043   1.915  22.052  0.00  0.00    +0.039 A 
ATOM     26  C   UNL     1      10.272   2.352  23.350  0.00  0.00    +0.126 A 
ATOM     27  F   UNL     1      10.513   3.651  23.570  0.00  0.00    -0.205 F 
ATOM     28  C   UNL     1      10.257   1.471  24.424  0.00  0.00    +0.077 A 
ATOM     29  C   UNL     1      10.030   0.123  24.175  0.00  0.00    +0.131 A 
ATOM     30  F   UNL     1      10.029  -0.733  25.206  0.00  0.00    -0.205 F 
ENDBRANCH  22  23
ENDBRANCH  19  22
ENDBRANCH   9  18
BRANCH  12  31
ATOM     31  O   UNL     1       9.362  -5.217  26.858  0.00  0.00    -0.502 OA
ATOM     32  H   UNL     1       9.992  -4.472  26.914  0.00  0.00    +0.292 HD
ENDBRANCH  12  31
TORSDOF 4
ENDMDL
MODEL 4
REMARK VINA RESULT:      -8.4      1.864      3.165
REMARK  Name = 
REMARK  5 active torsions:
REMARK  status: ('A' for Active; 'I' for Inactive)
REMARK    1  A    between atoms: C_1  and  C_2
REMARK    2  A    between atoms: C_11  and  O_30
REMARK    3  A    between atoms: C_14  and  C_18
REMARK    4  A    between atoms: N_20  and  C_21
REMARK    5  A    between atoms: C_21  and  C_22
REMARK                            x       y       z     vdW  Elec       q    Type
REMARK                         _______ _______ _______ _____ _____    ______ ____
ROOT
ATOM      1  C   UNL     1       2.772  -7.509  29.458  0.00  0.00    +0.028 C 
ATOM      2  C   UNL     1       3.828  -6.339  29.441  0.00  0.00    +0.078 C 
ATOM      3  N   UNL     1       4.579  -5.977  28.169  0.00  0.00    -0.266 N 
ATOM      4  C   UNL     1       5.988  -5.814  28.061  0.00  0.00    +0.269 C 
ATOM      5  C   UNL     1       6.613  -5.459  26.632  0.00  0.00    +0.151 A 
ATOM      6  N   UNL     1       5.671  -5.377  25.601  0.00  0.00    -0.335 N 
ATOM      7  C   UNL     1       4.442  -4.710  25.975  0.00  0.00    +0.173 C 
ATOM      8  C   UNL     1       6.045  -5.175  24.294  0.00  0.00    +0.103 A 
ATOM      9  C   UNL     1       7.257  -4.856  23.819  0.00  0.00    +0.103 A 
ATOM     10  C   UNL     1       8.310  -4.843  24.883  0.00  0.00    +0.236 A 
ATOM     11  O   UNL     1       9.480  -4.548  24.639  0.00  0.00    -0.283 OA
ATOM     12  C   UNL     1       7.919  -5.206  26.343  0.00  0.00    +0.194 A 
ATOM     13  O   UNL     1       6.788  -5.935  29.006  0.00  0.00    -0.268 OA
ATOM     14  C   UNL     1       3.743  -5.420  27.106  0.00  0.00    +0.228 C 
ATOM     15  O   UNL     1       2.950  -4.352  27.626  0.00  0.00    -0.357 OA
ATOM     16  C   UNL     1       2.100  -4.755  28.665  0.00  0.00    +0.164 C 
ATOM     17  C   UNL     1       2.965  -5.136  29.865  0.00  0.00    +0.050 C 
ENDROOT
BRANCH   9  18
ATOM     18  C   UNL     1       7.182  -4.461  22.367  0.00  0.00    +0.250 C 
ATOM     19  N   UNL     1       6.970  -3.214  21.898  0.00  0.00    -0.307 N 
ATOM     20  H   UNL     1       6.867  -3.177  20.887  0.00  0.00    +0.149 HD
ATOM     21  O   UNL     1       7.303  -5.322  21.475  0.00  0.00    -0.270 OA
BRANCH  19  22
ATOM     22  C   UNL     1       6.687  -2.043  22.665  0.00  0.00    +0.142 C 
BRANCH  22  23
ATOM     23  C   UNL     1       7.912  -1.294  23.081  0.00  0.00    +0.005 A 
ATOM     24  C   UNL     1       8.774  -0.746  22.114  0.00  0.00    +0.011 A 
ATOM     25  C   UNL     1       9.972  -0.164  22.515  0.00  0.00    +0.039 A 
ATOM     26  C   UNL     1      10.296  -0.106  23.865  0.00  0.00    +0.126 A 
ATOM     27  F   UNL     1      11.461   0.441  24.236  0.00  0.00    -0.205 F 
ATOM     28  C   UNL     1       9.438  -0.604  24.837  0.00  0.00    +0.077 A 
ATOM     29  C   UNL     1       8.245  -1.191  24.433  0.00  0.00    +0.131 A 
ATOM     30  F   UNL     1       7.420  -1.685  25.367  0.00  0.00    -0.205 F 
ENDBRANCH  22  23
ENDBRANCH  19  22
ENDBRANCH   9  18
BRANCH  12  31
ATOM     31  O   UNL     1       8.959  -5.177  27.258  0.00  0.00    -0.502 OA
ATOM     32  H   UNL     1       8.643  -4.786  28.096  0.00  0.00    +0.292 HD
ENDBRANCH  12  31
TORSDOF 4
ENDMDL
MODEL 5
REMARK VINA RESULT:      -8.3      2.116      3.012
REMARK  Name = 
REMARK  5 active torsions:
REMARK  status: ('A' for Active; 'I' for Inactive)
REMARK    1  A    between atoms: C_1  and  C_2
REMARK    2  A    between atoms: C_11  and  O_30
REMARK    3  A    between atoms: C_14  and  C_18
REMARK    4  A    between atoms: N_20  and  C_21
REMARK    5  A    between atoms: C_21  and  C_22
REMARK                            x       y       z     vdW  Elec       q    Type
REMARK                         _______ _______ _______ _____ _____    ______ ____
ROOT
ATOM      1  C   UNL     1       2.118  -4.183  29.617  0.00  0.00    +0.028 C 
ATOM      2  C   UNL     1       3.682  -3.992  29.654  0.00  0.00    +0.078 C 
ATOM      3  N   UNL     1       4.495  -3.904  28.371  0.00  0.00    -0.266 N 
ATOM      4  C   UNL     1       5.668  -4.655  28.085  0.00  0.00    +0.269 C 
ATOM      5  C   UNL     1       6.381  -4.456  26.668  0.00  0.00    +0.151 A 
ATOM      6  N   UNL     1       5.727  -3.554  25.821  0.00  0.00    -0.335 N 
ATOM      7  C   UNL     1       5.231  -2.370  26.490  0.00  0.00    +0.173 C 
ATOM      8  C   UNL     1       6.150  -3.335  24.532  0.00  0.00    +0.103 A 
ATOM      9  C   UNL     1       7.279  -3.760  23.947  0.00  0.00    +0.103 A 
ATOM     10  C   UNL     1       8.078  -4.672  24.826  0.00  0.00    +0.236 A 
ATOM     11  O   UNL     1       9.158  -5.141  24.467  0.00  0.00    -0.283 OA
ATOM     12  C   UNL     1       7.537  -5.034  26.237  0.00  0.00    +0.194 A 
ATOM     13  O   UNL     1       6.189  -5.476  28.862  0.00  0.00    -0.268 OA
ATOM     14  C   UNL     1       4.232  -2.713  27.565  0.00  0.00    +0.228 C 
ATOM     15  O   UNL     1       4.327  -1.546  28.383  0.00  0.00    -0.357 OA
ATOM     16  C   UNL     1       3.415  -1.546  29.448  0.00  0.00    +0.164 C 
ATOM     17  C   UNL     1       3.813  -2.659  30.415  0.00  0.00    +0.050 C 
ENDROOT
BRANCH   9  18
ATOM     18  C   UNL     1       7.488  -3.081  22.619  0.00  0.00    +0.250 C 
ATOM     19  N   UNL     1       8.571  -2.358  22.264  0.00  0.00    -0.307 N 
ATOM     20  H   UNL     1       8.475  -1.911  21.356  0.00  0.00    +0.149 HD
ATOM     21  O   UNL     1       6.612  -3.144  21.736  0.00  0.00    -0.270 OA
BRANCH  19  22
ATOM     22  C   UNL     1       9.684  -2.015  23.089  0.00  0.00    +0.142 C 
BRANCH  22  23
ATOM     23  C   UNL     1       9.960  -0.547  23.138  0.00  0.00    +0.005 A 
ATOM     24  C   UNL     1      10.297   0.073  24.355  0.00  0.00    +0.011 A 
ATOM     25  C   UNL     1      10.426   1.458  24.406  0.00  0.00    +0.039 A 
ATOM     26  C   UNL     1      10.245   2.213  23.254  0.00  0.00    +0.126 A 
ATOM     27  F   UNL     1      10.354   3.546  23.322  0.00  0.00    -0.205 F 
ATOM     28  C   UNL     1       9.953   1.614  22.036  0.00  0.00    +0.077 A 
ATOM     29  C   UNL     1       9.819   0.232  21.988  0.00  0.00    +0.131 A 
ATOM     30  F   UNL     1       9.525  -0.348  20.817  0.00  0.00    -0.205 F 
ENDBRANCH  22  23
ENDBRANCH  19  22
ENDBRANCH   9  18
BRANCH  12  31
ATOM     31  O   UNL     1       8.337  -5.889  26.975  0.00  0.00    -0.502 OA
ATOM     32  H   UNL     1       8.405  -6.748  26.514  0.00  0.00    +0.292 HD
ENDBRANCH  12  31
TORSDOF 4
ENDMDL
MODEL 6
REMARK VINA RESULT:      -8.2      2.031      3.145
REMARK  Name = 
REMARK  5 active torsions:
REMARK  status: ('A' for Active; 'I' for Inactive)
REMARK    1  A    between atoms: C_1  and  C_2
REMARK    2  A    between atoms: C_11  and  O_30
REMARK    3  A    between atoms: C_14  and  C_18
REMARK    4  A    between atoms: N_20  and  C_21
REMARK    5  A    between atoms: C_21  and  C_22
REMARK                            x       y       z     vdW  Elec       q    Type
REMARK                         _______ _______ _______ _____ _____    ______ ____
ROOT
ATOM      1  C   UNL     1       1.231  -7.032  25.576  0.00  0.00    +0.028 C 
ATOM      2  C   UNL     1       1.590  -5.505  25.420  0.00  0.00    +0.078 C 
ATOM      3  N   UNL     1       3.036  -5.042  25.328  0.00  0.00    -0.266 N 
ATOM      4  C   UNL     1       3.618  -3.999  26.100  0.00  0.00    +0.269 C 
ATOM      5  C   UNL     1       5.168  -3.664  25.893  0.00  0.00    +0.151 A 
ATOM      6  N   UNL     1       5.811  -4.487  24.962  0.00  0.00    -0.335 N 
ATOM      7  C   UNL     1       5.025  -4.766  23.779  0.00  0.00    +0.173 C 
ATOM      8  C   UNL     1       7.163  -4.398  24.731  0.00  0.00    +0.103 A 
ATOM      9  C   UNL     1       8.019  -3.467  25.170  0.00  0.00    +0.103 A 
ATOM     10  C   UNL     1       7.382  -2.495  26.115  0.00  0.00    +0.236 A 
ATOM     11  O   UNL     1       8.008  -1.554  26.602  0.00  0.00    -0.283 OA
ATOM     12  C   UNL     1       5.884  -2.670  26.489  0.00  0.00    +0.194 A 
ATOM     13  O   UNL     1       3.008  -3.320  26.946  0.00  0.00    -0.268 OA
ATOM     14  C   UNL     1       3.735  -5.469  24.118  0.00  0.00    +0.228 C 
ATOM     15  O   UNL     1       2.955  -5.139  22.968  0.00  0.00    -0.357 OA
ATOM     16  C   UNL     1       1.695  -5.752  22.966  0.00  0.00    +0.164 C 
ATOM     17  C   UNL     1       0.872  -5.151  24.104  0.00  0.00    +0.050 C 
ENDROOT
BRANCH   9  18
ATOM     18  C   UNL     1       9.350  -3.583  24.473  0.00  0.00    +0.250 C 
ATOM     19  N   UNL     1       9.790  -2.788  23.475  0.00  0.00    -0.307 N 
ATOM     20  H   UNL     1      10.678  -3.090  23.084  0.00  0.00    +0.149 HD
ATOM     21  O   UNL     1      10.150  -4.483  24.791  0.00  0.00    -0.270 OA
BRANCH  19  22
ATOM     22  C   UNL     1       9.065  -1.746  22.822  0.00  0.00    +0.142 C 
BRANCH  22  23
ATOM     23  C   UNL     1       9.674  -0.393  23.001  0.00  0.00    +0.005 A 
ATOM     24  C   UNL     1      10.227  -0.021  24.240  0.00  0.00    +0.011 A 
ATOM     25  C   UNL     1      10.673   1.284  24.427  0.00  0.00    +0.039 A 
ATOM     26  C   UNL     1      10.593   2.199  23.384  0.00  0.00    +0.126 A 
ATOM     27  F   UNL     1      11.011   3.456  23.583  0.00  0.00    -0.205 F 
ATOM     28  C   UNL     1      10.090   1.837  22.141  0.00  0.00    +0.077 A 
ATOM     29  C   UNL     1       9.638   0.536  21.960  0.00  0.00    +0.131 A 
ATOM     30  F   UNL     1       9.139   0.186  20.766  0.00  0.00    -0.205 F 
ENDBRANCH  22  23
ENDBRANCH  19  22
ENDBRANCH   9  18
BRANCH  12  31
ATOM     31  O   UNL     1       5.382  -1.731  27.375  0.00  0.00    -0.502 OA
ATOM     32  H   UNL     1       4.523  -1.402  27.045  0.00  0.00    +0.292 HD
ENDBRANCH  12  31
TORSDOF 4
ENDMDL
MODEL 7
REMARK VINA RESULT:      -8.1      2.542      4.125
REMARK  Name = 
REMARK  5 active torsions:
REMARK  status: ('A' for Active; 'I' for Inactive)
REMARK    1  A    between atoms: C_1  and  C_2
REMARK    2  A    between atoms: C_11  and  O_30
REMARK    3  A    between atoms: C_14  and  C_18
REMARK    4  A    between atoms: N_20  and  C_21
REMARK    5  A    between atoms: C_21  and  C_22
REMARK                            x       y       z     vdW  Elec       q    Type
REMARK                         _______ _______ _______ _____ _____    ______ ____
ROOT
ATOM      1  C   UNL     1       4.083  -7.162  25.356  0.00  0.00    +0.028 C 
ATOM      2  C   UNL     1       3.962  -5.593  25.454  0.00  0.00    +0.078 C 
ATOM      3  N   UNL     1       5.091  -4.687  24.986  0.00  0.00    -0.266 N 
ATOM      4  C   UNL     1       5.656  -3.619  25.736  0.00  0.00    +0.269 C 
ATOM      5  C   UNL     1       6.861  -2.785  25.096  0.00  0.00    +0.151 A 
ATOM      6  N   UNL     1       7.263  -3.237  23.835  0.00  0.00    -0.335 N 
ATOM      7  C   UNL     1       6.167  -3.601  22.962  0.00  0.00    +0.173 C 
ATOM      8  C   UNL     1       8.345  -2.696  23.183  0.00  0.00    +0.103 A 
ATOM      9  C   UNL     1       9.048  -1.603  23.511  0.00  0.00    +0.103 A 
ATOM     10  C   UNL     1       8.620  -1.010  24.818  0.00  0.00    +0.236 A 
ATOM     11  O   UNL     1       9.136   0.012  25.270  0.00  0.00    -0.283 OA
ATOM     12  C   UNL     1       7.486  -1.699  25.629  0.00  0.00    +0.194 A 
ATOM     13  O   UNL     1       5.285  -3.281  26.875  0.00  0.00    -0.268 OA
ATOM     14  C   UNL     1       5.334  -4.714  23.545  0.00  0.00    +0.228 C 
ATOM     15  O   UNL     1       4.107  -4.508  22.844  0.00  0.00    -0.357 OA
ATOM     16  C   UNL     1       3.142  -5.484  23.128  0.00  0.00    +0.164 C 
ATOM     17  C   UNL     1       2.719  -5.323  24.586  0.00  0.00    +0.050 C 
ENDROOT
BRANCH   9  18
ATOM     18  C   UNL     1       9.976  -1.202  22.394  0.00  0.00    +0.250 C 
ATOM     19  N   UNL     1       9.811  -0.145  21.572  0.00  0.00    -0.307 N 
ATOM     20  H   UNL     1      10.504  -0.102  20.829  0.00  0.00    +0.149 HD
ATOM     21  O   UNL     1      10.994  -1.876  22.151  0.00  0.00    -0.270 OA
BRANCH  19  22
ATOM     22  C   UNL     1       8.696   0.746  21.529  0.00  0.00    +0.142 C 
BRANCH  22  23
ATOM     23  C   UNL     1       8.940   2.040  22.236  0.00  0.00    +0.005 A 
ATOM     24  C   UNL     1      10.175   2.284  22.866  0.00  0.00    +0.011 A 
ATOM     25  C   UNL     1      10.339   3.438  23.626  0.00  0.00    +0.039 A 
ATOM     26  C   UNL     1       9.296   4.349  23.737  0.00  0.00    +0.126 A 
ATOM     27  F   UNL     1       9.462   5.447  24.487  0.00  0.00    -0.205 F 
ATOM     28  C   UNL     1       8.085   4.145  23.088  0.00  0.00    +0.077 A 
ATOM     29  C   UNL     1       7.921   2.989  22.335  0.00  0.00    +0.131 A 
ATOM     30  F   UNL     1       6.750   2.781  21.718  0.00  0.00    -0.205 F 
ENDBRANCH  22  23
ENDBRANCH  19  22
ENDBRANCH   9  18
BRANCH  12  31
ATOM     31  O   UNL     1       7.163  -1.087  26.829  0.00  0.00    -0.502 OA
ATOM     32  H   UNL     1       7.984  -0.879  27.317  0.00  0.00    +0.292 HD
ENDBRANCH  12  31
TORSDOF 4
ENDMDL
MODEL 8
REMARK VINA RESULT:      -8.0      2.220      3.323
REMARK  Name = 
REMARK  5 active torsions:
REMARK  status: ('A' for Active; 'I' for Inactive)
REMARK    1  A    between atoms: C_1  and  C_2
REMARK    2  A    between atoms: C_11  and  O_30
REMARK    3  A    between atoms: C_14  and  C_18
REMARK    4  A    between atoms: N_20  and  C_21
REMARK    5  A    between atoms: C_21  and  C_22
REMARK                            x       y       z     vdW  Elec       q    Type
REMARK                         _______ _______ _______ _____ _____    ______ ____
ROOT
ATOM      1  C   UNL     1       1.639  -6.212  24.416  0.00  0.00    +0.028 C 
ATOM      2  C   UNL     1       2.737  -5.804  25.472  0.00  0.00    +0.078 C 
ATOM      3  N   UNL     1       4.050  -5.171  25.036  0.00  0.00    -0.266 N 
ATOM      4  C   UNL     1       5.345  -5.593  25.445  0.00  0.00    +0.269 C 
ATOM      5  C   UNL     1       6.622  -4.828  24.863  0.00  0.00    +0.151 A 
ATOM      6  N   UNL     1       6.313  -3.809  23.955  0.00  0.00    -0.335 N 
ATOM      7  C   UNL     1       5.170  -3.005  24.337  0.00  0.00    +0.173 C 
ATOM      8  C   UNL     1       7.292  -3.112  23.288  0.00  0.00    +0.103 A 
ATOM      9  C   UNL     1       8.616  -3.139  23.497  0.00  0.00    +0.103 A 
ATOM     10  C   UNL     1       9.020  -4.155  24.520  0.00  0.00    +0.236 A 
ATOM     11  O   UNL     1      10.193  -4.306  24.860  0.00  0.00    -0.283 OA
ATOM     12  C   UNL     1       7.929  -5.044  25.180  0.00  0.00    +0.194 A 
ATOM     13  O   UNL     1       5.567  -6.535  26.229  0.00  0.00    -0.268 OA
ATOM     14  C   UNL     1       3.918  -3.836  24.455  0.00  0.00    +0.228 C 
ATOM     15  O   UNL     1       3.143  -3.007  25.322  0.00  0.00    -0.357 OA
ATOM     16  C   UNL     1       1.851  -3.501  25.544  0.00  0.00    +0.164 C 
ATOM     17  C   UNL     1       1.967  -4.796  26.345  0.00  0.00    +0.050 C 
ENDROOT
BRANCH   9  18
ATOM     18  C   UNL     1       9.305  -2.034  22.739  0.00  0.00    +0.250 C 
ATOM     19  N   UNL     1       9.860  -0.931  23.283  0.00  0.00    -0.307 N 
ATOM     20  H   UNL     1      10.195  -0.267  22.591  0.00  0.00    +0.149 HD
ATOM     21  O   UNL     1       9.386  -2.079  21.497  0.00  0.00    -0.270 OA
BRANCH  19  22
ATOM     22  C   UNL     1       9.832  -0.542  24.657  0.00  0.00    +0.142 C 
BRANCH  22  23
ATOM     23  C   UNL     1       9.175   0.780  24.889  0.00  0.00    +0.005 A 
ATOM     24  C   UNL     1       7.938   0.852  25.555  0.00  0.00    +0.011 A 
ATOM     25  C   UNL     1       7.281   2.076  25.649  0.00  0.00    +0.039 A 
ATOM     26  C   UNL     1       7.861   3.217  25.109  0.00  0.00    +0.126 A 
ATOM     27  F   UNL     1       7.210   4.384  25.191  0.00  0.00    -0.205 F 
ATOM     28  C   UNL     1       9.101   3.171  24.485  0.00  0.00    +0.077 A 
ATOM     29  C   UNL     1       9.752   1.948  24.386  0.00  0.00    +0.131 A 
ATOM     30  F   UNL     1      10.943   1.897  23.774  0.00  0.00    -0.205 F 
ENDBRANCH  22  23
ENDBRANCH  19  22
ENDBRANCH   9  18
BRANCH  12  31
ATOM     31  O   UNL     1       8.395  -5.961  26.107  0.00  0.00    -0.502 OA
ATOM     32  H   UNL     1       8.869  -5.489  26.819  0.00  0.00    +0.292 HD
ENDBRANCH  12  31
TORSDOF 4
ENDMDL
MODEL 9
REMARK VINA RESULT:      -8.0      3.875      8.217
REMARK  Name = 
REMARK  5 active torsions:
REMARK  status: ('A' for Active; 'I' for Inactive)
REMARK    1  A    between atoms: C_1  and  C_2
REMARK    2  A    between atoms: C_11  and  O_30
REMARK    3  A    between atoms: C_14  and  C_18
REMARK    4  A    between atoms: N_20  and  C_21
REMARK    5  A    between atoms: C_21  and  C_22
REMARK                            x       y       z     vdW  Elec       q    Type
REMARK                         _______ _______ _______ _____ _____    ______ ____
ROOT
ATOM      1  C   UNL     1       8.303   2.806  24.061  0.00  0.00    +0.028 C 
ATOM      2  C   UNL     1       9.208   1.582  24.468  0.00  0.00    +0.078 C 
ATOM      3  N   UNL     1       8.748   0.151  24.235  0.00  0.00    -0.266 N 
ATOM      4  C   UNL     1       8.761  -0.888  25.206  0.00  0.00    +0.269 C 
ATOM      5  C   UNL     1       8.211  -2.332  24.793  0.00  0.00    +0.151 A 
ATOM      6  N   UNL     1       7.727  -2.406  23.482  0.00  0.00    -0.335 N 
ATOM      7  C   UNL     1       8.539  -1.700  22.514  0.00  0.00    +0.173 C 
ATOM      8  C   UNL     1       7.132  -3.544  22.994  0.00  0.00    +0.103 A 
ATOM      9  C   UNL     1       7.072  -4.757  23.562  0.00  0.00    +0.103 A 
ATOM     10  C   UNL     1       7.646  -4.777  24.945  0.00  0.00    +0.236 A 
ATOM     11  O   UNL     1       7.701  -5.809  25.613  0.00  0.00    -0.283 OA
ATOM     12  C   UNL     1       8.199  -3.459  25.557  0.00  0.00    +0.194 A 
ATOM     13  O   UNL     1       9.169  -0.759  26.375  0.00  0.00    -0.268 OA
ATOM     14  C   UNL     1       8.632  -0.229  22.829  0.00  0.00    +0.228 C 
ATOM     15  O   UNL     1       9.837   0.103  22.138  0.00  0.00    -0.357 OA
ATOM     16  C   UNL     1      10.136   1.472  22.183  0.00  0.00    +0.164 C 
ATOM     17  C   UNL     1      10.473   1.838  23.627  0.00  0.00    +0.050 C 
ENDROOT
BRANCH   9  18
ATOM     18  C   UNL     1       6.569  -5.787  22.585  0.00  0.00    +0.250 C 
ATOM     19  N   UNL     1       5.532  -6.626  22.786  0.00  0.00    -0.307 N 
ATOM     20  H   UNL     1       5.412  -7.304  22.038  0.00  0.00    +0.149 HD
ATOM     21  O   UNL     1       7.131  -5.935  21.483  0.00  0.00    -0.270 OA
BRANCH  19  22
ATOM     22  C   UNL     1       4.764  -6.773  23.981  0.00  0.00    +0.142 C 
BRANCH  22  23
ATOM     23  C   UNL     1       3.651  -5.783  24.099  0.00  0.00    +0.005 A 
ATOM     24  C   UNL     1       3.777  -4.670  24.951  0.00  0.00    +0.011 A 
ATOM     25  C   UNL     1       2.685  -3.829  25.146  0.00  0.00    +0.039 A 
ATOM     26  C   UNL     1       1.491  -4.080  24.482  0.00  0.00    +0.126 A 
ATOM     27  F   UNL     1       0.443  -3.273  24.693  0.00  0.00    -0.205 F 
ATOM     28  C   UNL     1       1.362  -5.149  23.605  0.00  0.00    +0.077 A 
ATOM     29  C   UNL     1       2.451  -5.991  23.417  0.00  0.00    +0.131 A 
ATOM     30  F   UNL     1       2.326  -7.032  22.582  0.00  0.00    -0.205 F 
ENDBRANCH  22  23
ENDBRANCH  19  22
ENDBRANCH   9  18
BRANCH  12  31
ATOM     31  O   UNL     1       8.702  -3.571  26.843  0.00  0.00    -0.502 OA
ATOM     32  H   UNL     1       7.964  -3.535  27.483  0.00  0.00    +0.292 HD
ENDBRANCH  12  31
TORSDOF 4
ENDMDL
