MODEL 1
REMARK VINA RESULT:      -6.3      0.000      0.000
REMARK  Name = 
REMARK  3 active torsions:
REMARK  status: ('A' for Active; 'I' for Inactive)
REMARK    1  A    between atoms: C_3  and  C_4
REMARK    2  A    between atoms: C_5  and  C_6
REMARK    3  A    between atoms: C_6  and  C_18
REMARK                            x       y       z     vdW  Elec       q    Type
REMARK                         _______ _______ _______ _____ _____    ______ ____
ROOT
ATOM      1  C   UNL     1       8.526   2.502  23.525  0.00  0.00    +0.293 C 
ATOM      2  O   UNL     1       7.680   3.448  24.251  0.00  0.00    -0.441 OA
ATOM      3  C   UNL     1       7.555   3.401  25.587  0.00  0.00    +0.234 C 
ATOM      4  S   UNL     1       7.044   4.769  26.365  0.00  0.00    +0.006 S 
ATOM      5  N   UNL     1       7.787   2.223  26.224  0.00  0.00    -0.279 N 
ATOM      6  H   UNL     1       7.595   2.204  27.218  0.00  0.00    +0.156 HD
ATOM      7  C   UNL     1       8.255   1.083  25.583  0.00  0.00    +0.042 A 
ATOM      8  C   UNL     1       8.357  -0.109  26.302  0.00  0.00    +0.025 A 
ATOM      9  C   UNL     1       8.882  -1.245  25.689  0.00  0.00    +0.022 A 
ATOM     10  C   UNL     1       9.325  -1.170  24.373  0.00  0.00    +0.042 A 
ATOM     11 CL   UNL     1      10.010  -2.558  23.624  0.00  0.00    -0.084 Cl
ATOM     12  C   UNL     1       9.226   0.026  23.658  0.00  0.00    +0.030 A 
ATOM     13  C   UNL     1       8.652   1.168  24.250  0.00  0.00    +0.039 A 
ENDROOT
BRANCH   1  14
ATOM     14  C   UNL     1       7.926   2.385  22.079  0.00  0.00    +0.446 C 
ATOM     15  F   UNL     1       7.442   3.572  21.627  0.00  0.00    -0.165 F 
ATOM     16  F   UNL     1       6.889   1.512  21.998  0.00  0.00    -0.165 F 
ATOM     17  F   UNL     1       8.839   1.970  21.164  0.00  0.00    -0.165 F 
ENDBRANCH   1  14
BRANCH   1  19
ATOM     18  C   UNL     1      11.056   3.752  23.454  0.00  0.00    -0.094 C 
ATOM     19  C   UNL     1       9.888   3.175  23.487  0.00  0.00    -0.041 C 
BRANCH  18  21
ATOM     20  C   UNL     1      12.428   5.834  23.852  0.00  0.00    +0.017 C 
ATOM     21  C   UNL     1      12.344   4.381  23.462  0.00  0.00    +0.064 C 
ATOM     22  C   UNL     1      12.648   5.428  22.423  0.00  0.00    +0.017 C 
ENDBRANCH  18  21
ENDBRANCH   1  19
TORSDOF 3
ENDMDL
MODEL 2
REMARK VINA RESULT:      -6.0      5.904      7.296
REMARK  Name = 
REMARK  3 active torsions:
REMARK  status: ('A' for Active; 'I' for Inactive)
REMARK    1  A    between atoms: C_3  and  C_4
REMARK    2  A    between atoms: C_5  and  C_6
REMARK    3  A    between atoms: C_6  and  C_18
REMARK                            x       y       z     vdW  Elec       q    Type
REMARK                         _______ _______ _______ _____ _____    ______ ____
ROOT
ATOM      1  C   UNL     1       7.907  -4.184  24.764  0.00  0.00    +0.293 C 
ATOM      2  O   UNL     1       7.676  -5.240  23.780  0.00  0.00    -0.441 OA
ATOM      3  C   UNL     1       6.620  -5.211  22.950  0.00  0.00    +0.234 C 
ATOM      4  S   UNL     1       6.706  -6.102  21.559  0.00  0.00    +0.006 S 
ATOM      5  N   UNL     1       5.516  -4.511  23.321  0.00  0.00    -0.279 N 
ATOM      6  H   UNL     1       4.711  -4.587  22.713  0.00  0.00    +0.156 HD
ATOM      7  C   UNL     1       5.453  -3.727  24.467  0.00  0.00    +0.042 A 
ATOM      8  C   UNL     1       4.239  -3.136  24.821  0.00  0.00    +0.025 A 
ATOM      9  C   UNL     1       4.175  -2.299  25.934  0.00  0.00    +0.022 A 
ATOM     10  C   UNL     1       5.331  -2.040  26.663  0.00  0.00    +0.042 A 
ATOM     11 CL   UNL     1       5.265  -0.978  28.013  0.00  0.00    -0.084 Cl
ATOM     12  C   UNL     1       6.545  -2.631  26.303  0.00  0.00    +0.030 A 
ATOM     13  C   UNL     1       6.612  -3.517  25.211  0.00  0.00    +0.039 A 
ENDROOT
BRANCH   1  14
ATOM     14  C   UNL     1       8.723  -4.837  25.936  0.00  0.00    +0.446 C 
ATOM     15  F   UNL     1       7.948  -5.634  26.718  0.00  0.00    -0.165 F 
ATOM     16  F   UNL     1       9.276  -3.925  26.776  0.00  0.00    -0.165 F 
ATOM     17  F   UNL     1       9.747  -5.611  25.496  0.00  0.00    -0.165 F 
ENDBRANCH   1  14
BRANCH   1  19
ATOM     18  C   UNL     1       9.488  -2.292  23.387  0.00  0.00    -0.094 C 
ATOM     19  C   UNL     1       8.758  -3.165  24.023  0.00  0.00    -0.041 C 
BRANCH  18  21
ATOM     20  C   UNL     1      10.180   0.103  22.993  0.00  0.00    +0.017 C 
ATOM     21  C   UNL     1      10.294  -1.361  22.655  0.00  0.00    +0.064 C 
ATOM     22  C   UNL     1       9.623  -0.412  21.697  0.00  0.00    +0.017 C 
ENDBRANCH  18  21
ENDBRANCH   1  19
TORSDOF 3
ENDMDL
MODEL 3
REMARK VINA RESULT:      -5.9      5.907      8.353
REMARK  Name = 
REMARK  3 active torsions:
REMARK  status: ('A' for Active; 'I' for Inactive)
REMARK    1  A    between atoms: C_3  and  C_4
REMARK    2  A    between atoms: C_5  and  C_6
REMARK    3  A    between atoms: C_6  and  C_18
REMARK                            x       y       z     vdW  Elec       q    Type
REMARK                         _______ _______ _______ _____ _____    ______ ____
ROOT
ATOM      1  C   UNL     1       8.203  -4.027  25.633  0.00  0.00    +0.293 C 
ATOM      2  O   UNL     1       8.550  -2.747  26.248  0.00  0.00    -0.441 OA
ATOM      3  C   UNL     1       7.835  -1.635  26.012  0.00  0.00    +0.234 C 
ATOM      4  S   UNL     1       7.940  -0.401  27.110  0.00  0.00    +0.006 S 
ATOM      5  N   UNL     1       7.120  -1.550  24.860  0.00  0.00    -0.279 N 
ATOM      6  H   UNL     1       6.668  -0.663  24.676  0.00  0.00    +0.156 HD
ATOM      7  C   UNL     1       6.994  -2.597  23.955  0.00  0.00    +0.042 A 
ATOM      8  C   UNL     1       6.330  -2.377  22.747  0.00  0.00    +0.025 A 
ATOM      9  C   UNL     1       6.144  -3.433  21.857  0.00  0.00    +0.022 A 
ATOM     10  C   UNL     1       6.599  -4.703  22.196  0.00  0.00    +0.042 A 
ATOM     11 CL   UNL     1       6.338  -6.017  21.119  0.00  0.00    -0.084 Cl
ATOM     12  C   UNL     1       7.260  -4.920  23.408  0.00  0.00    +0.030 A 
ATOM     13  C   UNL     1       7.498  -3.851  24.294  0.00  0.00    +0.039 A 
ENDROOT
BRANCH   1  14
ATOM     14  C   UNL     1       9.534  -4.856  25.546  0.00  0.00    +0.446 C 
ATOM     15  F   UNL     1      10.195  -4.889  26.733  0.00  0.00    -0.165 F 
ATOM     16  F   UNL     1      10.419  -4.354  24.647  0.00  0.00    -0.165 F 
ATOM     17  F   UNL     1       9.325  -6.148  25.188  0.00  0.00    -0.165 F 
ENDBRANCH   1  14
BRANCH   1  19
ATOM     18  C   UNL     1       6.413  -5.213  27.467  0.00  0.00    -0.094 C 
ATOM     19  C   UNL     1       7.239  -4.665  26.620  0.00  0.00    -0.041 C 
BRANCH  18  21
ATOM     20  C   UNL     1       5.319  -5.249  29.741  0.00  0.00    +0.017 C 
ATOM     21  C   UNL     1       5.504  -5.850  28.372  0.00  0.00    +0.064 C 
ATOM     22  C   UNL     1       6.056  -6.549  29.587  0.00  0.00    +0.017 C 
ENDBRANCH  18  21
ENDBRANCH   1  19
TORSDOF 3
ENDMDL
MODEL 4
REMARK VINA RESULT:      -5.8      6.320      7.631
REMARK  Name = 
REMARK  3 active torsions:
REMARK  status: ('A' for Active; 'I' for Inactive)
REMARK    1  A    between atoms: C_3  and  C_4
REMARK    2  A    between atoms: C_5  and  C_6
REMARK    3  A    between atoms: C_6  and  C_18
REMARK                            x       y       z     vdW  Elec       q    Type
REMARK                         _______ _______ _______ _____ _____    ______ ____
ROOT
ATOM      1  C   UNL     1       8.014  -3.882  25.222  0.00  0.00    +0.293 C 
ATOM      2  O   UNL     1       9.111  -3.204  24.534  0.00  0.00    -0.441 OA
ATOM      3  C   UNL     1       8.964  -2.700  23.298  0.00  0.00    +0.234 C 
ATOM      4  S   UNL     1      10.020  -1.522  22.812  0.00  0.00    +0.006 S 
ATOM      5  N   UNL     1       8.006  -3.223  22.488  0.00  0.00    -0.279 N 
ATOM      6  H   UNL     1       7.986  -2.879  21.536  0.00  0.00    +0.156 HD
ATOM      7  C   UNL     1       7.090  -4.182  22.902  0.00  0.00    +0.042 A 
ATOM      8  C   UNL     1       6.216  -4.738  21.967  0.00  0.00    +0.025 A 
ATOM      9  C   UNL     1       5.253  -5.656  22.380  0.00  0.00    +0.022 A 
ATOM     10  C   UNL     1       5.155  -5.987  23.727  0.00  0.00    +0.042 A 
ATOM     11 CL   UNL     1       3.942  -7.089  24.247  0.00  0.00    -0.084 Cl
ATOM     12  C   UNL     1       6.029  -5.425  24.661  0.00  0.00    +0.030 A 
ATOM     13  C   UNL     1       7.038  -4.534  24.250  0.00  0.00    +0.039 A 
ENDROOT
BRANCH   1  14
ATOM     14  C   UNL     1       8.673  -4.887  26.231  0.00  0.00    +0.446 C 
ATOM     15  F   UNL     1       9.749  -4.348  26.863  0.00  0.00    -0.165 F 
ATOM     16  F   UNL     1       9.126  -6.021  25.638  0.00  0.00    -0.165 F 
ATOM     17  F   UNL     1       7.818  -5.288  27.207  0.00  0.00    -0.165 F 
ENDBRANCH   1  14
BRANCH   1  19
ATOM     18  C   UNL     1       6.685  -1.810  26.606  0.00  0.00    -0.094 C 
ATOM     19  C   UNL     1       7.298  -2.767  25.967  0.00  0.00    -0.041 C 
BRANCH  18  21
ATOM     20  C   UNL     1       5.882   0.583  26.567  0.00  0.00    +0.017 C 
ATOM     21  C   UNL     1       6.038  -0.730  27.289  0.00  0.00    +0.064 C 
ATOM     22  C   UNL     1       6.857   0.465  27.704  0.00  0.00    +0.017 C 
ENDBRANCH  18  21
ENDBRANCH   1  19
TORSDOF 3
ENDMDL
MODEL 5
REMARK VINA RESULT:      -5.8      6.263      8.020
REMARK  Name = 
REMARK  3 active torsions:
REMARK  status: ('A' for Active; 'I' for Inactive)
REMARK    1  A    between atoms: C_3  and  C_4
REMARK    2  A    between atoms: C_5  and  C_6
REMARK    3  A    between atoms: C_6  and  C_18
REMARK                            x       y       z     vdW  Elec       q    Type
REMARK                         _______ _______ _______ _____ _____    ______ ____
ROOT
ATOM      1  C   UNL     1       7.578  -4.544  24.837  0.00  0.00    +0.293 C 
ATOM      2  O   UNL     1       7.547  -5.033  23.459  0.00  0.00    -0.441 OA
ATOM      3  C   UNL     1       6.436  -5.567  22.925  0.00  0.00    +0.234 C 
ATOM      4  S   UNL     1       6.309  -5.598  21.276  0.00  0.00    +0.006 S 
ATOM      5  N   UNL     1       5.509  -6.112  23.756  0.00  0.00    -0.279 N 
ATOM      6  H   UNL     1       4.731  -6.583  23.313  0.00  0.00    +0.156 HD
ATOM      7  C   UNL     1       5.589  -6.052  25.142  0.00  0.00    +0.042 A 
ATOM      8  C   UNL     1       4.646  -6.738  25.908  0.00  0.00    +0.025 A 
ATOM      9  C   UNL     1       4.679  -6.638  27.298  0.00  0.00    +0.022 A 
ATOM     10  C   UNL     1       5.637  -5.832  27.905  0.00  0.00    +0.042 A 
ATOM     11 CL   UNL     1       5.657  -5.675  29.616  0.00  0.00    -0.084 Cl
ATOM     12  C   UNL     1       6.577  -5.144  27.133  0.00  0.00    +0.030 A 
ATOM     13  C   UNL     1       6.585  -5.276  25.731  0.00  0.00    +0.039 A 
ENDROOT
BRANCH   1  14
ATOM     14  C   UNL     1       9.068  -4.656  25.317  0.00  0.00    +0.446 C 
ATOM     15  F   UNL     1       9.523  -5.937  25.283  0.00  0.00    -0.165 F 
ATOM     16  F   UNL     1       9.252  -4.236  26.595  0.00  0.00    -0.165 F 
ATOM     17  F   UNL     1       9.922  -3.926  24.555  0.00  0.00    -0.165 F 
ENDBRANCH   1  14
BRANCH   1  19
ATOM     18  C   UNL     1       6.804  -1.837  24.624  0.00  0.00    -0.094 C 
ATOM     19  C   UNL     1       7.161  -3.087  24.723  0.00  0.00    -0.041 C 
BRANCH  18  21
ATOM     20  C   UNL     1       6.917   0.289  23.269  0.00  0.00    +0.017 C 
ATOM     21  C   UNL     1       6.445  -0.457  24.490  0.00  0.00    +0.064 C 
ATOM     22  C   UNL     1       7.521   0.591  24.611  0.00  0.00    +0.017 C 
ENDBRANCH  18  21
ENDBRANCH   1  19
TORSDOF 3
ENDMDL
MODEL 6
REMARK VINA RESULT:      -5.7      4.728      6.789
REMARK  Name = 
REMARK  3 active torsions:
REMARK  status: ('A' for Active; 'I' for Inactive)
REMARK    1  A    between atoms: C_3  and  C_4
REMARK    2  A    between atoms: C_5  and  C_6
REMARK    3  A    between atoms: C_6  and  C_18
REMARK                            x       y       z     vdW  Elec       q    Type
REMARK                         _______ _______ _______ _____ _____    ______ ____
ROOT
ATOM      1  C   UNL     1       8.524  -1.844  23.491  0.00  0.00    +0.293 C 
ATOM      2  O   UNL     1       9.164  -2.686  24.499  0.00  0.00    -0.441 OA
ATOM      3  C   UNL     1       8.600  -2.903  25.699  0.00  0.00    +0.234 C 
ATOM      4  S   UNL     1       9.080  -4.238  26.550  0.00  0.00    +0.006 S 
ATOM      5  N   UNL     1       7.719  -1.987  26.181  0.00  0.00    -0.279 N 
ATOM      6  H   UNL     1       7.384  -2.139  27.124  0.00  0.00    +0.156 HD
ATOM      7  C   UNL     1       7.279  -0.887  25.455  0.00  0.00    +0.042 A 
ATOM      8  C   UNL     1       6.460   0.056  26.077  0.00  0.00    +0.025 A 
ATOM      9  C   UNL     1       5.963   1.132  25.344  0.00  0.00    +0.022 A 
ATOM     10  C   UNL     1       6.269   1.239  23.991  0.00  0.00    +0.042 A 
ATOM     11 CL   UNL     1       5.627   2.543  23.073  0.00  0.00    -0.084 Cl
ATOM     12  C   UNL     1       7.086   0.291  23.371  0.00  0.00    +0.030 A 
ATOM     13  C   UNL     1       7.635  -0.774  24.112  0.00  0.00    +0.039 A 
ENDROOT
BRANCH   1  14
ATOM     14  C   UNL     1       9.676  -1.269  22.592  0.00  0.00    +0.446 C 
ATOM     15  F   UNL     1       9.289  -1.118  21.297  0.00  0.00    -0.165 F 
ATOM     16  F   UNL     1      10.774  -2.066  22.556  0.00  0.00    -0.165 F 
ATOM     17  F   UNL     1      10.108  -0.051  23.007  0.00  0.00    -0.165 F 
ENDBRANCH   1  14
BRANCH   1  19
ATOM     18  C   UNL     1       6.913  -3.636  22.017  0.00  0.00    -0.094 C 
ATOM     19  C   UNL     1       7.657  -2.808  22.697  0.00  0.00    -0.041 C 
BRANCH  18  21
ATOM     20  C   UNL     1       5.449  -5.691  22.080  0.00  0.00    +0.017 C 
ATOM     21  C   UNL     1       6.088  -4.566  21.307  0.00  0.00    +0.064 C 
ATOM     22  C   UNL     1       6.574  -5.981  21.128  0.00  0.00    +0.017 C 
ENDBRANCH  18  21
ENDBRANCH   1  19
TORSDOF 3
ENDMDL
MODEL 7
REMARK VINA RESULT:      -5.5      1.328      1.604
REMARK  Name = 
REMARK  3 active torsions:
REMARK  status: ('A' for Active; 'I' for Inactive)
REMARK    1  A    between atoms: C_3  and  C_4
REMARK    2  A    between atoms: C_5  and  C_6
REMARK    3  A    between atoms: C_6  and  C_18
REMARK                            x       y       z     vdW  Elec       q    Type
REMARK                         _______ _______ _______ _____ _____    ______ ____
ROOT
ATOM      1  C   UNL     1       7.596   2.977  23.956  0.00  0.00    +0.293 C 
ATOM      2  O   UNL     1       6.842   3.345  25.154  0.00  0.00    -0.441 OA
ATOM      3  C   UNL     1       7.197   2.905  26.372  0.00  0.00    +0.234 C 
ATOM      4  S   UNL     1       6.661   3.755  27.687  0.00  0.00    +0.006 S 
ATOM      5  N   UNL     1       7.916   1.756  26.469  0.00  0.00    -0.279 N 
ATOM      6  H   UNL     1       8.086   1.410  27.405  0.00  0.00    +0.156 HD
ATOM      7  C   UNL     1       8.404   1.061  25.370  0.00  0.00    +0.042 A 
ATOM      8  C   UNL     1       9.036  -0.168  25.567  0.00  0.00    +0.025 A 
ATOM      9  C   UNL     1       9.583  -0.847  24.480  0.00  0.00    +0.022 A 
ATOM     10  C   UNL     1       9.518  -0.278  23.213  0.00  0.00    +0.042 A 
ATOM     11 CL   UNL     1      10.226  -1.093  21.875  0.00  0.00    -0.084 Cl
ATOM     12  C   UNL     1       8.888   0.954  23.020  0.00  0.00    +0.030 A 
ATOM     13  C   UNL     1       8.288   1.627  24.101  0.00  0.00    +0.039 A 
ENDROOT
BRANCH   1  14
ATOM     14  C   UNL     1       6.587   3.047  22.755  0.00  0.00    +0.446 C 
ATOM     15  F   UNL     1       5.633   3.997  22.942  0.00  0.00    -0.165 F 
ATOM     16  F   UNL     1       5.914   1.886  22.553  0.00  0.00    -0.165 F 
ATOM     17  F   UNL     1       7.194   3.341  21.577  0.00  0.00    -0.165 F 
ENDBRANCH   1  14
BRANCH   1  19
ATOM     18  C   UNL     1       9.557   4.995  23.727  0.00  0.00    -0.094 C 
ATOM     19  C   UNL     1       8.651   4.063  23.833  0.00  0.00    -0.041 C 
BRANCH  18  21
ATOM     20  C   UNL     1      12.019   5.553  23.755  0.00  0.00    +0.017 C 
ATOM     21  C   UNL     1      10.583   5.990  23.622  0.00  0.00    +0.064 C 
ATOM     22  C   UNL     1      11.374   6.353  24.851  0.00  0.00    +0.017 C 
ENDBRANCH  18  21
ENDBRANCH   1  19
TORSDOF 3
ENDMDL
MODEL 8
REMARK VINA RESULT:      -5.4      3.351      4.867
REMARK  Name = 
REMARK  3 active torsions:
REMARK  status: ('A' for Active; 'I' for Inactive)
REMARK    1  A    between atoms: C_3  and  C_4
REMARK    2  A    between atoms: C_5  and  C_6
REMARK    3  A    between atoms: C_6  and  C_18
REMARK                            x       y       z     vdW  Elec       q    Type
REMARK                         _______ _______ _______ _____ _____    ______ ____
ROOT
ATOM      1  C   UNL     1       8.582   0.356  24.461  0.00  0.00    +0.293 C 
ATOM      2  O   UNL     1       8.050   1.428  23.622  0.00  0.00    -0.441 OA
ATOM      3  C   UNL     1       6.894   1.292  22.952  0.00  0.00    +0.234 C 
ATOM      4  S   UNL     1       6.106   2.669  22.481  0.00  0.00    +0.006 S 
ATOM      5  N   UNL     1       6.465   0.042  22.638  0.00  0.00    -0.279 N 
ATOM      6  H   UNL     1       5.638  -0.017  22.057  0.00  0.00    +0.156 HD
ATOM      7  C   UNL     1       7.098  -1.119  23.066  0.00  0.00    +0.042 A 
ATOM      8  C   UNL     1       6.645  -2.354  22.599  0.00  0.00    +0.025 A 
ATOM      9  C   UNL     1       7.233  -3.528  23.067  0.00  0.00    +0.022 A 
ATOM     10  C   UNL     1       8.246  -3.456  24.017  0.00  0.00    +0.042 A 
ATOM     11 CL   UNL     1       8.947  -4.903  24.625  0.00  0.00    -0.084 Cl
ATOM     12  C   UNL     1       8.694  -2.218  24.484  0.00  0.00    +0.030 A 
ATOM     13  C   UNL     1       8.143  -1.023  23.983  0.00  0.00    +0.039 A 
ENDROOT
BRANCH   1  14
ATOM     14  C   UNL     1      10.140   0.549  24.499  0.00  0.00    +0.446 C 
ATOM     15  F   UNL     1      10.494   1.861  24.479  0.00  0.00    -0.165 F 
ATOM     16  F   UNL     1      10.775  -0.018  23.442  0.00  0.00    -0.165 F 
ATOM     17  F   UNL     1      10.709   0.016  25.610  0.00  0.00    -0.165 F 
ENDBRANCH   1  14
BRANCH   1  19
ATOM     18  C   UNL     1       7.458   0.847  27.005  0.00  0.00    -0.094 C 
ATOM     19  C   UNL     1       7.977   0.621  25.830  0.00  0.00    -0.041 C 
BRANCH  18  21
ATOM     20  C   UNL     1       5.553   1.856  28.319  0.00  0.00    +0.017 C 
ATOM     21  C   UNL     1       6.848   1.087  28.279  0.00  0.00    +0.064 C 
ATOM     22  C   UNL     1       6.818   2.492  28.819  0.00  0.00    +0.017 C 
ENDBRANCH  18  21
ENDBRANCH   1  19
TORSDOF 3
ENDMDL
MODEL 9
REMARK VINA RESULT:      -5.4      4.570      7.092
REMARK  Name = 
REMARK  3 active torsions:
REMARK  status: ('A' for Active; 'I' for Inactive)
REMARK    1  A    between atoms: C_3  and  C_4
REMARK    2  A    between atoms: C_5  and  C_6
REMARK    3  A    between atoms: C_6  and  C_18
REMARK                            x       y       z     vdW  Elec       q    Type
REMARK                         _______ _______ _______ _____ _____    ______ ____
ROOT
ATOM      1  C   UNL     1       7.169  -2.350  25.172  0.00  0.00    +0.293 C 
ATOM      2  O   UNL     1       6.142  -2.251  26.208  0.00  0.00    -0.441 OA
ATOM      3  C   UNL     1       5.091  -1.425  26.082  0.00  0.00    +0.234 C 
ATOM      4  S   UNL     1       3.744  -1.743  26.989  0.00  0.00    +0.006 S 
ATOM      5  N   UNL     1       5.207  -0.338  25.275  0.00  0.00    -0.279 N 
ATOM      6  H   UNL     1       4.428   0.308  25.276  0.00  0.00    +0.156 HD
ATOM      7  C   UNL     1       6.318  -0.087  24.479  0.00  0.00    +0.042 A 
ATOM      8  C   UNL     1       6.391   1.112  23.769  0.00  0.00    +0.025 A 
ATOM      9  C   UNL     1       7.471   1.351  22.921  0.00  0.00    +0.022 A 
ATOM     10  C   UNL     1       8.452   0.376  22.771  0.00  0.00    +0.042 A 
ATOM     11 CL   UNL     1       9.766   0.649  21.697  0.00  0.00    -0.084 Cl
ATOM     12  C   UNL     1       8.374  -0.825  23.481  0.00  0.00    +0.030 A 
ATOM     13  C   UNL     1       7.314  -1.057  24.378  0.00  0.00    +0.039 A 
ENDROOT
BRANCH   1  14
ATOM     14  C   UNL     1       8.488  -2.804  25.892  0.00  0.00    +0.446 C 
ATOM     15  F   UNL     1       9.117  -1.770  26.510  0.00  0.00    -0.165 F 
ATOM     16  F   UNL     1       9.404  -3.337  25.044  0.00  0.00    -0.165 F 
ATOM     17  F   UNL     1       8.268  -3.744  26.847  0.00  0.00    -0.165 F 
ENDBRANCH   1  14
BRANCH   1  19
ATOM     18  C   UNL     1       6.225  -4.383  23.454  0.00  0.00    -0.094 C 
ATOM     19  C   UNL     1       6.660  -3.444  24.247  0.00  0.00    -0.041 C 
BRANCH  18  21
ATOM     20  C   UNL     1       6.771  -6.402  22.041  0.00  0.00    +0.017 C 
ATOM     21  C   UNL     1       5.770  -5.397  22.550  0.00  0.00    +0.064 C 
ATOM     22  C   UNL     1       6.227  -5.352  21.116  0.00  0.00    +0.017 C 
ENDBRANCH  18  21
ENDBRANCH   1  19
TORSDOF 3
ENDMDL
