MODEL 1
REMARK VINA RESULT:      -6.2      0.000      0.000
REMARK  Name = 
REMARK  5 active torsions:
REMARK  status: ('A' for Active; 'I' for Inactive)
REMARK    1  A    between atoms: C_1  and  C_2
REMARK    2  A    between atoms: N_4  and  C_10
REMARK    3  A    between atoms: C_14  and  O_21
REMARK    4  A    between atoms: C_16  and  C_19
REMARK    5  A    between atoms: C_19  and  O_20
REMARK                            x       y       z     vdW  Elec       q    Type
REMARK                         _______ _______ _______ _____ _____    ______ ____
ROOT
ATOM      1  C   UNL     1       9.821  -2.273  23.570  0.00  0.00    +0.247 C 
ATOM      2  O   UNL     1      10.204  -1.582  22.367  0.00  0.00    -0.347 OA
ATOM      3  C   UNL     1      10.144  -0.159  22.599  0.00  0.00    +0.177 C 
ATOM      4  C   UNL     1       9.461   0.048  23.941  0.00  0.00    +0.183 C 
ATOM      5  C   UNL     1       9.821  -1.216  24.685  0.00  0.00    +0.244 C 
ATOM      6  F   UNL     1       8.903  -1.421  25.658  0.00  0.00    -0.238 F 
ENDROOT
BRANCH   1  15
ATOM      7  C   UNL     1       5.931  -1.610  24.125  0.00  0.00    +0.019 C 
ATOM      8  C   UNL     1       6.159  -2.566  22.955  0.00  0.00    +0.090 C 
ATOM      9  C   UNL     1       5.949  -3.995  23.412  0.00  0.00    +0.225 C 
ATOM     10  O   UNL     1       4.828  -4.493  23.536  0.00  0.00    -0.275 OA
ATOM     11  N   UNL     1       7.081  -4.685  23.757  0.00  0.00    -0.240 N 
ATOM     12  H   UNL     1       6.927  -5.606  24.160  0.00  0.00    +0.159 HD
ATOM     13  C   UNL     1       8.350  -4.184  23.893  0.00  0.00    +0.310 C 
ATOM     14  O   UNL     1       9.236  -4.839  24.436  0.00  0.00    -0.252 OA
ATOM     15  N   UNL     1       8.531  -2.920  23.369  0.00  0.00    -0.256 N 
ATOM     16  C   UNL     1       7.567  -2.451  22.383  0.00  0.00    +0.124 C 
ENDBRANCH   1  15
BRANCH   4  17
ATOM     17  O   UNL     1       9.939   1.222  24.591  0.00  0.00    -0.386 OA
ATOM     18  H   UNL     1      10.914   1.210  24.528  0.00  0.00    +0.210 HD
ENDBRANCH   4  17
BRANCH   3  19
ATOM     19  C   UNL     1       9.401   0.544  21.459  0.00  0.00    +0.190 C 
BRANCH  19  20
ATOM     20  O   UNL     1       9.668   1.940  21.435  0.00  0.00    -0.392 OA
ATOM     21  H   UNL     1      10.042   2.187  22.300  0.00  0.00    +0.210 HD
ENDBRANCH  19  20
ENDBRANCH   3  19
TORSDOF 4
ENDMDL
MODEL 2
REMARK VINA RESULT:      -6.0      2.130      3.512
REMARK  Name = 
REMARK  5 active torsions:
REMARK  status: ('A' for Active; 'I' for Inactive)
REMARK    1  A    between atoms: C_1  and  C_2
REMARK    2  A    between atoms: N_4  and  C_10
REMARK    3  A    between atoms: C_14  and  O_21
REMARK    4  A    between atoms: C_16  and  C_19
REMARK    5  A    between atoms: C_19  and  O_20
REMARK                            x       y       z     vdW  Elec       q    Type
REMARK                         _______ _______ _______ _____ _____    ______ ____
ROOT
ATOM      1  C   UNL     1       7.313  -1.789  23.731  0.00  0.00    +0.247 C 
ATOM      2  O   UNL     1       8.001  -0.599  24.160  0.00  0.00    -0.347 OA
ATOM      3  C   UNL     1       9.253  -0.496  23.451  0.00  0.00    +0.177 C 
ATOM      4  C   UNL     1       9.463  -1.810  22.717  0.00  0.00    +0.183 C 
ATOM      5  C   UNL     1       8.046  -2.273  22.472  0.00  0.00    +0.244 C 
ATOM      6  F   UNL     1       8.054  -3.616  22.304  0.00  0.00    -0.238 F 
ENDROOT
BRANCH   1  15
ATOM      7  C   UNL     1       9.557  -4.690  25.290  0.00  0.00    +0.019 C 
ATOM      8  C   UNL     1       8.665  -4.059  26.357  0.00  0.00    +0.090 C 
ATOM      9  C   UNL     1       7.443  -4.926  26.581  0.00  0.00    +0.225 C 
ATOM     10  O   UNL     1       7.471  -5.944  27.278  0.00  0.00    -0.275 OA
ATOM     11  N   UNL     1       6.314  -4.556  25.900  0.00  0.00    -0.240 N 
ATOM     12  H   UNL     1       5.528  -5.198  25.973  0.00  0.00    +0.159 HD
ATOM     13  C   UNL     1       6.209  -3.601  24.922  0.00  0.00    +0.310 C 
ATOM     14  O   UNL     1       5.206  -3.522  24.218  0.00  0.00    -0.252 OA
ATOM     15  N   UNL     1       7.299  -2.760  24.818  0.00  0.00    -0.256 N 
ATOM     16  C   UNL     1       8.192  -2.664  25.964  0.00  0.00    +0.124 C 
ENDBRANCH   1  15
BRANCH   4  17
ATOM     17  O   UNL     1      10.195  -1.619  21.509  0.00  0.00    -0.386 OA
ATOM     18  H   UNL     1       9.933  -2.335  20.898  0.00  0.00    +0.210 HD
ENDBRANCH   4  17
BRANCH   3  19
ATOM     19  C   UNL     1      10.399  -0.185  24.418  0.00  0.00    +0.190 C 
BRANCH  19  20
ATOM     20  O   UNL     1       9.935   0.462  25.597  0.00  0.00    -0.392 OA
ATOM     21  H   UNL     1      10.714   0.764  26.098  0.00  0.00    +0.210 HD
ENDBRANCH  19  20
ENDBRANCH   3  19
TORSDOF 4
ENDMDL
MODEL 3
REMARK VINA RESULT:      -5.7      2.099      5.038
REMARK  Name = 
REMARK  5 active torsions:
REMARK  status: ('A' for Active; 'I' for Inactive)
REMARK    1  A    between atoms: C_1  and  C_2
REMARK    2  A    between atoms: N_4  and  C_10
REMARK    3  A    between atoms: C_14  and  O_21
REMARK    4  A    between atoms: C_16  and  C_19
REMARK    5  A    between atoms: C_19  and  O_20
REMARK                            x       y       z     vdW  Elec       q    Type
REMARK                         _______ _______ _______ _____ _____    ______ ____
ROOT
ATOM      1  C   UNL     1       7.569  -2.533  25.233  0.00  0.00    +0.247 C 
ATOM      2  O   UNL     1       6.291  -2.517  24.571  0.00  0.00    -0.347 OA
ATOM      3  C   UNL     1       6.285  -3.519  23.532  0.00  0.00    +0.177 C 
ATOM      4  C   UNL     1       7.712  -4.022  23.385  0.00  0.00    +0.183 C 
ATOM      5  C   UNL     1       8.270  -3.820  24.774  0.00  0.00    +0.244 C 
ATOM      6  F   UNL     1       9.618  -3.730  24.689  0.00  0.00    -0.238 F 
ENDROOT
BRANCH   1  15
ATOM      7  C   UNL     1      10.299  -1.176  22.668  0.00  0.00    +0.019 C 
ATOM      8  C   UNL     1       9.388  -0.045  23.142  0.00  0.00    +0.090 C 
ATOM      9  C   UNL     1      10.074   0.741  24.240  0.00  0.00    +0.225 C 
ATOM     10  O   UNL     1      10.932   1.596  24.007  0.00  0.00    -0.275 OA
ATOM     11  N   UNL     1       9.743   0.391  25.522  0.00  0.00    -0.240 N 
ATOM     12  H   UNL     1      10.281   0.848  26.254  0.00  0.00    +0.159 HD
ATOM     13  C   UNL     1       8.996  -0.687  25.923  0.00  0.00    +0.310 C 
ATOM     14  O   UNL     1       8.965  -1.035  27.100  0.00  0.00    -0.252 OA
ATOM     15  N   UNL     1       8.299  -1.314  24.910  0.00  0.00    -0.256 N 
ATOM     16  C   UNL     1       8.061  -0.563  23.685  0.00  0.00    +0.124 C 
ENDBRANCH   1  15
BRANCH   4  17
ATOM     17  O   UNL     1       7.742  -5.386  22.974  0.00  0.00    -0.386 OA
ATOM     18  H   UNL     1       6.825  -5.641  22.754  0.00  0.00    +0.210 HD
ENDBRANCH   4  17
BRANCH   3  19
ATOM     19  C   UNL     1       5.740  -2.939  22.224  0.00  0.00    +0.190 C 
BRANCH  19  20
ATOM     20  O   UNL     1       5.704  -3.912  21.188  0.00  0.00    -0.392 OA
ATOM     21  H   UNL     1       5.156  -3.558  20.464  0.00  0.00    +0.210 HD
ENDBRANCH  19  20
ENDBRANCH   3  19
TORSDOF 4
ENDMDL
MODEL 4
REMARK VINA RESULT:      -5.7      1.656      2.095
REMARK  Name = 
REMARK  5 active torsions:
REMARK  status: ('A' for Active; 'I' for Inactive)
REMARK    1  A    between atoms: C_1  and  C_2
REMARK    2  A    between atoms: N_4  and  C_10
REMARK    3  A    between atoms: C_14  and  O_21
REMARK    4  A    between atoms: C_16  and  C_19
REMARK    5  A    between atoms: C_19  and  O_20
REMARK                            x       y       z     vdW  Elec       q    Type
REMARK                         _______ _______ _______ _____ _____    ______ ____
ROOT
ATOM      1  C   UNL     1       8.784  -3.757  24.953  0.00  0.00    +0.247 C 
ATOM      2  O   UNL     1       9.847  -3.450  24.033  0.00  0.00    -0.347 OA
ATOM      3  C   UNL     1       9.956  -2.018  23.897  0.00  0.00    +0.177 C 
ATOM      4  C   UNL     1       8.747  -1.408  24.586  0.00  0.00    +0.183 C 
ATOM      5  C   UNL     1       8.430  -2.434  25.648  0.00  0.00    +0.244 C 
ATOM      6  F   UNL     1       7.127  -2.309  25.994  0.00  0.00    -0.238 F 
ENDROOT
BRANCH   1  15
ATOM      7  C   UNL     1       5.697  -2.733  22.651  0.00  0.00    +0.019 C 
ATOM      8  C   UNL     1       6.176  -4.145  22.323  0.00  0.00    +0.090 C 
ATOM      9  C   UNL     1       5.286  -5.161  23.011  0.00  0.00    +0.225 C 
ATOM     10  O   UNL     1       4.182  -5.485  22.566  0.00  0.00    -0.275 OA
ATOM     11  N   UNL     1       5.745  -5.646  24.207  0.00  0.00    -0.240 N 
ATOM     12  H   UNL     1       5.099  -6.246  24.713  0.00  0.00    +0.159 HD
ATOM     13  C   UNL     1       6.826  -5.201  24.924  0.00  0.00    +0.310 C 
ATOM     14  O   UNL     1       7.001  -5.548  26.088  0.00  0.00    -0.252 OA
ATOM     15  N   UNL     1       7.673  -4.361  24.229  0.00  0.00    -0.256 N 
ATOM     16  C   UNL     1       7.611  -4.388  22.774  0.00  0.00    +0.124 C 
ENDBRANCH   1  15
BRANCH   4  17
ATOM     17  O   UNL     1       9.052  -0.128  25.133  0.00  0.00    -0.386 OA
ATOM     18  H   UNL     1       8.721  -0.121  26.053  0.00  0.00    +0.210 HD
ENDBRANCH   4  17
BRANCH   3  19
ATOM     19  C   UNL     1      10.042  -1.619  22.421  0.00  0.00    +0.190 C 
BRANCH  19  20
ATOM     20  O   UNL     1       8.965  -0.773  22.039  0.00  0.00    -0.392 OA
ATOM     21  H   UNL     1       9.289  -0.173  21.342  0.00  0.00    +0.210 HD
ENDBRANCH  19  20
ENDBRANCH   3  19
TORSDOF 4
ENDMDL
MODEL 5
REMARK VINA RESULT:      -5.6      2.050      2.720
REMARK  Name = 
REMARK  5 active torsions:
REMARK  status: ('A' for Active; 'I' for Inactive)
REMARK    1  A    between atoms: C_1  and  C_2
REMARK    2  A    between atoms: N_4  and  C_10
REMARK    3  A    between atoms: C_14  and  O_21
REMARK    4  A    between atoms: C_16  and  C_19
REMARK    5  A    between atoms: C_19  and  O_20
REMARK                            x       y       z     vdW  Elec       q    Type
REMARK                         _______ _______ _______ _____ _____    ______ ____
ROOT
ATOM      1  C   UNL     1       8.211  -2.189  22.915  0.00  0.00    +0.247 C 
ATOM      2  O   UNL     1       7.551  -0.914  23.019  0.00  0.00    -0.347 OA
ATOM      3  C   UNL     1       8.437   0.026  23.662  0.00  0.00    +0.177 C 
ATOM      4  C   UNL     1       9.619  -0.765  24.197  0.00  0.00    +0.183 C 
ATOM      5  C   UNL     1       9.690  -1.929  23.236  0.00  0.00    +0.244 C 
ATOM      6  F   UNL     1      10.324  -2.956  23.849  0.00  0.00    -0.238 F 
ENDROOT
BRANCH   1  15
ATOM      7  C   UNL     1       8.714  -3.857  26.498  0.00  0.00    +0.019 C 
ATOM      8  C   UNL     1       7.233  -3.792  26.131  0.00  0.00    +0.090 C 
ATOM      9  C   UNL     1       6.776  -5.137  25.603  0.00  0.00    +0.225 C 
ATOM     10  O   UNL     1       6.499  -6.082  26.347  0.00  0.00    -0.275 OA
ATOM     11  N   UNL     1       6.761  -5.271  24.241  0.00  0.00    -0.240 N 
ATOM     12  H   UNL     1       6.554  -6.204  23.895  0.00  0.00    +0.159 HD
ATOM     13  C   UNL     1       7.264  -4.394  23.314  0.00  0.00    +0.310 C 
ATOM     14  O   UNL     1       7.410  -4.726  22.141  0.00  0.00    -0.252 OA
ATOM     15  N   UNL     1       7.569  -3.142  23.810  0.00  0.00    -0.256 N 
ATOM     16  C   UNL     1       6.948  -2.741  25.064  0.00  0.00    +0.124 C 
ENDBRANCH   1  15
BRANCH   4  17
ATOM     17  O   UNL     1      10.809   0.017  24.200  0.00  0.00    -0.386 OA
ATOM     18  H   UNL     1      11.467  -0.455  23.654  0.00  0.00    +0.210 HD
ENDBRANCH   4  17
BRANCH   3  19
ATOM     19  C   UNL     1       7.704   0.790  24.769  0.00  0.00    +0.190 C 
BRANCH  19  20
ATOM     20  O   UNL     1       8.606   1.318  25.733  0.00  0.00    -0.392 OA
ATOM     21  H   UNL     1       9.080   0.571  26.140  0.00  0.00    +0.210 HD
ENDBRANCH  19  20
ENDBRANCH   3  19
TORSDOF 4
ENDMDL
MODEL 6
REMARK VINA RESULT:      -5.6      2.033      5.215
REMARK  Name = 
REMARK  5 active torsions:
REMARK  status: ('A' for Active; 'I' for Inactive)
REMARK    1  A    between atoms: C_1  and  C_2
REMARK    2  A    between atoms: N_4  and  C_10
REMARK    3  A    between atoms: C_14  and  O_21
REMARK    4  A    between atoms: C_16  and  C_19
REMARK    5  A    between atoms: C_19  and  O_20
REMARK                            x       y       z     vdW  Elec       q    Type
REMARK                         _______ _______ _______ _____ _____    ______ ____
ROOT
ATOM      1  C   UNL     1       9.394  -2.518  23.187  0.00  0.00    +0.247 C 
ATOM      2  O   UNL     1       9.984  -3.406  24.153  0.00  0.00    -0.347 OA
ATOM      3  C   UNL     1       8.954  -4.246  24.715  0.00  0.00    +0.177 C 
ATOM      4  C   UNL     1       7.619  -3.692  24.247  0.00  0.00    +0.183 C 
ATOM      5  C   UNL     1       7.979  -3.054  22.926  0.00  0.00    +0.244 C 
ATOM      6  F   UNL     1       7.058  -2.104  22.640  0.00  0.00    -0.238 F 
ENDROOT
BRANCH   1  15
ATOM      7  C   UNL     1       7.188   0.004  25.345  0.00  0.00    +0.019 C 
ATOM      8  C   UNL     1       8.674   0.332  25.474  0.00  0.00    +0.090 C 
ATOM      9  C   UNL     1       9.028   1.481  24.551  0.00  0.00    +0.225 C 
ATOM     10  O   UNL     1       8.794   2.658  24.837  0.00  0.00    -0.275 OA
ATOM     11  N   UNL     1       9.557   1.131  23.337  0.00  0.00    -0.240 N 
ATOM     12  H   UNL     1       9.696   1.897  22.683  0.00  0.00    +0.159 HD
ATOM     13  C   UNL     1       9.648  -0.128  22.803  0.00  0.00    +0.310 C 
ATOM     14  O   UNL     1       9.919  -0.296  21.617  0.00  0.00    -0.252 OA
ATOM     15  N   UNL     1       9.424  -1.154  23.700  0.00  0.00    -0.256 N 
ATOM     16  C   UNL     1       9.561  -0.855  25.118  0.00  0.00    +0.124 C 
ENDBRANCH   1  15
BRANCH   4  17
ATOM     17  O   UNL     1       6.647  -4.725  24.111  0.00  0.00    -0.386 OA
ATOM     18  H   UNL     1       6.647  -5.000  23.173  0.00  0.00    +0.210 HD
ENDBRANCH   4  17
BRANCH   3  19
ATOM     19  C   UNL     1       9.060  -4.285  26.242  0.00  0.00    +0.190 C 
BRANCH  19  20
ATOM     20  O   UNL     1       8.392  -5.415  26.790  0.00  0.00    -0.392 OA
ATOM     21  H   UNL     1       7.566  -5.545  26.290  0.00  0.00    +0.210 HD
ENDBRANCH  19  20
ENDBRANCH   3  19
TORSDOF 4
ENDMDL
MODEL 7
REMARK VINA RESULT:      -5.5      2.254      3.606
REMARK  Name = 
REMARK  5 active torsions:
REMARK  status: ('A' for Active; 'I' for Inactive)
REMARK    1  A    between atoms: C_1  and  C_2
REMARK    2  A    between atoms: N_4  and  C_10
REMARK    3  A    between atoms: C_14  and  O_21
REMARK    4  A    between atoms: C_16  and  C_19
REMARK    5  A    between atoms: C_19  and  O_20
REMARK                            x       y       z     vdW  Elec       q    Type
REMARK                         _______ _______ _______ _____ _____    ______ ____
ROOT
ATOM      1  C   UNL     1       6.343  -2.392  22.969  0.00  0.00    +0.247 C 
ATOM      2  O   UNL     1       6.743  -1.150  23.574  0.00  0.00    -0.347 OA
ATOM      3  C   UNL     1       8.140  -0.918  23.298  0.00  0.00    +0.177 C 
ATOM      4  C   UNL     1       8.695  -2.196  22.690  0.00  0.00    +0.183 C 
ATOM      5  C   UNL     1       7.480  -2.787  22.016  0.00  0.00    +0.244 C 
ATOM      6  F   UNL     1       7.667  -4.120  21.880  0.00  0.00    -0.238 F 
ENDROOT
BRANCH   1  15
ATOM      7  C   UNL     1       8.245  -5.059  25.238  0.00  0.00    +0.019 C 
ATOM      8  C   UNL     1       6.989  -4.545  25.939  0.00  0.00    +0.090 C 
ATOM      9  C   UNL     1       5.861  -5.542  25.767  0.00  0.00    +0.225 C 
ATOM     10  O   UNL     1       5.768  -6.562  26.455  0.00  0.00    -0.275 OA
ATOM     11  N   UNL     1       4.987  -5.285  24.745  0.00  0.00    -0.240 N 
ATOM     12  H   UNL     1       4.294  -6.009  24.569  0.00  0.00    +0.159 HD
ATOM     13  C   UNL     1       5.108  -4.331  23.768  0.00  0.00    +0.310 C 
ATOM     14  O   UNL     1       4.391  -4.349  22.771  0.00  0.00    -0.252 OA
ATOM     15  N   UNL     1       6.075  -3.376  24.010  0.00  0.00    -0.256 N 
ATOM     16  C   UNL     1       6.527  -3.203  25.383  0.00  0.00    +0.124 C 
ENDBRANCH   1  15
BRANCH   4  17
ATOM     17  O   UNL     1       9.751  -1.919  21.775  0.00  0.00    -0.386 OA
ATOM     18  H   UNL     1      10.409  -1.374  22.250  0.00  0.00    +0.210 HD
ENDBRANCH   4  17
BRANCH   3  19
ATOM     19  C   UNL     1       8.885  -0.515  24.574  0.00  0.00    +0.190 C 
BRANCH  19  20
ATOM     20  O   UNL     1      10.292  -0.477  24.376  0.00  0.00    -0.392 OA
ATOM     21  H   UNL     1      10.693  -0.054  25.157  0.00  0.00    +0.210 HD
ENDBRANCH  19  20
ENDBRANCH   3  19
TORSDOF 4
ENDMDL
MODEL 8
REMARK VINA RESULT:      -5.5      2.713      3.594
REMARK  Name = 
REMARK  5 active torsions:
REMARK  status: ('A' for Active; 'I' for Inactive)
REMARK    1  A    between atoms: C_1  and  C_2
REMARK    2  A    between atoms: N_4  and  C_10
REMARK    3  A    between atoms: C_14  and  O_21
REMARK    4  A    between atoms: C_16  and  C_19
REMARK    5  A    between atoms: C_19  and  O_20
REMARK                            x       y       z     vdW  Elec       q    Type
REMARK                         _______ _______ _______ _____ _____    ______ ____
ROOT
ATOM      1  C   UNL     1       6.957  -3.275  22.464  0.00  0.00    +0.247 C 
ATOM      2  O   UNL     1       6.326  -1.996  22.659  0.00  0.00    -0.347 OA
ATOM      3  C   UNL     1       7.006  -1.290  23.719  0.00  0.00    +0.177 C 
ATOM      4  C   UNL     1       7.958  -2.276  24.375  0.00  0.00    +0.183 C 
ATOM      5  C   UNL     1       8.281  -3.218  23.240  0.00  0.00    +0.244 C 
ATOM      6  F   UNL     1       8.682  -4.401  23.762  0.00  0.00    -0.238 F 
ENDROOT
BRANCH   1  15
ATOM      7  C   UNL     1       6.107  -5.431  25.706  0.00  0.00    +0.019 C 
ATOM      8  C   UNL     1       4.880  -5.291  24.808  0.00  0.00    +0.090 C 
ATOM      9  C   UNL     1       4.711  -6.542  23.970  0.00  0.00    +0.225 C 
ATOM     10  O   UNL     1       4.206  -7.575  24.416  0.00  0.00    -0.275 OA
ATOM     11  N   UNL     1       5.226  -6.486  22.702  0.00  0.00    -0.240 N 
ATOM     12  H   UNL     1       5.203  -7.359  22.181  0.00  0.00    +0.159 HD
ATOM     13  C   UNL     1       6.013  -5.498  22.168  0.00  0.00    +0.310 C 
ATOM     14  O   UNL     1       6.610  -5.667  21.109  0.00  0.00    -0.252 OA
ATOM     15  N   UNL     1       6.057  -4.332  22.907  0.00  0.00    -0.256 N 
ATOM     16  C   UNL     1       4.987  -4.098  23.866  0.00  0.00    +0.124 C 
ENDBRANCH   1  15
BRANCH   4  17
ATOM     17  O   UNL     1       9.113  -1.619  24.889  0.00  0.00    -0.386 OA
ATOM     18  H   UNL     1       8.913  -1.362  25.810  0.00  0.00    +0.210 HD
ENDBRANCH   4  17
BRANCH   3  19
ATOM     19  C   UNL     1       5.998  -0.710  24.715  0.00  0.00    +0.190 C 
BRANCH  19  20
ATOM     20  O   UNL     1       5.434   0.509  24.247  0.00  0.00    -0.392 OA
ATOM     21  H   UNL     1       4.604   0.295  23.783  0.00  0.00    +0.210 HD
ENDBRANCH  19  20
ENDBRANCH   3  19
TORSDOF 4
ENDMDL
MODEL 9
REMARK VINA RESULT:      -5.5      1.944      4.969
REMARK  Name = 
REMARK  5 active torsions:
REMARK  status: ('A' for Active; 'I' for Inactive)
REMARK    1  A    between atoms: C_1  and  C_2
REMARK    2  A    between atoms: N_4  and  C_10
REMARK    3  A    between atoms: C_14  and  O_21
REMARK    4  A    between atoms: C_16  and  C_19
REMARK    5  A    between atoms: C_19  and  O_20
REMARK                            x       y       z     vdW  Elec       q    Type
REMARK                         _______ _______ _______ _____ _____    ______ ____
ROOT
ATOM      1  C   UNL     1       7.036  -2.150  25.130  0.00  0.00    +0.247 C 
ATOM      2  O   UNL     1       6.693  -3.457  24.635  0.00  0.00    -0.347 OA
ATOM      3  C   UNL     1       7.606  -4.427  25.190  0.00  0.00    +0.177 C 
ATOM      4  C   UNL     1       8.719  -3.653  25.877  0.00  0.00    +0.183 C 
ATOM      5  C   UNL     1       8.021  -2.378  26.285  0.00  0.00    +0.244 C 
ATOM      6  F   UNL     1       8.951  -1.405  26.435  0.00  0.00    -0.238 F 
ENDROOT
BRANCH   1  15
ATOM      7  C   UNL     1      10.368  -1.722  22.986  0.00  0.00    +0.019 C 
ATOM      8  C   UNL     1       9.143  -1.295  22.180  0.00  0.00    +0.090 C 
ATOM      9  C   UNL     1       9.008   0.214  22.214  0.00  0.00    +0.225 C 
ATOM     10  O   UNL     1       9.680   0.956  21.493  0.00  0.00    -0.275 OA
ATOM     11  N   UNL     1       8.146   0.716  23.152  0.00  0.00    -0.240 N 
ATOM     12  H   UNL     1       8.136   1.729  23.240  0.00  0.00    +0.159 HD
ATOM     13  C   UNL     1       7.524   0.028  24.162  0.00  0.00    +0.310 C 
ATOM     14  O   UNL     1       6.966   0.620  25.082  0.00  0.00    -0.252 OA
ATOM     15  N   UNL     1       7.576  -1.346  24.041  0.00  0.00    -0.256 N 
ATOM     16  C   UNL     1       7.854  -1.900  22.724  0.00  0.00    +0.124 C 
ENDBRANCH   1  15
BRANCH   4  17
ATOM     17  O   UNL     1       9.242  -4.373  26.990  0.00  0.00    -0.386 OA
ATOM     18  H   UNL     1       8.687  -5.170  27.104  0.00  0.00    +0.210 HD
ENDBRANCH   4  17
BRANCH   3  19
ATOM     19  C   UNL     1       8.140  -5.356  24.095  0.00  0.00    +0.190 C 
BRANCH  19  20
ATOM     20  O   UNL     1       9.468  -5.785  24.366  0.00  0.00    -0.392 OA
ATOM     21  H   UNL     1       9.669  -5.566  25.294  0.00  0.00    +0.210 HD
ENDBRANCH  19  20
ENDBRANCH   3  19
TORSDOF 4
ENDMDL
