MODEL 1
REMARK VINA RESULT:      -6.5      0.000      0.000
REMARK  Name = 
REMARK  4 active torsions:
REMARK  status: ('A' for Active; 'I' for Inactive)
REMARK    1  A    between atoms: N_3  and  C_9
REMARK    2  A    between atoms: C_12  and  N_19
REMARK    3  A    between atoms: C_14  and  C_17
REMARK    4  A    between atoms: C_17  and  O_18
REMARK                            x       y       z     vdW  Elec       q    Type
REMARK                         _______ _______ _______ _____ _____    ______ ____
ROOT
ATOM      1  C   UNL     1       8.783  -3.050  25.219  0.00  0.00    +0.212 C 
ATOM      2  O   UNL     1       9.079  -3.904  24.105  0.00  0.00    -0.351 OA
ATOM      3  C   UNL     1       8.294  -5.108  24.238  0.00  0.00    +0.177 C 
ATOM      4  C   UNL     1       7.422  -4.946  25.491  0.00  0.00    +0.226 C 
ATOM      5  C   UNL     1       7.389  -3.442  25.681  0.00  0.00    +0.088 C 
ENDROOT
BRANCH   1  13
ATOM      6  C   UNL     1      10.291  -0.401  23.280  0.00  0.00    +0.115 C 
ATOM      7  C   UNL     1      10.287   0.722  24.280  0.00  0.00    +0.222 C 
ATOM      8  O   UNL     1      10.953   1.743  24.120  0.00  0.00    -0.275 OA
ATOM      9  N   UNL     1       9.582   0.499  25.437  0.00  0.00    -0.240 N 
ATOM     10  H   UNL     1       9.733   1.177  26.166  0.00  0.00    +0.159 HD
ATOM     11  C   UNL     1       9.139  -0.729  25.854  0.00  0.00    +0.310 C 
ATOM     12  O   UNL     1       8.991  -0.964  27.047  0.00  0.00    -0.252 OA
ATOM     13  N   UNL     1       8.943  -1.657  24.853  0.00  0.00    -0.259 N 
ATOM     14  C   UNL     1       9.032  -1.220  23.468  0.00  0.00    +0.121 C 
ENDBRANCH   1  13
BRANCH   4  15
ATOM     15  N   UNL     1       8.110  -5.536  26.660  0.00  0.00    +0.082 NA
ATOM     16  N   UNL     1       7.396  -5.826  27.635  0.00  0.00    -0.014 NA
ATOM     17  N   UNL     1       6.737  -6.102  28.524  0.00  0.00    -0.328 NA
ENDBRANCH   4  15
BRANCH   3  18
ATOM     18  C   UNL     1       7.486  -5.306  22.951  0.00  0.00    +0.189 C 
BRANCH  18  19
ATOM     19  O   UNL     1       7.404  -4.106  22.188  0.00  0.00    -0.392 OA
ATOM     20  H   UNL     1       7.475  -3.373  22.827  0.00  0.00    +0.210 HD
ENDBRANCH  18  19
ENDBRANCH   3  18
TORSDOF 4
ENDMDL
MODEL 2
REMARK VINA RESULT:      -6.3      3.082      3.977
REMARK  Name = 
REMARK  4 active torsions:
REMARK  status: ('A' for Active; 'I' for Inactive)
REMARK    1  A    between atoms: N_3  and  C_9
REMARK    2  A    between atoms: C_12  and  N_19
REMARK    3  A    between atoms: C_14  and  C_17
REMARK    4  A    between atoms: C_17  and  O_18
REMARK                            x       y       z     vdW  Elec       q    Type
REMARK                         _______ _______ _______ _____ _____    ______ ____
ROOT
ATOM      1  C   UNL     1       8.300  -0.830  22.753  0.00  0.00    +0.212 C 
ATOM      2  O   UNL     1       8.189  -1.324  24.095  0.00  0.00    -0.351 OA
ATOM      3  C   UNL     1       7.692  -2.678  24.038  0.00  0.00    +0.177 C 
ATOM      4  C   UNL     1       7.545  -3.046  22.555  0.00  0.00    +0.226 C 
ATOM      5  C   UNL     1       8.471  -2.058  21.874  0.00  0.00    +0.088 C 
ENDROOT
BRANCH   1  13
ATOM      6  C   UNL     1      10.702   1.445  24.204  0.00  0.00    +0.115 C 
ATOM      7  C   UNL     1      10.729   2.532  23.165  0.00  0.00    +0.222 C 
ATOM      8  O   UNL     1      11.224   3.635  23.385  0.00  0.00    -0.275 OA
ATOM      9  N   UNL     1      10.074   2.261  21.989  0.00  0.00    -0.240 N 
ATOM     10  H   UNL     1       9.947   3.052  21.379  0.00  0.00    +0.159 HD
ATOM     11  C   UNL     1       9.190   1.229  21.811  0.00  0.00    +0.310 C 
ATOM     12  O   UNL     1       8.289   1.318  20.985  0.00  0.00    -0.252 OA
ATOM     13  N   UNL     1       9.362   0.152  22.655  0.00  0.00    -0.259 N 
ATOM     14  C   UNL     1      10.542   0.112  23.506  0.00  0.00    +0.121 C 
ENDBRANCH   1  13
BRANCH   4  15
ATOM     15  N   UNL     1       6.166  -2.761  22.103  0.00  0.00    +0.082 NA
ATOM     16  N   UNL     1       5.310  -3.627  22.356  0.00  0.00    -0.014 NA
ATOM     17  N   UNL     1       4.525  -4.417  22.599  0.00  0.00    -0.328 NA
ENDBRANCH   4  15
BRANCH   3  18
ATOM     18  C   UNL     1       8.664  -3.585  24.800  0.00  0.00    +0.189 C 
BRANCH  18  19
ATOM     19  O   UNL     1       8.860  -4.829  24.135  0.00  0.00    -0.392 OA
ATOM     20  H   UNL     1       9.734  -5.153  24.418  0.00  0.00    +0.210 HD
ENDBRANCH  18  19
ENDBRANCH   3  18
TORSDOF 4
ENDMDL
MODEL 3
REMARK VINA RESULT:      -6.2      2.665      5.985
REMARK  Name = 
REMARK  4 active torsions:
REMARK  status: ('A' for Active; 'I' for Inactive)
REMARK    1  A    between atoms: N_3  and  C_9
REMARK    2  A    between atoms: C_12  and  N_19
REMARK    3  A    between atoms: C_14  and  C_17
REMARK    4  A    between atoms: C_17  and  O_18
REMARK                            x       y       z     vdW  Elec       q    Type
REMARK                         _______ _______ _______ _____ _____    ______ ____
ROOT
ATOM      1  C   UNL     1       8.359  -2.752  24.153  0.00  0.00    +0.212 C 
ATOM      2  O   UNL     1       7.997  -1.548  24.843  0.00  0.00    -0.351 OA
ATOM      3  C   UNL     1       7.786  -0.511  23.861  0.00  0.00    +0.177 C 
ATOM      4  C   UNL     1       7.979  -1.148  22.478  0.00  0.00    +0.226 C 
ATOM      5  C   UNL     1       7.767  -2.623  22.759  0.00  0.00    +0.088 C 
ENDROOT
BRANCH   1  13
ATOM      6  C   UNL     1       6.502  -4.352  26.806  0.00  0.00    +0.115 C 
ATOM      7  C   UNL     1       7.414  -5.499  27.142  0.00  0.00    +0.222 C 
ATOM      8  O   UNL     1       7.290  -6.153  28.175  0.00  0.00    -0.275 OA
ATOM      9  N   UNL     1       8.464  -5.709  26.281  0.00  0.00    -0.240 N 
ATOM     10  H   UNL     1       9.161  -6.357  26.609  0.00  0.00    +0.159 HD
ATOM     11  C   UNL     1       8.888  -4.810  25.338  0.00  0.00    +0.310 C 
ATOM     12  O   UNL     1      10.058  -4.795  24.975  0.00  0.00    -0.252 OA
ATOM     13  N   UNL     1       7.931  -3.918  24.899  0.00  0.00    -0.259 N 
ATOM     14  C   UNL     1       6.550  -4.117  25.312  0.00  0.00    +0.121 C 
ENDBRANCH   1  13
BRANCH   4  15
ATOM     15  N   UNL     1       9.379  -0.968  22.035  0.00  0.00    +0.082 NA
ATOM     16  N   UNL     1       9.777   0.204  21.920  0.00  0.00    -0.014 NA
ATOM     17  N   UNL     1      10.143   1.280  21.826  0.00  0.00    -0.328 NA
ENDBRANCH   4  15
BRANCH   3  18
ATOM     18  C   UNL     1       6.387   0.080  24.073  0.00  0.00    +0.189 C 
BRANCH  18  19
ATOM     19  O   UNL     1       6.062   1.041  23.073  0.00  0.00    -0.392 OA
ATOM     20  H   UNL     1       6.872   1.563  22.925  0.00  0.00    +0.210 HD
ENDBRANCH  18  19
ENDBRANCH   3  18
TORSDOF 4
ENDMDL
MODEL 4
REMARK VINA RESULT:      -6.2      3.423      6.723
REMARK  Name = 
REMARK  4 active torsions:
REMARK  status: ('A' for Active; 'I' for Inactive)
REMARK    1  A    between atoms: N_3  and  C_9
REMARK    2  A    between atoms: C_12  and  N_19
REMARK    3  A    between atoms: C_14  and  C_17
REMARK    4  A    between atoms: C_17  and  O_18
REMARK                            x       y       z     vdW  Elec       q    Type
REMARK                         _______ _______ _______ _____ _____    ______ ____
ROOT
ATOM      1  C   UNL     1       6.455  -4.301  23.821  0.00  0.00    +0.212 C 
ATOM      2  O   UNL     1       7.638  -5.095  23.992  0.00  0.00    -0.351 OA
ATOM      3  C   UNL     1       8.716  -4.220  24.387  0.00  0.00    +0.177 C 
ATOM      4  C   UNL     1       8.129  -2.807  24.517  0.00  0.00    +0.226 C 
ATOM      5  C   UNL     1       6.649  -3.077  24.700  0.00  0.00    +0.088 C 
ENDROOT
BRANCH   1  13
ATOM      6  C   UNL     1       4.617  -6.752  25.735  0.00  0.00    +0.115 C 
ATOM      7  C   UNL     1       3.751  -7.359  24.665  0.00  0.00    +0.222 C 
ATOM      8  O   UNL     1       3.152  -8.419  24.831  0.00  0.00    -0.275 OA
ATOM      9  N   UNL     1       3.752  -6.718  23.451  0.00  0.00    -0.240 N 
ATOM     10  H   UNL     1       3.316  -7.227  22.699  0.00  0.00    +0.159 HD
ATOM     11  C   UNL     1       4.667  -5.771  23.071  0.00  0.00    +0.310 C 
ATOM     12  O   UNL     1       4.945  -5.614  21.889  0.00  0.00    -0.252 OA
ATOM     13  N   UNL     1       5.268  -5.083  24.105  0.00  0.00    -0.259 N 
ATOM     14  C   UNL     1       4.764  -5.272  25.457  0.00  0.00    +0.121 C 
ENDBRANCH   1  13
BRANCH   4  15
ATOM     15  N   UNL     1       8.303  -2.074  23.244  0.00  0.00    +0.082 NA
ATOM     16  N   UNL     1       9.471  -1.920  22.848  0.00  0.00    -0.014 NA
ATOM     17  N   UNL     1      10.543  -1.789  22.482  0.00  0.00    -0.328 NA
ENDBRANCH   4  15
BRANCH   3  18
ATOM     18  C   UNL     1       9.322  -4.753  25.689  0.00  0.00    +0.189 C 
BRANCH  18  19
ATOM     19  O   UNL     1      10.453  -5.585  25.445  0.00  0.00    -0.392 OA
ATOM     20  H   UNL     1      10.466  -6.243  26.163  0.00  0.00    +0.210 HD
ENDBRANCH  18  19
ENDBRANCH   3  18
TORSDOF 4
ENDMDL
MODEL 5
REMARK VINA RESULT:      -6.1      2.252      2.682
REMARK  Name = 
REMARK  4 active torsions:
REMARK  status: ('A' for Active; 'I' for Inactive)
REMARK    1  A    between atoms: N_3  and  C_9
REMARK    2  A    between atoms: C_12  and  N_19
REMARK    3  A    between atoms: C_14  and  C_17
REMARK    4  A    between atoms: C_17  and  O_18
REMARK                            x       y       z     vdW  Elec       q    Type
REMARK                         _______ _______ _______ _____ _____    ______ ____
ROOT
ATOM      1  C   UNL     1       7.470  -2.679  23.639  0.00  0.00    +0.212 C 
ATOM      2  O   UNL     1       8.302  -2.801  24.802  0.00  0.00    -0.351 OA
ATOM      3  C   UNL     1       8.314  -4.188  25.204  0.00  0.00    +0.177 C 
ATOM      4  C   UNL     1       7.476  -4.966  24.181  0.00  0.00    +0.226 C 
ATOM      5  C   UNL     1       7.485  -4.046  22.975  0.00  0.00    +0.088 C 
ENDROOT
BRANCH   1  13
ATOM      6  C   UNL     1      10.046  -0.692  22.068  0.00  0.00    +0.115 C 
ATOM      7  C   UNL     1       9.401   0.666  22.074  0.00  0.00    +0.222 C 
ATOM      8  O   UNL     1      10.041   1.695  21.867  0.00  0.00    -0.275 OA
ATOM      9  N   UNL     1       8.076   0.705  22.432  0.00  0.00    -0.240 N 
ATOM     10  H   UNL     1       7.708   1.627  22.604  0.00  0.00    +0.159 HD
ATOM     11  C   UNL     1       7.402  -0.324  23.036  0.00  0.00    +0.310 C 
ATOM     12  O   UNL     1       6.446  -0.096  23.767  0.00  0.00    -0.252 OA
ATOM     13  N   UNL     1       7.916  -1.583  22.804  0.00  0.00    -0.259 N 
ATOM     14  C   UNL     1       8.976  -1.734  21.818  0.00  0.00    +0.121 C 
ENDBRANCH   1  13
BRANCH   4  15
ATOM     15  N   UNL     1       6.079  -5.075  24.656  0.00  0.00    +0.082 NA
ATOM     16  N   UNL     1       5.889  -5.788  25.657  0.00  0.00    -0.014 NA
ATOM     17  N   UNL     1       5.719  -6.434  26.581  0.00  0.00    -0.328 NA
ENDBRANCH   4  15
BRANCH   3  18
ATOM     18  C   UNL     1       9.771  -4.657  25.286  0.00  0.00    +0.189 C 
BRANCH  18  19
ATOM     19  O   UNL     1       9.874  -6.077  25.221  0.00  0.00    -0.392 OA
ATOM     20  H   UNL     1       9.737  -6.316  24.286  0.00  0.00    +0.210 HD
ENDBRANCH  18  19
ENDBRANCH   3  18
TORSDOF 4
ENDMDL
MODEL 6
REMARK VINA RESULT:      -6.1      1.934      2.222
REMARK  Name = 
REMARK  4 active torsions:
REMARK  status: ('A' for Active; 'I' for Inactive)
REMARK    1  A    between atoms: N_3  and  C_9
REMARK    2  A    between atoms: C_12  and  N_19
REMARK    3  A    between atoms: C_14  and  C_17
REMARK    4  A    between atoms: C_17  and  O_18
REMARK                            x       y       z     vdW  Elec       q    Type
REMARK                         _______ _______ _______ _____ _____    ______ ____
ROOT
ATOM      1  C   UNL     1       8.300  -3.289  24.385  0.00  0.00    +0.212 C 
ATOM      2  O   UNL     1       8.010  -4.134  23.262  0.00  0.00    -0.351 OA
ATOM      3  C   UNL     1       7.106  -5.171  23.700  0.00  0.00    +0.177 C 
ATOM      4  C   UNL     1       6.785  -4.901  25.176  0.00  0.00    +0.226 C 
ATOM      5  C   UNL     1       7.114  -3.429  25.324  0.00  0.00    +0.088 C 
ENDROOT
BRANCH   1  13
ATOM      6  C   UNL     1       7.379  -0.171  22.810  0.00  0.00    +0.115 C 
ATOM      7  C   UNL     1       8.692   0.243  22.207  0.00  0.00    +0.222 C 
ATOM      8  O   UNL     1       8.772   1.125  21.354  0.00  0.00    -0.275 OA
ATOM      9  N   UNL     1       9.789  -0.493  22.582  0.00  0.00    -0.240 N 
ATOM     10  H   UNL     1      10.622  -0.324  22.042  0.00  0.00    +0.159 HD
ATOM     11  C   UNL     1       9.732  -1.707  23.217  0.00  0.00    +0.310 C 
ATOM     12  O   UNL     1      10.632  -2.525  23.076  0.00  0.00    -0.252 OA
ATOM     13  N   UNL     1       8.585  -1.937  23.948  0.00  0.00    -0.259 N 
ATOM     14  C   UNL     1       7.647  -0.841  24.141  0.00  0.00    +0.121 C 
ENDBRANCH   1  13
BRANCH   4  15
ATOM     15  N   UNL     1       7.716  -5.662  26.038  0.00  0.00    +0.082 NA
ATOM     16  N   UNL     1       7.336  -5.887  27.200  0.00  0.00    -0.014 NA
ATOM     17  N   UNL     1       6.982  -6.101  28.262  0.00  0.00    -0.328 NA
ENDBRANCH   4  15
BRANCH   3  18
ATOM     18  C   UNL     1       5.872  -5.154  22.792  0.00  0.00    +0.189 C 
BRANCH  18  19
ATOM     19  O   UNL     1       5.437  -6.471  22.465  0.00  0.00    -0.392 OA
ATOM     20  H   UNL     1       6.234  -7.032  22.485  0.00  0.00    +0.210 HD
ENDBRANCH  18  19
ENDBRANCH   3  18
TORSDOF 4
ENDMDL
MODEL 7
REMARK VINA RESULT:      -5.8      2.901      3.268
REMARK  Name = 
REMARK  4 active torsions:
REMARK  status: ('A' for Active; 'I' for Inactive)
REMARK    1  A    between atoms: N_3  and  C_9
REMARK    2  A    between atoms: C_12  and  N_19
REMARK    3  A    between atoms: C_14  and  C_17
REMARK    4  A    between atoms: C_17  and  O_18
REMARK                            x       y       z     vdW  Elec       q    Type
REMARK                         _______ _______ _______ _____ _____    ______ ____
ROOT
ATOM      1  C   UNL     1       7.403  -1.911  23.778  0.00  0.00    +0.212 C 
ATOM      2  O   UNL     1       7.457  -3.095  24.585  0.00  0.00    -0.351 OA
ATOM      3  C   UNL     1       7.079  -4.220  23.762  0.00  0.00    +0.177 C 
ATOM      4  C   UNL     1       6.832  -3.683  22.345  0.00  0.00    +0.226 C 
ATOM      5  C   UNL     1       7.602  -2.377  22.345  0.00  0.00    +0.088 C 
ENDROOT
BRANCH   1  13
ATOM      6  C   UNL     1       8.651   1.468  24.045  0.00  0.00    +0.115 C 
ATOM      7  C   UNL     1      10.134   1.222  24.090  0.00  0.00    +0.222 C 
ATOM      8  O   UNL     1      10.953   2.123  23.916  0.00  0.00    -0.275 OA
ATOM      9  N   UNL     1      10.526  -0.087  24.228  0.00  0.00    -0.240 N 
ATOM     10  H   UNL     1      11.507  -0.257  24.078  0.00  0.00    +0.159 HD
ATOM     11  C   UNL     1       9.704  -1.168  24.047  0.00  0.00    +0.310 C 
ATOM     12  O   UNL     1      10.163  -2.244  23.683  0.00  0.00    -0.252 OA
ATOM     13  N   UNL     1       8.360  -0.928  24.245  0.00  0.00    -0.259 N 
ATOM     14  C   UNL     1       7.954   0.355  24.797  0.00  0.00    +0.121 C 
ENDBRANCH   1  13
BRANCH   4  15
ATOM     15  N   UNL     1       5.398  -3.365  22.173  0.00  0.00    +0.082 NA
ATOM     16  N   UNL     1       4.591  -4.253  22.497  0.00  0.00    -0.014 NA
ATOM     17  N   UNL     1       3.852  -5.064  22.806  0.00  0.00    -0.328 NA
ENDBRANCH   4  15
BRANCH   3  18
ATOM     18  C   UNL     1       8.192  -5.270  23.834  0.00  0.00    +0.189 C 
BRANCH  18  19
ATOM     19  O   UNL     1       9.325  -4.793  24.554  0.00  0.00    -0.392 OA
ATOM     20  H   UNL     1       9.057  -4.763  25.491  0.00  0.00    +0.210 HD
ENDBRANCH  18  19
ENDBRANCH   3  18
TORSDOF 4
ENDMDL
MODEL 8
REMARK VINA RESULT:      -5.7      2.316      5.814
REMARK  Name = 
REMARK  4 active torsions:
REMARK  status: ('A' for Active; 'I' for Inactive)
REMARK    1  A    between atoms: N_3  and  C_9
REMARK    2  A    between atoms: C_12  and  N_19
REMARK    3  A    between atoms: C_14  and  C_17
REMARK    4  A    between atoms: C_17  and  O_18
REMARK                            x       y       z     vdW  Elec       q    Type
REMARK                         _______ _______ _______ _____ _____    ______ ____
ROOT
ATOM      1  C   UNL     1       7.965  -3.215  24.908  0.00  0.00    +0.212 C 
ATOM      2  O   UNL     1       7.415  -2.510  23.787  0.00  0.00    -0.351 OA
ATOM      3  C   UNL     1       8.441  -1.650  23.247  0.00  0.00    +0.177 C 
ATOM      4  C   UNL     1       9.716  -1.895  24.066  0.00  0.00    +0.226 C 
ATOM      5  C   UNL     1       9.465  -3.262  24.671  0.00  0.00    +0.088 C 
ENDROOT
BRANCH   1  13
ATOM      6  C   UNL     1       5.278  -5.552  24.301  0.00  0.00    +0.115 C 
ATOM      7  C   UNL     1       5.268  -6.318  25.595  0.00  0.00    +0.222 C 
ATOM      8  O   UNL     1       4.329  -7.043  25.919  0.00  0.00    -0.275 OA
ATOM      9  N   UNL     1       6.318  -6.079  26.447  0.00  0.00    -0.240 N 
ATOM     10  H   UNL     1       6.208  -6.456  27.375  0.00  0.00    +0.159 HD
ATOM     11  C   UNL     1       7.186  -5.025  26.335  0.00  0.00    +0.310 C 
ATOM     12  O   UNL     1       7.741  -4.568  27.328  0.00  0.00    -0.252 OA
ATOM     13  N   UNL     1       7.325  -4.506  25.065  0.00  0.00    -0.259 N 
ATOM     14  C   UNL     1       6.711  -5.213  23.951  0.00  0.00    +0.121 C 
ENDBRANCH   1  13
BRANCH   4  15
ATOM     15  N   UNL     1       9.796  -0.916  25.172  0.00  0.00    +0.082 NA
ATOM     16  N   UNL     1      10.210   0.219  24.879  0.00  0.00    -0.014 NA
ATOM     17  N   UNL     1      10.580   1.262  24.606  0.00  0.00    -0.328 NA
ENDBRANCH   4  15
BRANCH   3  18
ATOM     18  C   UNL     1       8.602  -1.963  21.755  0.00  0.00    +0.189 C 
BRANCH  18  19
ATOM     19  O   UNL     1       9.881  -1.571  21.267  0.00  0.00    -0.392 OA
ATOM     20  H   UNL     1      10.330  -2.391  20.993  0.00  0.00    +0.210 HD
ENDBRANCH  18  19
ENDBRANCH   3  18
TORSDOF 4
ENDMDL
MODEL 9
REMARK VINA RESULT:      -5.7      2.720      3.744
REMARK  Name = 
REMARK  4 active torsions:
REMARK  status: ('A' for Active; 'I' for Inactive)
REMARK    1  A    between atoms: N_3  and  C_9
REMARK    2  A    between atoms: C_12  and  N_19
REMARK    3  A    between atoms: C_14  and  C_17
REMARK    4  A    between atoms: C_17  and  O_18
REMARK                            x       y       z     vdW  Elec       q    Type
REMARK                         _______ _______ _______ _____ _____    ______ ____
ROOT
ATOM      1  C   UNL     1       8.911  -1.204  23.096  0.00  0.00    +0.212 C 
ATOM      2  O   UNL     1       7.530  -0.858  22.920  0.00  0.00    -0.351 OA
ATOM      3  C   UNL     1       6.730  -1.791  23.678  0.00  0.00    +0.177 C 
ATOM      4  C   UNL     1       7.700  -2.734  24.405  0.00  0.00    +0.226 C 
ATOM      5  C   UNL     1       8.988  -1.935  24.426  0.00  0.00    +0.088 C 
ENDROOT
BRANCH   1  13
ATOM      6  C   UNL     1      10.316   1.859  24.397  0.00  0.00    +0.115 C 
ATOM      7  C   UNL     1      10.441   2.672  23.138  0.00  0.00    +0.222 C 
ATOM      8  O   UNL     1      10.635   3.886  23.160  0.00  0.00    -0.275 OA
ATOM      9  N   UNL     1      10.219   2.002  21.961  0.00  0.00    -0.240 N 
ATOM     10  H   UNL     1      10.130   2.589  21.146  0.00  0.00    +0.159 HD
ATOM     11  C   UNL     1       9.634   0.766  21.867  0.00  0.00    +0.310 C 
ATOM     12  O   UNL     1       9.013   0.448  20.860  0.00  0.00    -0.252 OA
ATOM     13  N   UNL     1       9.751  -0.029  22.987  0.00  0.00    -0.259 N 
ATOM     14  C   UNL     1      10.618   0.412  24.070  0.00  0.00    +0.121 C 
ENDBRANCH   1  13
BRANCH   4  15
ATOM     15  N   UNL     1       7.930  -3.944  23.586  0.00  0.00    +0.082 NA
ATOM     16  N   UNL     1       8.679  -4.808  24.074  0.00  0.00    -0.014 NA
ATOM     17  N   UNL     1       9.358  -5.604  24.528  0.00  0.00    -0.328 NA
ENDBRANCH   4  15
BRANCH   3  18
ATOM     18  C   UNL     1       5.822  -0.998  24.623  0.00  0.00    +0.189 C 
BRANCH  18  19
ATOM     19  O   UNL     1       6.032   0.406  24.504  0.00  0.00    -0.392 OA
ATOM     20  H   UNL     1       5.476   0.822  25.188  0.00  0.00    +0.210 HD
ENDBRANCH  18  19
ENDBRANCH   3  18
TORSDOF 4
ENDMDL
