MODEL 1
REMARK VINA RESULT:      -9.2      0.000      0.000
REMARK  Name = 
REMARK  15 active torsions:
REMARK  status: ('A' for Active; 'I' for Inactive)
REMARK    1  A    between atoms: C_1  and  C_2
REMARK    2  A    between atoms: C_2  and  C_3
REMARK    3  A    between atoms: C_2  and  C_11
REMARK    4  A    between atoms: C_3  and  C_4
REMARK    5  A    between atoms: C_4  and  C_5
REMARK    6  A    between atoms: C_6  and  C_7
REMARK    7  A    between atoms: C_6  and  C_8
REMARK    8  A    between atoms: C_8  and  O_10
REMARK    9  A    between atoms: C_13  and  O_35
REMARK   10  A    between atoms: C_14  and  C_34
REMARK   11  A    between atoms: C_15  and  C_33
REMARK   12  A    between atoms: C_17  and  O_32
REMARK   13  A    between atoms: C_27  and  O_31
REMARK   14  A    between atoms: C_28  and  C_29
REMARK   15  A    between atoms: C_28  and  C_30
REMARK                            x       y       z     vdW  Elec       q    Type
REMARK                         _______ _______ _______ _____ _____    ______ ____
ROOT
ATOM      1  C   UNL     1       7.590   3.326  23.756  0.00  0.00    +0.001 C 
ATOM      2  C   UNL     1       8.716   2.186  24.103  0.00  0.00    -0.019 C 
ATOM      3  C   UNL     1      10.141   2.792  24.269  0.00  0.00    +0.012 C 
ATOM      4  C   UNL     1       8.423   1.321  25.369  0.00  0.00    +0.039 C 
ATOM      5  C   UNL     1       9.323   0.046  25.393  0.00  0.00    +0.122 C 
ATOM      6  C   UNL     1       8.606  -0.978  24.529  0.00  0.00    +0.007 C 
ATOM      7  C   UNL     1       7.501  -1.671  25.307  0.00  0.00    +0.018 C 
ATOM      8  C   UNL     1       8.460  -2.570  24.638  0.00  0.00    -0.017 C 
ATOM      9  C   UNL     1       9.175  -3.460  25.664  0.00  0.00    +0.010 C 
ATOM     10  C   UNL     1       8.289  -4.627  26.025  0.00  0.00    +0.032 C 
ATOM     11  C   UNL     1       7.665  -5.225  24.773  0.00  0.00    +0.120 C 
ATOM     12  C   UNL     1       7.195  -4.579  23.458  0.00  0.00    -0.006 C 
ATOM     13  C   UNL     1       5.657  -4.311  23.460  0.00  0.00    +0.014 C 
ATOM     14  C   UNL     1       7.358  -5.605  22.254  0.00  0.00    +0.014 C 
ATOM     15  C   UNL     1       8.086  -3.331  23.286  0.00  0.00    +0.004 C 
ATOM     16  C   UNL     1       7.467  -2.443  22.221  0.00  0.00    +0.005 C 
ATOM     17  C   UNL     1       8.324  -1.233  21.999  0.00  0.00    +0.005 C 
ATOM     18  C   UNL     1       8.152  -0.307  23.197  0.00  0.00    +0.007 C 
ATOM     19  C   UNL     1       8.625   1.161  22.841  0.00  0.00    +0.003 C 
ATOM     20  C   UNL     1       9.931   1.144  21.983  0.00  0.00    +0.014 C 
ATOM     21  C   UNL     1       7.521   1.792  21.919  0.00  0.00    +0.122 C 
ATOM     22  C   UNL     1       7.601   3.264  22.212  0.00  0.00    +0.036 C 
ENDROOT
BRANCH   1  24
ATOM     23  C   UNL     1       8.247   5.128  25.515  0.00  0.00    +0.008 C 
ATOM     24  C   UNL     1       7.557   4.861  24.161  0.00  0.00    -0.010 C 
BRANCH  24  25
ATOM     25  C   UNL     1       8.240   5.823  23.205  0.00  0.00    +0.007 C 
BRANCH  25  26
ATOM     26  C   UNL     1       9.613   6.214  23.755  0.00  0.00    +0.028 C 
BRANCH  26  27
ATOM     27  C   UNL     1      10.824   5.658  23.166  0.00  0.00    -0.017 C 
ATOM     28  C   UNL     1      12.077   5.910  23.615  0.00  0.00    +0.029 C 
ATOM     29  C   UNL     1      12.374   6.598  24.950  0.00  0.00    +0.051 C 
BRANCH  28  30
ATOM     30  C   UNL     1      13.174   5.500  22.730  0.00  0.00    +0.332 C 
ATOM     31  O   UNL     1      13.157   5.726  21.552  0.00  0.00    -0.246 OA
BRANCH  30  32
ATOM     32  O   UNL     1      14.187   4.957  23.400  0.00  0.00    -0.477 OA
ATOM     33  H   UNL     1      14.611   4.226  23.014  0.00  0.00    +0.295 HD
ENDBRANCH  30  32
ENDBRANCH  28  30
ENDBRANCH  26  27
ENDBRANCH  25  26
ENDBRANCH  24  25
ENDBRANCH   1  24
BRANCH   5  34
ATOM     34  O   UNL     1       9.505  -0.358  26.769  0.00  0.00    -0.391 OA
ATOM     35  H   UNL     1       9.506  -1.304  26.774  0.00  0.00    +0.210 HD
ENDBRANCH   5  34
BRANCH  11  36
ATOM     36  O   UNL     1       8.822  -5.934  24.405  0.00  0.00    -0.391 OA
ATOM     37  H   UNL     1       9.040  -5.945  23.476  0.00  0.00    +0.210 HD
ENDBRANCH  11  36
BRANCH  21  38
ATOM     38  O   UNL     1       6.172   1.355  22.181  0.00  0.00    -0.391 OA
ATOM     39  H   UNL     1       5.552   2.019  21.933  0.00  0.00    +0.210 HD
ENDBRANCH  21  38
TORSDOF 9
ENDMDL
MODEL 2
REMARK VINA RESULT:      -8.5      2.519      3.974
REMARK  Name = 
REMARK  15 active torsions:
REMARK  status: ('A' for Active; 'I' for Inactive)
REMARK    1  A    between atoms: C_1  and  C_2
REMARK    2  A    between atoms: C_2  and  C_3
REMARK    3  A    between atoms: C_2  and  C_11
REMARK    4  A    between atoms: C_3  and  C_4
REMARK    5  A    between atoms: C_4  and  C_5
REMARK    6  A    between atoms: C_6  and  C_7
REMARK    7  A    between atoms: C_6  and  C_8
REMARK    8  A    between atoms: C_8  and  O_10
REMARK    9  A    between atoms: C_13  and  O_35
REMARK   10  A    between atoms: C_14  and  C_34
REMARK   11  A    between atoms: C_15  and  C_33
REMARK   12  A    between atoms: C_17  and  O_32
REMARK   13  A    between atoms: C_27  and  O_31
REMARK   14  A    between atoms: C_28  and  C_29
REMARK   15  A    between atoms: C_28  and  C_30
REMARK                            x       y       z     vdW  Elec       q    Type
REMARK                         _______ _______ _______ _____ _____    ______ ____
ROOT
ATOM      1  C   UNL     1       8.439  -0.007  24.516  0.00  0.00    +0.001 C 
ATOM      2  C   UNL     1       8.515  -1.643  24.527  0.00  0.00    -0.019 C 
ATOM      3  C   UNL     1       9.831  -2.180  23.890  0.00  0.00    +0.012 C 
ATOM      4  C   UNL     1       8.367  -2.310  25.931  0.00  0.00    +0.039 C 
ATOM      5  C   UNL     1       8.069  -3.836  25.794  0.00  0.00    +0.122 C 
ATOM      6  C   UNL     1       6.568  -3.943  25.588  0.00  0.00    +0.007 C 
ATOM      7  C   UNL     1       5.826  -3.856  26.909  0.00  0.00    +0.018 C 
ATOM      8  C   UNL     1       5.485  -5.021  26.072  0.00  0.00    -0.017 C 
ATOM      9  C   UNL     1       5.802  -6.330  26.808  0.00  0.00    +0.010 C 
ATOM     10  C   UNL     1       4.682  -6.655  27.765  0.00  0.00    +0.032 C 
ATOM     11  C   UNL     1       3.334  -6.444  27.094  0.00  0.00    +0.120 C 
ATOM     12  C   UNL     1       2.865  -5.422  26.044  0.00  0.00    -0.006 C 
ATOM     13  C   UNL     1       2.137  -4.207  26.700  0.00  0.00    +0.014 C 
ATOM     14  C   UNL     1       1.721  -6.052  25.136  0.00  0.00    +0.014 C 
ATOM     15  C   UNL     1       4.130  -5.076  25.231  0.00  0.00    +0.004 C 
ATOM     16  C   UNL     1       3.851  -3.826  24.416  0.00  0.00    +0.005 C 
ATOM     17  C   UNL     1       5.047  -3.475  23.584  0.00  0.00    +0.005 C 
ATOM     18  C   UNL     1       6.117  -2.910  24.510  0.00  0.00    +0.007 C 
ATOM     19  C   UNL     1       7.195  -2.094  23.687  0.00  0.00    +0.003 C 
ATOM     20  C   UNL     1       7.551  -2.815  22.347  0.00  0.00    +0.014 C 
ATOM     21  C   UNL     1       6.527  -0.734  23.272  0.00  0.00    +0.122 C 
ATOM     22  C   UNL     1       7.680   0.227  23.189  0.00  0.00    +0.036 C 
ENDROOT
BRANCH   1  24
ATOM     23  C   UNL     1      10.990   0.397  24.838  0.00  0.00    +0.008 C 
ATOM     24  C   UNL     1       9.620   1.054  24.569  0.00  0.00    -0.010 C 
BRANCH  24  25
ATOM     25  C   UNL     1       9.845   1.873  23.311  0.00  0.00    +0.007 C 
BRANCH  25  26
ATOM     26  C   UNL     1      10.272   3.293  23.684  0.00  0.00    +0.028 C 
BRANCH  26  27
ATOM     27  C   UNL     1      11.594   3.783  23.314  0.00  0.00    -0.017 C 
ATOM     28  C   UNL     1      11.971   5.083  23.372  0.00  0.00    +0.029 C 
ATOM     29  C   UNL     1      11.153   6.169  24.075  0.00  0.00    +0.051 C 
BRANCH  28  30
ATOM     30  C   UNL     1      13.228   5.421  22.695  0.00  0.00    +0.332 C 
ATOM     31  O   UNL     1      13.256   6.135  21.730  0.00  0.00    -0.246 OA
BRANCH  30  32
ATOM     32  O   UNL     1      14.290   4.931  23.327  0.00  0.00    -0.477 OA
ATOM     33  H   UNL     1      14.650   4.138  23.006  0.00  0.00    +0.295 HD
ENDBRANCH  30  32
ENDBRANCH  28  30
ENDBRANCH  26  27
ENDBRANCH  25  26
ENDBRANCH  24  25
ENDBRANCH   1  24
BRANCH   5  34
ATOM     34  O   UNL     1       8.556  -4.503  26.982  0.00  0.00    -0.391 OA
ATOM     35  H   UNL     1       8.655  -5.416  26.756  0.00  0.00    +0.210 HD
ENDBRANCH   5  34
BRANCH  11  36
ATOM     36  O   UNL     1       3.376  -7.658  26.386  0.00  0.00    -0.391 OA
ATOM     37  H   UNL     1       3.399  -8.457  26.906  0.00  0.00    +0.210 HD
ENDBRANCH  11  36
BRANCH  21  38
ATOM     38  O   UNL     1       5.568  -0.205  24.209  0.00  0.00    -0.391 OA
ATOM     39  H   UNL     1       5.033  -0.893  24.564  0.00  0.00    +0.210 HD
ENDBRANCH  21  38
TORSDOF 9
ENDMDL
MODEL 3
REMARK VINA RESULT:      -8.1      2.795      4.563
REMARK  Name = 
REMARK  15 active torsions:
REMARK  status: ('A' for Active; 'I' for Inactive)
REMARK    1  A    between atoms: C_1  and  C_2
REMARK    2  A    between atoms: C_2  and  C_3
REMARK    3  A    between atoms: C_2  and  C_11
REMARK    4  A    between atoms: C_3  and  C_4
REMARK    5  A    between atoms: C_4  and  C_5
REMARK    6  A    between atoms: C_6  and  C_7
REMARK    7  A    between atoms: C_6  and  C_8
REMARK    8  A    between atoms: C_8  and  O_10
REMARK    9  A    between atoms: C_13  and  O_35
REMARK   10  A    between atoms: C_14  and  C_34
REMARK   11  A    between atoms: C_15  and  C_33
REMARK   12  A    between atoms: C_17  and  O_32
REMARK   13  A    between atoms: C_27  and  O_31
REMARK   14  A    between atoms: C_28  and  C_29
REMARK   15  A    between atoms: C_28  and  C_30
REMARK                            x       y       z     vdW  Elec       q    Type
REMARK                         _______ _______ _______ _____ _____    ______ ____
ROOT
ATOM      1  C   UNL     1       8.810  -0.126  23.842  0.00  0.00    +0.001 C 
ATOM      2  C   UNL     1       8.826  -1.740  24.123  0.00  0.00    -0.019 C 
ATOM      3  C   UNL     1      10.030  -2.450  23.434  0.00  0.00    +0.012 C 
ATOM      4  C   UNL     1       8.833  -2.157  25.627  0.00  0.00    +0.039 C 
ATOM      5  C   UNL     1       8.464  -3.665  25.789  0.00  0.00    +0.122 C 
ATOM      6  C   UNL     1       6.945  -3.717  25.784  0.00  0.00    +0.007 C 
ATOM      7  C   UNL     1       6.381  -3.370  27.150  0.00  0.00    +0.018 C 
ATOM      8  C   UNL     1       5.894  -4.636  26.571  0.00  0.00    -0.017 C 
ATOM      9  C   UNL     1       6.253  -5.821  27.476  0.00  0.00    +0.010 C 
ATOM     10  C   UNL     1       5.252  -5.919  28.601  0.00  0.00    +0.032 C 
ATOM     11  C   UNL     1       3.838  -5.743  28.068  0.00  0.00    +0.120 C 
ATOM     12  C   UNL     1       3.278  -4.882  26.923  0.00  0.00    -0.006 C 
ATOM     13  C   UNL     1       2.685  -3.536  27.445  0.00  0.00    +0.014 C 
ATOM     14  C   UNL     1       2.005  -5.586  26.279  0.00  0.00    +0.014 C 
ATOM     15  C   UNL     1       4.442  -4.750  25.918  0.00  0.00    +0.004 C 
ATOM     16  C   UNL     1       4.107  -3.636  24.941  0.00  0.00    +0.005 C 
ATOM     17  C   UNL     1       5.200  -3.498  23.925  0.00  0.00    +0.005 C 
ATOM     18  C   UNL     1       6.400  -2.851  24.607  0.00  0.00    +0.007 C 
ATOM     19  C   UNL     1       7.394  -2.245  23.535  0.00  0.00    +0.003 C 
ATOM     20  C   UNL     1       7.550  -3.196  22.304  0.00  0.00    +0.014 C 
ATOM     21  C   UNL     1       6.730  -0.936  22.977  0.00  0.00    +0.122 C 
ATOM     22  C   UNL     1       7.898  -0.070  22.594  0.00  0.00    +0.036 C 
ENDROOT
BRANCH   1  24
ATOM     23  C   UNL     1      10.045   1.389  22.124  0.00  0.00    +0.008 C 
ATOM     24  C   UNL     1      10.027   0.859  23.572  0.00  0.00    -0.010 C 
BRANCH  24  25
ATOM     25  C   UNL     1      10.076   2.115  24.423  0.00  0.00    +0.007 C 
BRANCH  25  26
ATOM     26  C   UNL     1       8.680   2.736  24.514  0.00  0.00    +0.028 C 
BRANCH  26  27
ATOM     27  C   UNL     1       8.465   4.118  24.104  0.00  0.00    -0.017 C 
ATOM     28  C   UNL     1       7.786   4.487  22.991  0.00  0.00    +0.029 C 
ATOM     29  C   UNL     1       6.937   3.523  22.160  0.00  0.00    +0.051 C 
BRANCH  28  30
ATOM     30  C   UNL     1       7.918   5.893  22.593  0.00  0.00    +0.332 C 
ATOM     31  O   UNL     1       8.415   6.713  23.315  0.00  0.00    -0.246 OA
BRANCH  30  32
ATOM     32  O   UNL     1       7.520   6.103  21.341  0.00  0.00    -0.477 OA
ATOM     33  H   UNL     1       7.935   6.788  20.870  0.00  0.00    +0.295 HD
ENDBRANCH  30  32
ENDBRANCH  28  30
ENDBRANCH  26  27
ENDBRANCH  25  26
ENDBRANCH  24  25
ENDBRANCH   1  24
BRANCH   5  34
ATOM     34  O   UNL     1       9.072  -4.154  27.006  0.00  0.00    -0.391 OA
ATOM     35  H   UNL     1       9.156  -5.091  26.908  0.00  0.00    +0.210 HD
ENDBRANCH   5  34
BRANCH  11  36
ATOM     36  O   UNL     1       3.744  -7.057  27.578  0.00  0.00    -0.391 OA
ATOM     37  H   UNL     1       3.696  -7.756  28.226  0.00  0.00    +0.210 HD
ENDBRANCH  11  36
BRANCH  21  38
ATOM     38  O   UNL     1       5.918  -0.204  23.917  0.00  0.00    -0.391 OA
ATOM     39  H   UNL     1       5.499   0.527  23.497  0.00  0.00    +0.210 HD
ENDBRANCH  21  38
TORSDOF 9
ENDMDL
MODEL 4
REMARK VINA RESULT:      -8.1      2.528      4.011
REMARK  Name = 
REMARK  15 active torsions:
REMARK  status: ('A' for Active; 'I' for Inactive)
REMARK    1  A    between atoms: C_1  and  C_2
REMARK    2  A    between atoms: C_2  and  C_3
REMARK    3  A    between atoms: C_2  and  C_11
REMARK    4  A    between atoms: C_3  and  C_4
REMARK    5  A    between atoms: C_4  and  C_5
REMARK    6  A    between atoms: C_6  and  C_7
REMARK    7  A    between atoms: C_6  and  C_8
REMARK    8  A    between atoms: C_8  and  O_10
REMARK    9  A    between atoms: C_13  and  O_35
REMARK   10  A    between atoms: C_14  and  C_34
REMARK   11  A    between atoms: C_15  and  C_33
REMARK   12  A    between atoms: C_17  and  O_32
REMARK   13  A    between atoms: C_27  and  O_31
REMARK   14  A    between atoms: C_28  and  C_29
REMARK   15  A    between atoms: C_28  and  C_30
REMARK                            x       y       z     vdW  Elec       q    Type
REMARK                         _______ _______ _______ _____ _____    ______ ____
ROOT
ATOM      1  C   UNL     1       8.073   3.105  23.408  0.00  0.00    +0.001 C 
ATOM      2  C   UNL     1       8.976   1.826  23.891  0.00  0.00    -0.019 C 
ATOM      3  C   UNL     1      10.501   2.145  23.897  0.00  0.00    +0.012 C 
ATOM      4  C   UNL     1       8.613   1.241  25.291  0.00  0.00    +0.039 C 
ATOM      5  C   UNL     1       9.245  -0.173  25.487  0.00  0.00    +0.122 C 
ATOM      6  C   UNL     1       8.280  -1.147  24.832  0.00  0.00    +0.007 C 
ATOM      7  C   UNL     1       7.121  -1.472  25.757  0.00  0.00    +0.018 C 
ATOM      8  C   UNL     1       7.833  -2.640  25.206  0.00  0.00    -0.017 C 
ATOM      9  C   UNL     1       8.433  -3.491  26.333  0.00  0.00    +0.010 C 
ATOM     10  C   UNL     1       7.365  -4.382  26.916  0.00  0.00    +0.032 C 
ATOM     11  C   UNL     1       6.546  -5.023  25.806  0.00  0.00    +0.120 C 
ATOM     12  C   UNL     1       6.117  -4.502  24.423  0.00  0.00    -0.006 C 
ATOM     13  C   UNL     1       4.666  -3.927  24.444  0.00  0.00    +0.014 C 
ATOM     14  C   UNL     1       5.987  -5.710  23.397  0.00  0.00    +0.014 C 
ATOM     15  C   UNL     1       7.220  -3.504  24.013  0.00  0.00    +0.004 C 
ATOM     16  C   UNL     1       6.711  -2.680  22.843  0.00  0.00    +0.005 C 
ATOM     17  C   UNL     1       7.769  -1.720  22.391  0.00  0.00    +0.005 C 
ATOM     18  C   UNL     1       7.870  -0.607  23.428  0.00  0.00    +0.007 C 
ATOM     19  C   UNL     1       8.594   0.662  22.818  0.00  0.00    +0.003 C 
ATOM     20  C   UNL     1       9.805   0.247  21.921  0.00  0.00    +0.014 C 
ATOM     21  C   UNL     1       7.570   1.358  21.851  0.00  0.00    +0.122 C 
ATOM     22  C   UNL     1       7.958   2.810  21.895  0.00  0.00    +0.036 C 
ENDROOT
BRANCH   1  24
ATOM     23  C   UNL     1       7.761   5.488  22.408  0.00  0.00    +0.008 C 
ATOM     24  C   UNL     1       8.371   4.658  23.558  0.00  0.00    -0.010 C 
BRANCH  24  25
ATOM     25  C   UNL     1       7.842   5.327  24.814  0.00  0.00    +0.007 C 
BRANCH  25  26
ATOM     26  C   UNL     1       6.772   4.445  25.460  0.00  0.00    +0.028 C 
BRANCH  26  27
ATOM     27  C   UNL     1       5.428   4.390  24.896  0.00  0.00    -0.017 C 
ATOM     28  C   UNL     1       4.688   3.260  24.794  0.00  0.00    +0.029 C 
ATOM     29  C   UNL     1       5.053   1.946  25.490  0.00  0.00    +0.051 C 
BRANCH  28  30
ATOM     30  C   UNL     1       3.493   3.346  23.948  0.00  0.00    +0.332 C 
ATOM     31  O   UNL     1       2.580   4.080  24.212  0.00  0.00    -0.246 OA
BRANCH  30  32
ATOM     32  O   UNL     1       3.599   2.608  22.847  0.00  0.00    -0.477 OA
ATOM     33  H   UNL     1       4.425   2.589  22.423  0.00  0.00    +0.295 HD
ENDBRANCH  30  32
ENDBRANCH  28  30
ENDBRANCH  26  27
ENDBRANCH  25  26
ENDBRANCH  24  25
ENDBRANCH   1  24
BRANCH   5  34
ATOM     34  O   UNL     1       9.444  -0.391  26.902  0.00  0.00    -0.391 OA
ATOM     35  H   UNL     1       9.413  -1.327  27.037  0.00  0.00    +0.210 HD
ENDBRANCH   5  34
BRANCH  11  36
ATOM     36  O   UNL     1       7.511  -6.001  25.511  0.00  0.00    -0.391 OA
ATOM     37  H   UNL     1       8.420  -5.712  25.481  0.00  0.00    +0.210 HD
ENDBRANCH  11  36
BRANCH  21  38
ATOM     38  O   UNL     1       6.185   1.252  22.236  0.00  0.00    -0.391 OA
ATOM     39  H   UNL     1       5.823   0.429  21.954  0.00  0.00    +0.210 HD
ENDBRANCH  21  38
TORSDOF 9
ENDMDL
MODEL 5
REMARK VINA RESULT:      -8.1      3.106      5.842
REMARK  Name = 
REMARK  15 active torsions:
REMARK  status: ('A' for Active; 'I' for Inactive)
REMARK    1  A    between atoms: C_1  and  C_2
REMARK    2  A    between atoms: C_2  and  C_3
REMARK    3  A    between atoms: C_2  and  C_11
REMARK    4  A    between atoms: C_3  and  C_4
REMARK    5  A    between atoms: C_4  and  C_5
REMARK    6  A    between atoms: C_6  and  C_7
REMARK    7  A    between atoms: C_6  and  C_8
REMARK    8  A    between atoms: C_8  and  O_10
REMARK    9  A    between atoms: C_13  and  O_35
REMARK   10  A    between atoms: C_14  and  C_34
REMARK   11  A    between atoms: C_15  and  C_33
REMARK   12  A    between atoms: C_17  and  O_32
REMARK   13  A    between atoms: C_27  and  O_31
REMARK   14  A    between atoms: C_28  and  C_29
REMARK   15  A    between atoms: C_28  and  C_30
REMARK                            x       y       z     vdW  Elec       q    Type
REMARK                         _______ _______ _______ _____ _____    ______ ____
ROOT
ATOM      1  C   UNL     1       8.609  -2.079  24.050  0.00  0.00    +0.001 C 
ATOM      2  C   UNL     1       8.369  -3.576  24.674  0.00  0.00    -0.019 C 
ATOM      3  C   UNL     1       9.684  -4.408  24.740  0.00  0.00    +0.012 C 
ATOM      4  C   UNL     1       7.717  -3.613  26.091  0.00  0.00    +0.039 C 
ATOM      5  C   UNL     1       7.186  -5.043  26.424  0.00  0.00    +0.122 C 
ATOM      6  C   UNL     1       5.808  -5.125  25.791  0.00  0.00    +0.007 C 
ATOM      7  C   UNL     1       4.761  -4.467  26.672  0.00  0.00    +0.018 C 
ATOM      8  C   UNL     1       4.451  -5.845  26.248  0.00  0.00    -0.017 C 
ATOM      9  C   UNL     1       4.301  -6.767  27.465  0.00  0.00    +0.010 C 
ATOM     10  C   UNL     1       2.920  -6.607  28.052  0.00  0.00    +0.032 C 
ATOM     11  C   UNL     1       1.873  -6.595  26.948  0.00  0.00    +0.120 C 
ATOM     12  C   UNL     1       1.913  -6.050  25.510  0.00  0.00    -0.006 C 
ATOM     13  C   UNL     1       1.274  -4.629  25.409  0.00  0.00    +0.014 C 
ATOM     14  C   UNL     1       0.965  -6.915  24.569  0.00  0.00    +0.014 C 
ATOM     15  C   UNL     1       3.394  -6.143  25.089  0.00  0.00    +0.004 C 
ATOM     16  C   UNL     1       3.591  -5.308  23.836  0.00  0.00    +0.005 C 
ATOM     17  C   UNL     1       5.013  -5.400  23.374  0.00  0.00    +0.005 C 
ATOM     18  C   UNL     1       5.874  -4.583  24.330  0.00  0.00    +0.007 C 
ATOM     19  C   UNL     1       7.270  -4.237  23.670  0.00  0.00    +0.003 C 
ATOM     20  C   UNL     1       7.839  -5.456  22.874  0.00  0.00    +0.014 C 
ATOM     21  C   UNL     1       7.011  -3.116  22.600  0.00  0.00    +0.122 C 
ATOM     22  C   UNL     1       8.302  -2.347  22.559  0.00  0.00    +0.036 C 
ENDROOT
BRANCH   1  24
ATOM     23  C   UNL     1      10.201  -0.484  22.749  0.00  0.00    +0.008 C 
ATOM     24  C   UNL     1       9.907  -1.166  24.102  0.00  0.00    -0.010 C 
BRANCH  24  25
ATOM     25  C   UNL     1       9.881  -0.017  25.094  0.00  0.00    +0.007 C 
BRANCH  25  26
ATOM     26  C   UNL     1       8.512   0.665  25.064  0.00  0.00    +0.028 C 
BRANCH  26  27
ATOM     27  C   UNL     1       8.368   1.995  24.484  0.00  0.00    -0.017 C 
ATOM     28  C   UNL     1       7.716   2.257  23.326  0.00  0.00    +0.029 C 
ATOM     29  C   UNL     1       6.825   1.239  22.610  0.00  0.00    +0.051 C 
BRANCH  28  30
ATOM     30  C   UNL     1       7.920   3.594  22.759  0.00  0.00    +0.332 C 
ATOM     31  O   UNL     1       7.029   4.204  22.235  0.00  0.00    -0.246 OA
BRANCH  30  32
ATOM     32  O   UNL     1       9.147   4.057  22.985  0.00  0.00    -0.477 OA
ATOM     33  H   UNL     1       9.242   4.720  23.629  0.00  0.00    +0.295 HD
ENDBRANCH  30  32
ENDBRANCH  28  30
ENDBRANCH  26  27
ENDBRANCH  25  26
ENDBRANCH  24  25
ENDBRANCH   1  24
BRANCH   5  34
ATOM     34  O   UNL     1       7.193  -5.209  27.860  0.00  0.00    -0.391 OA
ATOM     35  H   UNL     1       8.099  -5.298  28.116  0.00  0.00    +0.210 HD
ENDBRANCH   5  34
BRANCH  11  36
ATOM     36  O   UNL     1       1.879  -7.990  26.779  0.00  0.00    -0.391 OA
ATOM     37  H   UNL     1       2.367  -8.330  26.033  0.00  0.00    +0.210 HD
ENDBRANCH  11  36
BRANCH  21  38
ATOM     38  O   UNL     1       5.949  -2.195  22.915  0.00  0.00    -0.391 OA
ATOM     39  H   UNL     1       5.392  -2.544  23.589  0.00  0.00    +0.210 HD
ENDBRANCH  21  38
TORSDOF 9
ENDMDL
MODEL 6
REMARK VINA RESULT:      -8.1      2.569      3.754
REMARK  Name = 
REMARK  15 active torsions:
REMARK  status: ('A' for Active; 'I' for Inactive)
REMARK    1  A    between atoms: C_1  and  C_2
REMARK    2  A    between atoms: C_2  and  C_3
REMARK    3  A    between atoms: C_2  and  C_11
REMARK    4  A    between atoms: C_3  and  C_4
REMARK    5  A    between atoms: C_4  and  C_5
REMARK    6  A    between atoms: C_6  and  C_7
REMARK    7  A    between atoms: C_6  and  C_8
REMARK    8  A    between atoms: C_8  and  O_10
REMARK    9  A    between atoms: C_13  and  O_35
REMARK   10  A    between atoms: C_14  and  C_34
REMARK   11  A    between atoms: C_15  and  C_33
REMARK   12  A    between atoms: C_17  and  O_32
REMARK   13  A    between atoms: C_27  and  O_31
REMARK   14  A    between atoms: C_28  and  C_29
REMARK   15  A    between atoms: C_28  and  C_30
REMARK                            x       y       z     vdW  Elec       q    Type
REMARK                         _______ _______ _______ _____ _____    ______ ____
ROOT
ATOM      1  C   UNL     1       8.257   2.954  23.343  0.00  0.00    +0.001 C 
ATOM      2  C   UNL     1       9.044   1.624  23.888  0.00  0.00    -0.019 C 
ATOM      3  C   UNL     1      10.591   1.809  23.885  0.00  0.00    +0.012 C 
ATOM      4  C   UNL     1       8.632   1.139  25.313  0.00  0.00    +0.039 C 
ATOM      5  C   UNL     1       9.139  -0.314  25.576  0.00  0.00    +0.122 C 
ATOM      6  C   UNL     1       8.091  -1.229  24.964  0.00  0.00    +0.007 C 
ATOM      7  C   UNL     1       6.908  -1.409  25.898  0.00  0.00    +0.018 C 
ATOM      8  C   UNL     1       7.516  -2.658  25.405  0.00  0.00    -0.017 C 
ATOM      9  C   UNL     1       8.040  -3.505  26.572  0.00  0.00    +0.010 C 
ATOM     10  C   UNL     1       6.898  -4.272  27.192  0.00  0.00    +0.032 C 
ATOM     11  C   UNL     1       6.026  -4.890  26.109  0.00  0.00    +0.120 C 
ATOM     12  C   UNL     1       5.644  -4.398  24.702  0.00  0.00    -0.006 C 
ATOM     13  C   UNL     1       4.248  -3.698  24.691  0.00  0.00    +0.014 C 
ATOM     14  C   UNL     1       5.409  -5.638  23.733  0.00  0.00    +0.014 C 
ATOM     15  C   UNL     1       6.830  -3.521  24.251  0.00  0.00    +0.004 C 
ATOM     16  C   UNL     1       6.395  -2.711  23.042  0.00  0.00    +0.005 C 
ATOM     17  C   UNL     1       7.532  -1.869  22.550  0.00  0.00    +0.005 C 
ATOM     18  C   UNL     1       7.731  -0.722  23.534  0.00  0.00    +0.007 C 
ATOM     19  C   UNL     1       8.562   0.449  22.869  0.00  0.00    +0.003 C 
ATOM     20  C   UNL     1       9.733  -0.111  21.997  0.00  0.00    +0.014 C 
ATOM     21  C   UNL     1       7.603   1.186  21.867  0.00  0.00    +0.122 C 
ATOM     22  C   UNL     1       8.117   2.599  21.845  0.00  0.00    +0.036 C 
ENDROOT
BRANCH   1  24
ATOM     23  C   UNL     1       7.599   5.429  22.882  0.00  0.00    +0.008 C 
ATOM     24  C   UNL     1       8.689   4.480  23.421  0.00  0.00    -0.010 C 
BRANCH  24  25
ATOM     25  C   UNL     1       8.996   5.022  24.806  0.00  0.00    +0.007 C 
BRANCH  25  26
ATOM     26  C   UNL     1       7.709   5.096  25.631  0.00  0.00    +0.028 C 
BRANCH  26  27
ATOM     27  C   UNL     1       7.526   4.223  26.784  0.00  0.00    -0.017 C 
ATOM     28  C   UNL     1       6.468   3.394  26.954  0.00  0.00    +0.029 C 
ATOM     29  C   UNL     1       5.462   3.071  25.847  0.00  0.00    +0.051 C 
BRANCH  28  30
ATOM     30  C   UNL     1       6.312   2.815  28.292  0.00  0.00    +0.332 C 
ATOM     31  O   UNL     1       5.281   2.314  28.650  0.00  0.00    -0.246 OA
BRANCH  30  32
ATOM     32  O   UNL     1       7.446   2.831  28.987  0.00  0.00    -0.477 OA
ATOM     33  H   UNL     1       7.485   3.387  29.729  0.00  0.00    +0.295 HD
ENDBRANCH  30  32
ENDBRANCH  28  30
ENDBRANCH  26  27
ENDBRANCH  25  26
ENDBRANCH  24  25
ENDBRANCH   1  24
BRANCH   5  34
ATOM     34  O   UNL     1       9.318  -0.483  27.001  0.00  0.00    -0.391 OA
ATOM     35  H   UNL     1       8.671  -1.114  27.280  0.00  0.00    +0.210 HD
ENDBRANCH   5  34
BRANCH  11  36
ATOM     36  O   UNL     1       6.902  -5.961  25.864  0.00  0.00    -0.391 OA
ATOM     37  H   UNL     1       6.512  -6.769  25.538  0.00  0.00    +0.210 HD
ENDBRANCH  11  36
BRANCH  21  38
ATOM     38  O   UNL     1       6.214   1.219  22.250  0.00  0.00    -0.391 OA
ATOM     39  H   UNL     1       5.658   1.198  21.491  0.00  0.00    +0.210 HD
ENDBRANCH  21  38
TORSDOF 9
ENDMDL
MODEL 7
REMARK VINA RESULT:      -8.1      1.721      8.322
REMARK  Name = 
REMARK  15 active torsions:
REMARK  status: ('A' for Active; 'I' for Inactive)
REMARK    1  A    between atoms: C_1  and  C_2
REMARK    2  A    between atoms: C_2  and  C_3
REMARK    3  A    between atoms: C_2  and  C_11
REMARK    4  A    between atoms: C_3  and  C_4
REMARK    5  A    between atoms: C_4  and  C_5
REMARK    6  A    between atoms: C_6  and  C_7
REMARK    7  A    between atoms: C_6  and  C_8
REMARK    8  A    between atoms: C_8  and  O_10
REMARK    9  A    between atoms: C_13  and  O_35
REMARK   10  A    between atoms: C_14  and  C_34
REMARK   11  A    between atoms: C_15  and  C_33
REMARK   12  A    between atoms: C_17  and  O_32
REMARK   13  A    between atoms: C_27  and  O_31
REMARK   14  A    between atoms: C_28  and  C_29
REMARK   15  A    between atoms: C_28  and  C_30
REMARK                            x       y       z     vdW  Elec       q    Type
REMARK                         _______ _______ _______ _____ _____    ______ ____
ROOT
ATOM      1  C   UNL     1       5.841  -1.351  24.836  0.00  0.00    +0.001 C 
ATOM      2  C   UNL     1       7.305  -0.783  25.303  0.00  0.00    -0.019 C 
ATOM      3  C   UNL     1       8.004  -1.722  26.331  0.00  0.00    +0.012 C 
ATOM      4  C   UNL     1       8.319  -0.515  24.147  0.00  0.00    +0.039 C 
ATOM      5  C   UNL     1       9.509   0.366  24.641  0.00  0.00    +0.122 C 
ATOM      6  C   UNL     1       9.023   1.802  24.545  0.00  0.00    +0.007 C 
ATOM      7  C   UNL     1       9.146   2.327  23.126  0.00  0.00    +0.018 C 
ATOM      8  C   UNL     1       9.766   3.170  24.166  0.00  0.00    -0.017 C 
ATOM      9  C   UNL     1      11.272   3.323  23.913  0.00  0.00    +0.010 C 
ATOM     10  C   UNL     1      11.503   4.390  22.871  0.00  0.00    +0.032 C 
ATOM     11  C   UNL     1      10.632   5.604  23.153  0.00  0.00    +0.120 C 
ATOM     12  C   UNL     1       9.218   5.730  23.748  0.00  0.00    -0.006 C 
ATOM     13  C   UNL     1       8.130   5.864  22.636  0.00  0.00    +0.014 C 
ATOM     14  C   UNL     1       9.073   7.107  24.531  0.00  0.00    +0.014 C 
ATOM     15  C   UNL     1       9.067   4.510  24.680  0.00  0.00    +0.004 C 
ATOM     16  C   UNL     1       7.598   4.352  25.030  0.00  0.00    +0.005 C 
ATOM     17  C   UNL     1       7.413   3.195  25.964  0.00  0.00    +0.005 C 
ATOM     18  C   UNL     1       7.596   1.910  25.167  0.00  0.00    +0.007 C 
ATOM     19  C   UNL     1       6.965   0.679  25.935  0.00  0.00    +0.003 C 
ATOM     20  C   UNL     1       7.260   0.755  27.468  0.00  0.00    +0.014 C 
ATOM     21  C   UNL     1       5.405   0.798  25.798  0.00  0.00    +0.122 C 
ATOM     22  C   UNL     1       4.926  -0.626  25.850  0.00  0.00    +0.036 C 
ENDROOT
BRANCH   1  24
ATOM     23  C   UNL     1       3.865  -3.005  25.199  0.00  0.00    +0.008 C 
ATOM     24  C   UNL     1       5.329  -2.851  24.738  0.00  0.00    -0.010 C 
BRANCH  24  25
ATOM     25  C   UNL     1       5.346  -3.478  23.356  0.00  0.00    +0.007 C 
BRANCH  25  26
ATOM     26  C   UNL     1       6.097  -4.811  23.399  0.00  0.00    +0.028 C 
BRANCH  26  27
ATOM     27  C   UNL     1       7.538  -4.834  23.616  0.00  0.00    -0.017 C 
ATOM     28  C   UNL     1       8.126  -5.020  24.822  0.00  0.00    +0.029 C 
ATOM     29  C   UNL     1       7.369  -5.488  26.067  0.00  0.00    +0.051 C 
BRANCH  28  30
ATOM     30  C   UNL     1       9.562  -4.727  24.892  0.00  0.00    +0.332 C 
ATOM     31  O   UNL     1      10.038  -3.758  24.367  0.00  0.00    -0.246 OA
BRANCH  30  32
ATOM     32  O   UNL     1      10.217  -5.590  25.664  0.00  0.00    -0.477 OA
ATOM     33  H   UNL     1      11.020  -5.926  25.342  0.00  0.00    +0.295 HD
ENDBRANCH  30  32
ENDBRANCH  28  30
ENDBRANCH  26  27
ENDBRANCH  25  26
ENDBRANCH  24  25
ENDBRANCH   1  24
BRANCH   5  34
ATOM     34  O   UNL     1      10.664   0.072  23.822  0.00  0.00    -0.391 OA
ATOM     35  H   UNL     1      10.853   0.858  23.332  0.00  0.00    +0.210 HD
ENDBRANCH   5  34
BRANCH  11  36
ATOM     36  O   UNL     1      11.468   6.103  24.167  0.00  0.00    -0.391 OA
ATOM     37  H   UNL     1      11.041   6.544  24.898  0.00  0.00    +0.210 HD
ENDBRANCH  11  36
BRANCH  21  38
ATOM     38  O   UNL     1       4.936   1.385  24.568  0.00  0.00    -0.391 OA
ATOM     39  H   UNL     1       4.913   2.324  24.634  0.00  0.00    +0.210 HD
ENDBRANCH  21  38
TORSDOF 9
ENDMDL
MODEL 8
REMARK VINA RESULT:      -8.0      2.123      8.953
REMARK  Name = 
REMARK  15 active torsions:
REMARK  status: ('A' for Active; 'I' for Inactive)
REMARK    1  A    between atoms: C_1  and  C_2
REMARK    2  A    between atoms: C_2  and  C_3
REMARK    3  A    between atoms: C_2  and  C_11
REMARK    4  A    between atoms: C_3  and  C_4
REMARK    5  A    between atoms: C_4  and  C_5
REMARK    6  A    between atoms: C_6  and  C_7
REMARK    7  A    between atoms: C_6  and  C_8
REMARK    8  A    between atoms: C_8  and  O_10
REMARK    9  A    between atoms: C_13  and  O_35
REMARK   10  A    between atoms: C_14  and  C_34
REMARK   11  A    between atoms: C_15  and  C_33
REMARK   12  A    between atoms: C_17  and  O_32
REMARK   13  A    between atoms: C_27  and  O_31
REMARK   14  A    between atoms: C_28  and  C_29
REMARK   15  A    between atoms: C_28  and  C_30
REMARK                            x       y       z     vdW  Elec       q    Type
REMARK                         _______ _______ _______ _____ _____    ______ ____
ROOT
ATOM      1  C   UNL     1       6.493  -1.282  23.085  0.00  0.00    +0.001 C 
ATOM      2  C   UNL     1       7.903  -0.509  23.399  0.00  0.00    -0.019 C 
ATOM      3  C   UNL     1       9.112  -1.488  23.470  0.00  0.00    +0.012 C 
ATOM      4  C   UNL     1       8.279   0.630  22.401  0.00  0.00    +0.039 C 
ATOM      5  C   UNL     1       9.404   1.538  22.988  0.00  0.00    +0.122 C 
ATOM      6  C   UNL     1       8.694   2.550  23.871  0.00  0.00    +0.007 C 
ATOM      7  C   UNL     1       8.122   3.689  23.047  0.00  0.00    +0.018 C 
ATOM      8  C   UNL     1       8.974   4.097  24.180  0.00  0.00    -0.017 C 
ATOM      9  C   UNL     1      10.187   4.897  23.688  0.00  0.00    +0.010 C 
ATOM     10  C   UNL     1       9.781   6.329  23.441  0.00  0.00    +0.032 C 
ATOM     11  C   UNL     1       8.922   6.841  24.587  0.00  0.00    +0.120 C 
ATOM     12  C   UNL     1       7.889   6.136  25.482  0.00  0.00    -0.006 C 
ATOM     13  C   UNL     1       6.430   6.369  24.979  0.00  0.00    +0.014 C 
ATOM     14  C   UNL     1       7.862   6.808  26.923  0.00  0.00    +0.014 C 
ATOM     15  C   UNL     1       8.346   4.663  25.534  0.00  0.00    +0.004 C 
ATOM     16  C   UNL     1       7.206   3.827  26.091  0.00  0.00    +0.005 C 
ATOM     17  C   UNL     1       7.623   2.391  26.190  0.00  0.00    +0.005 C 
ATOM     18  C   UNL     1       7.664   1.812  24.780  0.00  0.00    +0.007 C 
ATOM     19  C   UNL     1       7.625   0.231  24.823  0.00  0.00    +0.003 C 
ATOM     20  C   UNL     1       8.518  -0.328  25.977  0.00  0.00    +0.014 C 
ATOM     21  C   UNL     1       6.155  -0.186  25.186  0.00  0.00    +0.122 C 
ATOM     22  C   UNL     1       5.982  -1.525  24.524  0.00  0.00    +0.036 C 
ENDROOT
BRANCH   1  24
ATOM     23  C   UNL     1       7.535  -3.439  22.067  0.00  0.00    +0.008 C 
ATOM     24  C   UNL     1       6.242  -2.622  22.270  0.00  0.00    -0.010 C 
BRANCH  24  25
ATOM     25  C   UNL     1       5.275  -3.615  22.891  0.00  0.00    +0.007 C 
BRANCH  25  26
ATOM     26  C   UNL     1       6.038  -4.848  23.378  0.00  0.00    +0.028 C 
BRANCH  26  27
ATOM     27  C   UNL     1       5.878  -5.314  24.750  0.00  0.00    -0.017 C 
ATOM     28  C   UNL     1       6.832  -5.214  25.707  0.00  0.00    +0.029 C 
ATOM     29  C   UNL     1       8.099  -4.370  25.550  0.00  0.00    +0.051 C 
BRANCH  28  30
ATOM     30  C   UNL     1       6.601  -5.988  26.931  0.00  0.00    +0.332 C 
ATOM     31  O   UNL     1       5.620  -6.664  27.079  0.00  0.00    -0.246 OA
BRANCH  30  32
ATOM     32  O   UNL     1       7.628  -5.919  27.774  0.00  0.00    -0.477 OA
ATOM     33  H   UNL     1       8.476  -6.064  27.426  0.00  0.00    +0.295 HD
ENDBRANCH  30  32
ENDBRANCH  28  30
ENDBRANCH  26  27
ENDBRANCH  25  26
ENDBRANCH  24  25
ENDBRANCH   1  24
BRANCH   5  34
ATOM     34  O   UNL     1      10.140   2.120  21.888  0.00  0.00    -0.391 OA
ATOM     35  H   UNL     1      10.646   1.421  21.503  0.00  0.00    +0.210 HD
ENDBRANCH   5  34
BRANCH  11  36
ATOM     36  O   UNL     1      10.012   7.067  25.445  0.00  0.00    -0.391 OA
ATOM     37  H   UNL     1      10.402   6.298  25.855  0.00  0.00    +0.210 HD
ENDBRANCH  11  36
BRANCH  21  38
ATOM     38  O   UNL     1       5.123   0.693  24.696  0.00  0.00    -0.391 OA
ATOM     39  H   UNL     1       4.272   0.311  24.822  0.00  0.00    +0.210 HD
ENDBRANCH  21  38
TORSDOF 9
ENDMDL
MODEL 9
REMARK VINA RESULT:      -7.9      2.480      8.998
REMARK  Name = 
REMARK  15 active torsions:
REMARK  status: ('A' for Active; 'I' for Inactive)
REMARK    1  A    between atoms: C_1  and  C_2
REMARK    2  A    between atoms: C_2  and  C_3
REMARK    3  A    between atoms: C_2  and  C_11
REMARK    4  A    between atoms: C_3  and  C_4
REMARK    5  A    between atoms: C_4  and  C_5
REMARK    6  A    between atoms: C_6  and  C_7
REMARK    7  A    between atoms: C_6  and  C_8
REMARK    8  A    between atoms: C_8  and  O_10
REMARK    9  A    between atoms: C_13  and  O_35
REMARK   10  A    between atoms: C_14  and  C_34
REMARK   11  A    between atoms: C_15  and  C_33
REMARK   12  A    between atoms: C_17  and  O_32
REMARK   13  A    between atoms: C_27  and  O_31
REMARK   14  A    between atoms: C_28  and  C_29
REMARK   15  A    between atoms: C_28  and  C_30
REMARK                            x       y       z     vdW  Elec       q    Type
REMARK                         _______ _______ _______ _____ _____    ______ ____
ROOT
ATOM      1  C   UNL     1       8.665  -2.220  24.837  0.00  0.00    +0.001 C 
ATOM      2  C   UNL     1       7.668  -1.243  23.979  0.00  0.00    -0.019 C 
ATOM      3  C   UNL     1       6.837  -2.027  22.920  0.00  0.00    +0.012 C 
ATOM      4  C   UNL     1       6.669  -0.395  24.827  0.00  0.00    +0.039 C 
ATOM      5  C   UNL     1       6.051   0.757  23.974  0.00  0.00    +0.122 C 
ATOM      6  C   UNL     1       7.059   1.893  24.029  0.00  0.00    +0.007 C 
ATOM      7  C   UNL     1       6.917   2.688  25.315  0.00  0.00    +0.018 C 
ATOM      8  C   UNL     1       6.889   3.486  24.075  0.00  0.00    -0.017 C 
ATOM      9  C   UNL     1       5.560   4.241  23.945  0.00  0.00    +0.010 C 
ATOM     10  C   UNL     1       5.608   5.495  24.784  0.00  0.00    +0.032 C 
ATOM     11  C   UNL     1       6.935   6.212  24.589  0.00  0.00    +0.120 C 
ATOM     12  C   UNL     1       8.356   5.678  24.337  0.00  0.00    -0.006 C 
ATOM     13  C   UNL     1       9.190   5.602  25.654  0.00  0.00    +0.014 C 
ATOM     14  C   UNL     1       9.187   6.720  23.468  0.00  0.00    +0.014 C 
ATOM     15  C   UNL     1       8.153   4.336  23.602  0.00  0.00    +0.004 C 
ATOM     16  C   UNL     1       9.465   3.572  23.629  0.00  0.00    +0.005 C 
ATOM     17  C   UNL     1       9.320   2.274  22.893  0.00  0.00    +0.005 C 
ATOM     18  C   UNL     1       8.488   1.333  23.756  0.00  0.00    +0.007 C 
ATOM     19  C   UNL     1       8.683  -0.168  23.294  0.00  0.00    +0.003 C 
ATOM     20  C   UNL     1       8.718  -0.282  21.736  0.00  0.00    +0.014 C 
ATOM     21  C   UNL     1      10.104  -0.623  23.784  0.00  0.00    +0.122 C 
ATOM     22  C   UNL     1       9.958  -2.104  23.998  0.00  0.00    +0.036 C 
ENDROOT
BRANCH   1  24
ATOM     23  C   UNL     1       9.831  -4.516  25.213  0.00  0.00    +0.008 C 
ATOM     24  C   UNL     1       8.490  -3.753  25.212  0.00  0.00    -0.010 C 
BRANCH  24  25
ATOM     25  C   UNL     1       7.899  -4.048  26.579  0.00  0.00    +0.007 C 
BRANCH  25  26
ATOM     26  C   UNL     1       6.520  -4.691  26.422  0.00  0.00    +0.028 C 
BRANCH  26  27
ATOM     27  C   UNL     1       6.159  -5.355  25.175  0.00  0.00    -0.017 C 
ATOM     28  C   UNL     1       5.047  -5.073  24.454  0.00  0.00    +0.029 C 
ATOM     29  C   UNL     1       4.163  -3.850  24.709  0.00  0.00    +0.051 C 
BRANCH  28  30
ATOM     30  C   UNL     1       4.706  -6.029  23.395  0.00  0.00    +0.332 C 
ATOM     31  O   UNL     1       4.606  -5.695  22.247  0.00  0.00    -0.246 OA
BRANCH  30  32
ATOM     32  O   UNL     1       4.622  -7.277  23.848  0.00  0.00    -0.477 OA
ATOM     33  H   UNL     1       4.669  -7.962  23.224  0.00  0.00    +0.295 HD
ENDBRANCH  30  32
ENDBRANCH  28  30
ENDBRANCH  26  27
ENDBRANCH  25  26
ENDBRANCH  24  25
ENDBRANCH   1  24
BRANCH   5  34
ATOM     34  O   UNL     1       4.754   1.084  24.522  0.00  0.00    -0.391 OA
ATOM     35  H   UNL     1       4.118   0.869  23.857  0.00  0.00    +0.210 HD
ENDBRANCH   5  34
BRANCH  11  36
ATOM     36  O   UNL     1       6.568   6.785  23.359  0.00  0.00    -0.391 OA
ATOM     37  H   UNL     1       5.853   6.365  22.886  0.00  0.00    +0.210 HD
ENDBRANCH  11  36
BRANCH  21  38
ATOM     38  O   UNL     1      10.550  -0.032  25.020  0.00  0.00    -0.391 OA
ATOM     39  H   UNL     1      10.565  -0.673  25.710  0.00  0.00    +0.210 HD
ENDBRANCH  21  38
TORSDOF 9
ENDMDL
