MODEL 1
REMARK VINA RESULT:      -6.1      0.000      0.000
REMARK  Name = 
REMARK  3 active torsions:
REMARK  status: ('A' for Active; 'I' for Inactive)
REMARK    1  A    between atoms: C_3  and  N_8
REMARK    2  A    between atoms: C_5  and  C_6
REMARK    3  A    between atoms: C_6  and  O_7
REMARK                            x       y       z     vdW  Elec       q    Type
REMARK                         _______ _______ _______ _____ _____    ______ ____
ROOT
ATOM      1  N   UNL     1       9.661  -0.732  24.299  0.00  0.00    -0.288 N 
ATOM      2  C   UNL     1       9.026  -1.764  24.939  0.00  0.00    +0.169 A 
ATOM      3  N   UNL     1       8.264  -1.684  26.058  0.00  0.00    -0.218 NA
ATOM      4  C   UNL     1       7.828  -2.844  26.444  0.00  0.00    +0.201 A 
ATOM      5  N   UNL     1       8.087  -4.050  25.818  0.00  0.00    -0.312 N 
ATOM      6  H   UNL     1       7.721  -4.916  26.181  0.00  0.00    +0.170 HD
ATOM      7  C   UNL     1       8.853  -4.169  24.668  0.00  0.00    +0.279 A 
ATOM      8  O   UNL     1       9.062  -5.255  24.139  0.00  0.00    -0.265 OA
ATOM      9  C   UNL     1       9.351  -2.888  24.209  0.00  0.00    +0.172 A 
ATOM     10  N   UNL     1      10.118  -2.579  23.121  0.00  0.00    -0.229 NA
ATOM     11  C   UNL     1      10.257  -1.272  23.184  0.00  0.00    +0.203 A 
ENDROOT
BRANCH   1  15
ATOM     12  C   UNL     1      10.239   1.986  22.792  0.00  0.00    +0.038 C 
ATOM     13  C   UNL     1       8.746   2.118  23.039  0.00  0.00    +0.146 C 
ATOM     14  O   UNL     1       8.416   1.264  24.159  0.00  0.00    -0.351 OA
ATOM     15  C   UNL     1       9.630   0.672  24.677  0.00  0.00    +0.222 C 
ATOM     16  C   UNL     1      10.768   1.520  24.125  0.00  0.00    +0.057 C 
BRANCH  13  17
ATOM     17  C   UNL     1       7.915   1.707  21.822  0.00  0.00    +0.187 C 
BRANCH  17  18
ATOM     18  O   UNL     1       8.760   1.182  20.802  0.00  0.00    -0.392 OA
ATOM     19  H   UNL     1       8.630   1.751  20.020  0.00  0.00    +0.210 HD
ENDBRANCH  17  18
ENDBRANCH  13  17
ENDBRANCH   1  15
TORSDOF 3
ENDMDL
MODEL 2
REMARK VINA RESULT:      -6.0      2.130      3.359
REMARK  Name = 
REMARK  3 active torsions:
REMARK  status: ('A' for Active; 'I' for Inactive)
REMARK    1  A    between atoms: C_3  and  N_8
REMARK    2  A    between atoms: C_5  and  C_6
REMARK    3  A    between atoms: C_6  and  O_7
REMARK                            x       y       z     vdW  Elec       q    Type
REMARK                         _______ _______ _______ _____ _____    ______ ____
ROOT
ATOM      1  N   UNL     1       8.147  -2.383  24.342  0.00  0.00    -0.288 N 
ATOM      2  C   UNL     1       8.469  -3.567  24.951  0.00  0.00    +0.169 A 
ATOM      3  N   UNL     1       9.394  -4.470  24.540  0.00  0.00    -0.218 NA
ATOM      4  C   UNL     1       9.444  -5.513  25.311  0.00  0.00    +0.201 A 
ATOM      5  N   UNL     1       8.661  -5.723  26.432  0.00  0.00    -0.312 N 
ATOM      6  H   UNL     1       8.748  -6.565  26.979  0.00  0.00    +0.170 HD
ATOM      7  C   UNL     1       7.713  -4.819  26.887  0.00  0.00    +0.279 A 
ATOM      8  O   UNL     1       7.036  -5.038  27.886  0.00  0.00    -0.265 OA
ATOM      9  C   UNL     1       7.637  -3.639  26.049  0.00  0.00    +0.172 A 
ATOM     10  N   UNL     1       6.854  -2.525  26.163  0.00  0.00    -0.229 NA
ATOM     11  C   UNL     1       7.209  -1.775  25.142  0.00  0.00    +0.203 A 
ENDROOT
BRANCH   1  15
ATOM     12  C   UNL     1       8.791   0.533  23.305  0.00  0.00    +0.038 C 
ATOM     13  C   UNL     1      10.196  -0.013  23.489  0.00  0.00    +0.146 C 
ATOM     14  O   UNL     1      10.111  -1.455  23.429  0.00  0.00    -0.351 OA
ATOM     15  C   UNL     1       8.748  -1.837  23.135  0.00  0.00    +0.222 C 
ATOM     16  C   UNL     1       8.080  -0.585  22.584  0.00  0.00    +0.057 C 
BRANCH  13  17
ATOM     17  C   UNL     1      10.814   0.408  24.825  0.00  0.00    +0.187 C 
BRANCH  17  18
ATOM     18  O   UNL     1       9.854   0.290  25.871  0.00  0.00    -0.392 OA
ATOM     19  H   UNL     1       9.679   1.198  26.184  0.00  0.00    +0.210 HD
ENDBRANCH  17  18
ENDBRANCH  13  17
ENDBRANCH   1  15
TORSDOF 3
ENDMDL
MODEL 3
REMARK VINA RESULT:      -6.0      2.016      2.915
REMARK  Name = 
REMARK  3 active torsions:
REMARK  status: ('A' for Active; 'I' for Inactive)
REMARK    1  A    between atoms: C_3  and  N_8
REMARK    2  A    between atoms: C_5  and  C_6
REMARK    3  A    between atoms: C_6  and  O_7
REMARK                            x       y       z     vdW  Elec       q    Type
REMARK                         _______ _______ _______ _____ _____    ______ ____
ROOT
ATOM      1  N   UNL     1       8.719  -2.222  23.100  0.00  0.00    -0.288 N 
ATOM      2  C   UNL     1       8.764  -3.265  23.987  0.00  0.00    +0.169 A 
ATOM      3  N   UNL     1       9.873  -3.896  24.448  0.00  0.00    -0.218 NA
ATOM      4  C   UNL     1       9.588  -4.873  25.254  0.00  0.00    +0.201 A 
ATOM      5  N   UNL     1       8.314  -5.263  25.627  0.00  0.00    -0.312 N 
ATOM      6  H   UNL     1       8.168  -6.039  26.252  0.00  0.00    +0.170 HD
ATOM      7  C   UNL     1       7.159  -4.635  25.185  0.00  0.00    +0.279 A 
ATOM      8  O   UNL     1       6.045  -5.008  25.536  0.00  0.00    -0.265 OA
ATOM      9  C   UNL     1       7.445  -3.536  24.285  0.00  0.00    +0.172 A 
ATOM     10  N   UNL     1       6.597  -2.670  23.655  0.00  0.00    -0.229 NA
ATOM     11  C   UNL     1       7.395  -1.872  22.977  0.00  0.00    +0.203 A 
ENDROOT
BRANCH   1  15
ATOM     12  C   UNL     1       9.303   0.721  22.107  0.00  0.00    +0.038 C 
ATOM     13  C   UNL     1      10.277   0.621  23.268  0.00  0.00    +0.146 C 
ATOM     14  O   UNL     1      10.543  -0.783  23.490  0.00  0.00    -0.351 OA
ATOM     15  C   UNL     1       9.856  -1.560  22.482  0.00  0.00    +0.222 C 
ATOM     16  C   UNL     1       9.513  -0.578  21.370  0.00  0.00    +0.057 C 
BRANCH  13  17
ATOM     17  C   UNL     1       9.722   1.245  24.550  0.00  0.00    +0.187 C 
BRANCH  17  18
ATOM     18  O   UNL     1       9.924   0.366  25.654  0.00  0.00    -0.392 OA
ATOM     19  H   UNL     1       9.419   0.742  26.399  0.00  0.00    +0.210 HD
ENDBRANCH  17  18
ENDBRANCH  13  17
ENDBRANCH   1  15
TORSDOF 3
ENDMDL
MODEL 4
REMARK VINA RESULT:      -6.0      1.433      1.591
REMARK  Name = 
REMARK  3 active torsions:
REMARK  status: ('A' for Active; 'I' for Inactive)
REMARK    1  A    between atoms: C_3  and  N_8
REMARK    2  A    between atoms: C_5  and  C_6
REMARK    3  A    between atoms: C_6  and  O_7
REMARK                            x       y       z     vdW  Elec       q    Type
REMARK                         _______ _______ _______ _____ _____    ______ ____
ROOT
ATOM      1  N   UNL     1       8.427  -1.276  24.044  0.00  0.00    -0.288 N 
ATOM      2  C   UNL     1       8.329  -2.528  24.592  0.00  0.00    +0.169 A 
ATOM      3  N   UNL     1       8.461  -2.857  25.901  0.00  0.00    -0.218 NA
ATOM      4  C   UNL     1       8.349  -4.134  26.104  0.00  0.00    +0.201 A 
ATOM      5  N   UNL     1       8.124  -5.087  25.126  0.00  0.00    -0.312 N 
ATOM      6  H   UNL     1       8.057  -6.066  25.357  0.00  0.00    +0.170 HD
ATOM      7  C   UNL     1       7.974  -4.786  23.780  0.00  0.00    +0.279 A 
ATOM      8  O   UNL     1       7.775  -5.658  22.941  0.00  0.00    -0.265 OA
ATOM      9  C   UNL     1       8.089  -3.366  23.523  0.00  0.00    +0.172 A 
ATOM     10  N   UNL     1       7.988  -2.672  22.350  0.00  0.00    -0.229 NA
ATOM     11  C   UNL     1       8.162  -1.415  22.702  0.00  0.00    +0.203 A 
ENDROOT
BRANCH   1  15
ATOM     12  C   UNL     1      10.870   0.720  24.249  0.00  0.00    +0.038 C 
ATOM     13  C   UNL     1       9.856   1.595  23.532  0.00  0.00    +0.146 C 
ATOM     14  O   UNL     1       8.542   1.068  23.831  0.00  0.00    -0.351 OA
ATOM     15  C   UNL     1       8.674  -0.033  24.758  0.00  0.00    +0.222 C 
ATOM     16  C   UNL     1      10.063   0.104  25.365  0.00  0.00    +0.057 C 
BRANCH  13  17
ATOM     17  C   UNL     1      10.068   1.611  22.017  0.00  0.00    +0.187 C 
BRANCH  17  18
ATOM     18  O   UNL     1       8.963   2.238  21.371  0.00  0.00    -0.392 OA
ATOM     19  H   UNL     1       8.796   3.067  21.858  0.00  0.00    +0.210 HD
ENDBRANCH  17  18
ENDBRANCH  13  17
ENDBRANCH   1  15
TORSDOF 3
ENDMDL
MODEL 5
REMARK VINA RESULT:      -5.9      2.434      2.715
REMARK  Name = 
REMARK  3 active torsions:
REMARK  status: ('A' for Active; 'I' for Inactive)
REMARK    1  A    between atoms: C_3  and  N_8
REMARK    2  A    between atoms: C_5  and  C_6
REMARK    3  A    between atoms: C_6  and  O_7
REMARK                            x       y       z     vdW  Elec       q    Type
REMARK                         _______ _______ _______ _____ _____    ______ ____
ROOT
ATOM      1  N   UNL     1       8.419  -2.154  24.216  0.00  0.00    -0.288 N 
ATOM      2  C   UNL     1       7.500  -2.725  23.375  0.00  0.00    +0.169 A 
ATOM      3  N   UNL     1       6.444  -2.112  22.785  0.00  0.00    -0.218 NA
ATOM      4  C   UNL     1       5.733  -2.930  22.070  0.00  0.00    +0.201 A 
ATOM      5  N   UNL     1       5.986  -4.279  21.902  0.00  0.00    -0.312 N 
ATOM      6  H   UNL     1       5.383  -4.857  21.337  0.00  0.00    +0.170 HD
ATOM      7  C   UNL     1       7.061  -4.937  22.481  0.00  0.00    +0.279 A 
ATOM      8  O   UNL     1       7.254  -6.136  22.310  0.00  0.00    -0.265 OA
ATOM      9  C   UNL     1       7.877  -4.049  23.283  0.00  0.00    +0.172 A 
ATOM     10  N   UNL     1       9.016  -4.300  23.994  0.00  0.00    -0.229 NA
ATOM     11  C   UNL     1       9.336  -3.134  24.514  0.00  0.00    +0.203 A 
ENDROOT
BRANCH   1  15
ATOM     12  C   UNL     1      10.489   0.207  23.854  0.00  0.00    +0.038 C 
ATOM     13  C   UNL     1       9.327   0.727  23.025  0.00  0.00    +0.146 C 
ATOM     14  O   UNL     1       8.129   0.072  23.502  0.00  0.00    -0.351 OA
ATOM     15  C   UNL     1       8.464  -0.762  24.634  0.00  0.00    +0.222 C 
ATOM     16  C   UNL     1       9.821  -0.272  25.119  0.00  0.00    +0.057 C 
BRANCH  13  17
ATOM     17  C   UNL     1       9.504   0.444  21.532  0.00  0.00    +0.187 C 
BRANCH  17  18
ATOM     18  O   UNL     1       9.830  -0.928  21.325  0.00  0.00    -0.392 OA
ATOM     19  H   UNL     1       9.658  -1.110  20.382  0.00  0.00    +0.210 HD
ENDBRANCH  17  18
ENDBRANCH  13  17
ENDBRANCH   1  15
TORSDOF 3
ENDMDL
MODEL 6
REMARK VINA RESULT:      -5.8      2.101      5.792
REMARK  Name = 
REMARK  3 active torsions:
REMARK  status: ('A' for Active; 'I' for Inactive)
REMARK    1  A    between atoms: C_3  and  N_8
REMARK    2  A    between atoms: C_5  and  C_6
REMARK    3  A    between atoms: C_6  and  O_7
REMARK                            x       y       z     vdW  Elec       q    Type
REMARK                         _______ _______ _______ _____ _____    ______ ____
ROOT
ATOM      1  N   UNL     1       8.118  -1.904  24.455  0.00  0.00    -0.288 N 
ATOM      2  C   UNL     1       8.709  -1.067  23.546  0.00  0.00    +0.169 A 
ATOM      3  N   UNL     1       8.562  -1.093  22.197  0.00  0.00    -0.218 NA
ATOM      4  C   UNL     1       9.282  -0.191  21.604  0.00  0.00    +0.201 A 
ATOM      5  N   UNL     1      10.120   0.713  22.233  0.00  0.00    -0.312 N 
ATOM      6  H   UNL     1      10.657   1.382  21.705  0.00  0.00    +0.170 HD
ATOM      7  C   UNL     1      10.287   0.775  23.609  0.00  0.00    +0.279 A 
ATOM      8  O   UNL     1      11.039   1.590  24.133  0.00  0.00    -0.265 OA
ATOM      9  C   UNL     1       9.491  -0.218  24.301  0.00  0.00    +0.172 A 
ATOM     10  N   UNL     1       9.365  -0.470  25.638  0.00  0.00    -0.229 NA
ATOM     11  C   UNL     1       8.507  -1.466  25.699  0.00  0.00    +0.203 A 
ENDROOT
BRANCH   1  15
ATOM     12  C   UNL     1       8.373  -5.046  24.220  0.00  0.00    +0.038 C 
ATOM     13  C   UNL     1       7.499  -4.930  25.456  0.00  0.00    +0.146 C 
ATOM     14  O   UNL     1       6.841  -3.643  25.401  0.00  0.00    -0.351 OA
ATOM     15  C   UNL     1       7.190  -2.985  24.162  0.00  0.00    +0.222 C 
ATOM     16  C   UNL     1       7.733  -4.081  23.254  0.00  0.00    +0.057 C 
BRANCH  13  17
ATOM     17  C   UNL     1       8.304  -5.038  26.752  0.00  0.00    +0.187 C 
BRANCH  17  18
ATOM     18  O   UNL     1       7.679  -5.955  27.646  0.00  0.00    -0.392 OA
ATOM     19  H   UNL     1       7.992  -6.843  27.389  0.00  0.00    +0.210 HD
ENDBRANCH  17  18
ENDBRANCH  13  17
ENDBRANCH   1  15
TORSDOF 3
ENDMDL
MODEL 7
REMARK VINA RESULT:      -5.8      1.571      1.985
REMARK  Name = 
REMARK  3 active torsions:
REMARK  status: ('A' for Active; 'I' for Inactive)
REMARK    1  A    between atoms: C_3  and  N_8
REMARK    2  A    between atoms: C_5  and  C_6
REMARK    3  A    between atoms: C_6  and  O_7
REMARK                            x       y       z     vdW  Elec       q    Type
REMARK                         _______ _______ _______ _____ _____    ______ ____
ROOT
ATOM      1  N   UNL     1       8.290  -1.442  23.440  0.00  0.00    -0.288 N 
ATOM      2  C   UNL     1       7.992  -2.582  24.139  0.00  0.00    +0.169 A 
ATOM      3  N   UNL     1       6.782  -2.938  24.641  0.00  0.00    -0.218 NA
ATOM      4  C   UNL     1       6.826  -4.062  25.287  0.00  0.00    +0.201 A 
ATOM      5  N   UNL     1       7.955  -4.841  25.472  0.00  0.00    -0.312 N 
ATOM      6  H   UNL     1       7.915  -5.701  25.995  0.00  0.00    +0.170 HD
ATOM      7  C   UNL     1       9.204  -4.514  24.966  0.00  0.00    +0.279 A 
ATOM      8  O   UNL     1      10.184  -5.229  25.149  0.00  0.00    -0.265 OA
ATOM      9  C   UNL     1       9.187  -3.265  24.234  0.00  0.00    +0.172 A 
ATOM     10  N   UNL     1      10.193  -2.613  23.578  0.00  0.00    -0.229 NA
ATOM     11  C   UNL     1       9.615  -1.539  23.084  0.00  0.00    +0.203 A 
ENDROOT
BRANCH   1  15
ATOM     12  C   UNL     1       7.828   1.536  24.393  0.00  0.00    +0.038 C 
ATOM     13  C   UNL     1       8.312   1.771  22.972  0.00  0.00    +0.146 C 
ATOM     14  O   UNL     1       8.055   0.561  22.222  0.00  0.00    -0.351 OA
ATOM     15  C   UNL     1       7.364  -0.384  23.071  0.00  0.00    +0.222 C 
ATOM     16  C   UNL     1       6.812   0.433  24.231  0.00  0.00    +0.057 C 
BRANCH  13  17
ATOM     17  C   UNL     1       9.805   2.102  22.912  0.00  0.00    +0.187 C 
BRANCH  17  18
ATOM     18  O   UNL     1      10.230   2.215  21.557  0.00  0.00    -0.392 OA
ATOM     19  H   UNL     1       9.471   1.941  21.009  0.00  0.00    +0.210 HD
ENDBRANCH  17  18
ENDBRANCH  13  17
ENDBRANCH   1  15
TORSDOF 3
ENDMDL
MODEL 8
REMARK VINA RESULT:      -5.7      1.632      5.276
REMARK  Name = 
REMARK  3 active torsions:
REMARK  status: ('A' for Active; 'I' for Inactive)
REMARK    1  A    between atoms: C_3  and  N_8
REMARK    2  A    between atoms: C_5  and  C_6
REMARK    3  A    between atoms: C_6  and  O_7
REMARK                            x       y       z     vdW  Elec       q    Type
REMARK                         _______ _______ _______ _____ _____    ______ ____
ROOT
ATOM      1  N   UNL     1       9.221  -2.291  23.678  0.00  0.00    -0.288 N 
ATOM      2  C   UNL     1       9.714  -1.022  23.827  0.00  0.00    +0.169 A 
ATOM      3  N   UNL     1      10.288  -0.495  24.937  0.00  0.00    -0.218 NA
ATOM      4  C   UNL     1      10.623   0.749  24.779  0.00  0.00    +0.201 A 
ATOM      5  N   UNL     1      10.434   1.493  23.628  0.00  0.00    -0.312 N 
ATOM      6  H   UNL     1      10.711   2.460  23.580  0.00  0.00    +0.170 HD
ATOM      7  C   UNL     1       9.860   0.985  22.471  0.00  0.00    +0.279 A 
ATOM      8  O   UNL     1       9.708   1.674  21.468  0.00  0.00    -0.265 OA
ATOM      9  C   UNL     1       9.479  -0.405  22.616  0.00  0.00    +0.172 A 
ATOM     10  N   UNL     1       8.908  -1.260  21.717  0.00  0.00    -0.229 NA
ATOM     11  C   UNL     1       8.797  -2.395  22.374  0.00  0.00    +0.203 A 
ENDROOT
BRANCH   1  15
ATOM     12  C   UNL     1       6.988  -3.843  25.289  0.00  0.00    +0.038 C 
ATOM     13  C   UNL     1       7.536  -4.964  24.423  0.00  0.00    +0.146 C 
ATOM     14  O   UNL     1       8.879  -4.595  24.036  0.00  0.00    -0.351 OA
ATOM     15  C   UNL     1       9.231  -3.348  24.678  0.00  0.00    +0.222 C 
ATOM     16  C   UNL     1       8.234  -3.176  25.816  0.00  0.00    +0.057 C 
BRANCH  13  17
ATOM     17  C   UNL     1       6.690  -5.201  23.171  0.00  0.00    +0.187 C 
BRANCH  17  18
ATOM     18  O   UNL     1       7.460  -5.867  22.174  0.00  0.00    -0.392 OA
ATOM     19  H   UNL     1       7.398  -6.820  22.373  0.00  0.00    +0.210 HD
ENDBRANCH  17  18
ENDBRANCH  13  17
ENDBRANCH   1  15
TORSDOF 3
ENDMDL
MODEL 9
REMARK VINA RESULT:      -5.7      3.185      6.133
REMARK  Name = 
REMARK  3 active torsions:
REMARK  status: ('A' for Active; 'I' for Inactive)
REMARK    1  A    between atoms: C_3  and  N_8
REMARK    2  A    between atoms: C_5  and  C_6
REMARK    3  A    between atoms: C_6  and  O_7
REMARK                            x       y       z     vdW  Elec       q    Type
REMARK                         _______ _______ _______ _____ _____    ______ ____
ROOT
ATOM      1  N   UNL     1       6.815  -3.105  23.027  0.00  0.00    -0.288 N 
ATOM      2  C   UNL     1       7.978  -2.381  23.039  0.00  0.00    +0.169 A 
ATOM      3  N   UNL     1       8.859  -2.237  22.017  0.00  0.00    -0.218 NA
ATOM      4  C   UNL     1       9.887  -1.517  22.347  0.00  0.00    +0.201 A 
ATOM      5  N   UNL     1      10.103  -0.944  23.588  0.00  0.00    -0.312 N 
ATOM      6  H   UNL     1      10.932  -0.404  23.776  0.00  0.00    +0.170 HD
ATOM      7  C   UNL     1       9.221  -1.062  24.652  0.00  0.00    +0.279 A 
ATOM      8  O   UNL     1       9.445  -0.541  25.739  0.00  0.00    -0.265 OA
ATOM      9  C   UNL     1       8.059  -1.857  24.312  0.00  0.00    +0.172 A 
ATOM     10  N   UNL     1       6.968  -2.191  25.065  0.00  0.00    -0.229 NA
ATOM     11  C   UNL     1       6.223  -2.912  24.254  0.00  0.00    +0.203 A 
ENDROOT
BRANCH   1  15
ATOM     12  C   UNL     1       6.510  -6.177  22.349  0.00  0.00    +0.038 C 
ATOM     13  C   UNL     1       5.052  -5.780  22.502  0.00  0.00    +0.146 C 
ATOM     14  O   UNL     1       4.965  -4.354  22.274  0.00  0.00    -0.351 OA
ATOM     15  C   UNL     1       6.271  -3.854  21.906  0.00  0.00    +0.222 C 
ATOM     16  C   UNL     1       7.076  -5.076  21.487  0.00  0.00    +0.057 C 
BRANCH  13  17
ATOM     17  C   UNL     1       4.501  -6.110  23.891  0.00  0.00    +0.187 C 
BRANCH  17  18
ATOM     18  O   UNL     1       4.543  -7.516  24.116  0.00  0.00    -0.392 OA
ATOM     19  H   UNL     1       5.486  -7.754  24.181  0.00  0.00    +0.210 HD
ENDBRANCH  17  18
ENDBRANCH  13  17
ENDBRANCH   1  15
TORSDOF 3
ENDMDL
