MODEL 1
REMARK VINA RESULT:      -6.2      0.000      0.000
REMARK  Name = 
REMARK  13 active torsions:
REMARK  status: ('A' for Active; 'I' for Inactive)
REMARK    1  A    between atoms: C_1  and  C_2
REMARK    2  A    between atoms: C_2  and  O_4
REMARK    3  A    between atoms: O_4  and  N_5
REMARK    4  A    between atoms: N_5  and  C_6
REMARK    5  A    between atoms: C_8  and  N_26
REMARK    6  A    between atoms: C_11  and  C_23
REMARK    7  A    between atoms: C_13  and  C_15
REMARK    8  A    between atoms: C_15  and  C_17
REMARK    9  A    between atoms: C_15  and  O_22
REMARK   10  A    between atoms: C_17  and  C_19
REMARK   11  A    between atoms: C_17  and  O_21
REMARK   12  A    between atoms: C_19  and  O_20
REMARK   13  A    between atoms: C_23  and  O_25
REMARK                            x       y       z     vdW  Elec       q    Type
REMARK                         _______ _______ _______ _____ _____    ______ ____
ROOT
ATOM      1  C   UNL     1       8.531  -1.715  22.814  0.00  0.00    +0.180 C 
ATOM      2  C   UNL     1       7.756  -3.042  22.532  0.00  0.00    +0.228 C 
ATOM      3  O   UNL     1       8.264  -4.216  23.201  0.00  0.00    -0.478 OA
ATOM      4  C   UNL     1       8.739  -4.048  24.483  0.00  0.00    +0.204 C 
ATOM      5  C   UNL     1       9.077  -2.870  25.016  0.00  0.00    +0.071 C 
ATOM      6  C   UNL     1       9.034  -1.582  24.279  0.00  0.00    +0.238 C 
ENDROOT
BRANCH   6   7
ATOM      7  N   UNL     1       8.199  -0.647  25.036  0.00  0.00    -0.104 NA
ATOM      8  C   UNL     1       8.667   0.489  25.394  0.00  0.00    +0.377 C 
ATOM      9  N   UNL     1       7.898   1.311  26.137  0.00  0.00    -0.289 N 
ATOM     10  H   UNL     1       7.974   2.296  25.929  0.00  0.00    +0.255 HD
ATOM     11  H   UNL     1       6.935   0.990  26.152  0.00  0.00    +0.255 HD
ATOM     12  N   UNL     1       9.876   1.060  25.168  0.00  0.00    -0.289 N 
ATOM     13  H   UNL     1      10.148   1.738  25.870  0.00  0.00    +0.255 HD
ATOM     14  H   UNL     1      10.635   0.412  24.994  0.00  0.00    +0.255 HD
ENDBRANCH   6   7
BRANCH   1  15
ATOM     15  N   UNL     1       9.658  -1.633  21.827  0.00  0.00    -0.141 NA
ATOM     16  H   UNL     1      10.513  -1.327  22.311  0.00  0.00    +0.168 HD
BRANCH  15  17
ATOM     17  O   UNL     1       9.341  -0.484  20.954  0.00  0.00    -0.369 OA
BRANCH  17  19
ATOM     18  C   UNL     1       8.206   1.521  21.447  0.00  0.00    +0.138 C 
ATOM     19  C   UNL     1       9.459   0.718  21.616  0.00  0.00    +0.323 C 
ATOM     20  O   UNL     1      10.431   1.056  22.282  0.00  0.00    -0.249 OA
ENDBRANCH  17  19
ENDBRANCH  15  17
ENDBRANCH   1  15
BRANCH   4  21
ATOM     21  C   UNL     1       8.923  -5.269  25.340  0.00  0.00    +0.372 C 
ATOM     22  O   UNL     1       8.059  -5.775  26.034  0.00  0.00    -0.242 OA
BRANCH  21  23
ATOM     23  O   UNL     1      10.187  -5.727  25.258  0.00  0.00    -0.475 OA
ATOM     24  H   UNL     1      10.582  -5.463  24.405  0.00  0.00    +0.296 HD
ENDBRANCH  21  23
ENDBRANCH   4  21
BRANCH   2  25
ATOM     25  C   UNL     1       6.220  -2.890  22.701  0.00  0.00    +0.187 C 
BRANCH  25  26
ATOM     26  O   UNL     1       5.872  -1.715  23.436  0.00  0.00    -0.385 OA
ATOM     27  H   UNL     1       6.704  -1.207  23.522  0.00  0.00    +0.210 HD
ENDBRANCH  25  26
BRANCH  25  28
ATOM     28  C   UNL     1       5.513  -4.103  23.347  0.00  0.00    +0.172 C 
BRANCH  28  29
ATOM     29  O   UNL     1       4.547  -4.584  22.382  0.00  0.00    -0.387 OA
ATOM     30  H   UNL     1       4.955  -4.475  21.503  0.00  0.00    +0.210 HD
ENDBRANCH  28  29
BRANCH  28  31
ATOM     31  C   UNL     1       4.754  -3.804  24.642  0.00  0.00    +0.189 C 
BRANCH  31  32
ATOM     32  O   UNL     1       5.676  -3.739  25.733  0.00  0.00    -0.392 OA
ATOM     33  H   UNL     1       5.974  -4.655  25.883  0.00  0.00    +0.210 HD
ENDBRANCH  31  32
ENDBRANCH  28  31
ENDBRANCH  25  28
ENDBRANCH   2  25
TORSDOF 12
ENDMDL
MODEL 2
REMARK VINA RESULT:      -6.2      1.952      2.235
REMARK  Name = 
REMARK  13 active torsions:
REMARK  status: ('A' for Active; 'I' for Inactive)
REMARK    1  A    between atoms: C_1  and  C_2
REMARK    2  A    between atoms: C_2  and  O_4
REMARK    3  A    between atoms: O_4  and  N_5
REMARK    4  A    between atoms: N_5  and  C_6
REMARK    5  A    between atoms: C_8  and  N_26
REMARK    6  A    between atoms: C_11  and  C_23
REMARK    7  A    between atoms: C_13  and  C_15
REMARK    8  A    between atoms: C_15  and  C_17
REMARK    9  A    between atoms: C_15  and  O_22
REMARK   10  A    between atoms: C_17  and  C_19
REMARK   11  A    between atoms: C_17  and  O_21
REMARK   12  A    between atoms: C_19  and  O_20
REMARK   13  A    between atoms: C_23  and  O_25
REMARK                            x       y       z     vdW  Elec       q    Type
REMARK                         _______ _______ _______ _____ _____    ______ ____
ROOT
ATOM      1  C   UNL     1       8.319  -2.883  23.486  0.00  0.00    +0.180 C 
ATOM      2  C   UNL     1       7.941  -4.363  23.162  0.00  0.00    +0.228 C 
ATOM      3  O   UNL     1       7.864  -5.252  24.296  0.00  0.00    -0.478 OA
ATOM      4  C   UNL     1       7.347  -4.732  25.463  0.00  0.00    +0.204 C 
ATOM      5  C   UNL     1       7.234  -3.426  25.724  0.00  0.00    +0.071 C 
ATOM      6  C   UNL     1       7.698  -2.353  24.809  0.00  0.00    +0.238 C 
ENDROOT
BRANCH   6   7
ATOM      7  N   UNL     1       6.571  -1.460  24.537  0.00  0.00    -0.104 NA
ATOM      8  C   UNL     1       6.721  -0.191  24.615  0.00  0.00    +0.377 C 
ATOM      9  N   UNL     1       5.654   0.609  24.413  0.00  0.00    -0.289 N 
ATOM     10  H   UNL     1       5.834   1.470  23.917  0.00  0.00    +0.255 HD
ATOM     11  H   UNL     1       4.879   0.086  24.018  0.00  0.00    +0.255 HD
ATOM     12  N   UNL     1       7.818   0.555  24.894  0.00  0.00    -0.289 N 
ATOM     13  H   UNL     1       7.606   1.461  25.294  0.00  0.00    +0.255 HD
ATOM     14  H   UNL     1       8.532   0.087  25.440  0.00  0.00    +0.255 HD
ENDBRANCH   6   7
BRANCH   1  15
ATOM     15  N   UNL     1       9.817  -2.792  23.496  0.00  0.00    -0.141 NA
ATOM     16  H   UNL     1      10.117  -2.198  24.281  0.00  0.00    +0.168 HD
BRANCH  15  17
ATOM     17  O   UNL     1      10.175  -1.985  22.312  0.00  0.00    -0.369 OA
BRANCH  17  19
ATOM     18  C   UNL     1       9.420   0.079  21.461  0.00  0.00    +0.138 C 
ATOM     19  C   UNL     1      10.129  -0.633  22.573  0.00  0.00    +0.323 C 
ATOM     20  O   UNL     1      10.564  -0.103  23.588  0.00  0.00    -0.249 OA
ENDBRANCH  17  19
ENDBRANCH  15  17
ENDBRANCH   1  15
BRANCH   4  21
ATOM     21  C   UNL     1       6.905  -5.689  26.534  0.00  0.00    +0.372 C 
ATOM     22  O   UNL     1       5.867  -6.326  26.520  0.00  0.00    -0.242 OA
BRANCH  21  23
ATOM     23  O   UNL     1       7.804  -5.738  27.535  0.00  0.00    -0.475 OA
ATOM     24  H   UNL     1       7.377  -6.063  28.351  0.00  0.00    +0.296 HD
ENDBRANCH  21  23
ENDBRANCH   4  21
BRANCH   2  25
ATOM     25  C   UNL     1       6.695  -4.479  22.242  0.00  0.00    +0.187 C 
BRANCH  25  26
ATOM     26  O   UNL     1       5.712  -3.485  22.538  0.00  0.00    -0.385 OA
ATOM     27  H   UNL     1       6.117  -2.916  23.223  0.00  0.00    +0.210 HD
ENDBRANCH  25  26
BRANCH  25  28
ATOM     28  C   UNL     1       6.011  -5.866  22.244  0.00  0.00    +0.172 C 
BRANCH  28  29
ATOM     29  O   UNL     1       5.631  -6.144  20.875  0.00  0.00    -0.387 OA
ATOM     30  H   UNL     1       5.279  -7.054  20.865  0.00  0.00    +0.210 HD
ENDBRANCH  28  29
BRANCH  28  31
ATOM     31  C   UNL     1       4.745  -5.968  23.098  0.00  0.00    +0.189 C 
BRANCH  31  32
ATOM     32  O   UNL     1       4.749  -7.208  23.812  0.00  0.00    -0.392 OA
ATOM     33  H   UNL     1       5.009  -6.987  24.725  0.00  0.00    +0.210 HD
ENDBRANCH  31  32
ENDBRANCH  28  31
ENDBRANCH  25  28
ENDBRANCH   2  25
TORSDOF 12
ENDMDL
MODEL 3
REMARK VINA RESULT:      -6.1      2.884      5.752
REMARK  Name = 
REMARK  13 active torsions:
REMARK  status: ('A' for Active; 'I' for Inactive)
REMARK    1  A    between atoms: C_1  and  C_2
REMARK    2  A    between atoms: C_2  and  O_4
REMARK    3  A    between atoms: O_4  and  N_5
REMARK    4  A    between atoms: N_5  and  C_6
REMARK    5  A    between atoms: C_8  and  N_26
REMARK    6  A    between atoms: C_11  and  C_23
REMARK    7  A    between atoms: C_13  and  C_15
REMARK    8  A    between atoms: C_15  and  C_17
REMARK    9  A    between atoms: C_15  and  O_22
REMARK   10  A    between atoms: C_17  and  C_19
REMARK   11  A    between atoms: C_17  and  O_21
REMARK   12  A    between atoms: C_19  and  O_20
REMARK   13  A    between atoms: C_23  and  O_25
REMARK                            x       y       z     vdW  Elec       q    Type
REMARK                         _______ _______ _______ _____ _____    ______ ____
ROOT
ATOM      1  C   UNL     1       7.518  -3.009  23.000  0.00  0.00    +0.180 C 
ATOM      2  C   UNL     1       8.003  -1.560  22.675  0.00  0.00    +0.228 C 
ATOM      3  O   UNL     1       7.824  -0.590  23.729  0.00  0.00    -0.478 OA
ATOM      4  C   UNL     1       8.027  -1.026  25.020  0.00  0.00    +0.204 C 
ATOM      5  C   UNL     1       8.039  -2.309  25.392  0.00  0.00    +0.071 C 
ATOM      6  C   UNL     1       7.783  -3.444  24.469  0.00  0.00    +0.238 C 
ENDROOT
BRANCH   6   7
ATOM      7  N   UNL     1       8.919  -4.364  24.545  0.00  0.00    -0.104 NA
ATOM      8  C   UNL     1       8.937  -5.295  25.424  0.00  0.00    +0.377 C 
ATOM      9  N   UNL     1      10.019  -6.096  25.509  0.00  0.00    -0.289 N 
ATOM     10  H   UNL     1       9.835  -7.067  25.713  0.00  0.00    +0.255 HD
ATOM     11  H   UNL     1      10.624  -5.975  24.703  0.00  0.00    +0.255 HD
ATOM     12  N   UNL     1       8.020  -5.647  26.358  0.00  0.00    -0.289 N 
ATOM     13  H   UNL     1       8.417  -6.111  27.167  0.00  0.00    +0.255 HD
ATOM     14  H   UNL     1       7.393  -4.906  26.651  0.00  0.00    +0.255 HD
ENDBRANCH   6   7
BRANCH   1  15
ATOM     15  N   UNL     1       6.062  -3.086  22.649  0.00  0.00    -0.141 NA
ATOM     16  H   UNL     1       5.549  -3.535  23.420  0.00  0.00    +0.168 HD
BRANCH  15  17
ATOM     17  O   UNL     1       5.965  -4.082  21.563  0.00  0.00    -0.369 OA
BRANCH  17  19
ATOM     18  C   UNL     1       6.671  -6.293  21.971  0.00  0.00    +0.138 C 
ATOM     19  C   UNL     1       5.541  -5.310  22.020  0.00  0.00    +0.323 C 
ATOM     20  O   UNL     1       4.417  -5.545  22.447  0.00  0.00    -0.249 OA
ENDBRANCH  17  19
ENDBRANCH  15  17
ENDBRANCH   1  15
BRANCH   4  21
ATOM     21  C   UNL     1       8.220   0.004  26.098  0.00  0.00    +0.372 C 
ATOM     22  O   UNL     1       7.799  -0.086  27.237  0.00  0.00    -0.242 OA
BRANCH  21  23
ATOM     23  O   UNL     1       8.910   1.063  25.631  0.00  0.00    -0.475 OA
ATOM     24  H   UNL     1       8.553   1.337  24.765  0.00  0.00    +0.296 HD
ENDBRANCH  21  23
ENDBRANCH   4  21
BRANCH   2  25
ATOM     25  C   UNL     1       9.438  -1.523  22.083  0.00  0.00    +0.187 C 
BRANCH  25  26
ATOM     26  O   UNL     1      10.343  -2.354  22.813  0.00  0.00    -0.385 OA
ATOM     27  H   UNL     1      10.992  -2.673  22.153  0.00  0.00    +0.210 HD
ENDBRANCH  25  26
BRANCH  25  28
ATOM     28  C   UNL     1      10.055  -0.111  21.959  0.00  0.00    +0.172 C 
BRANCH  28  29
ATOM     29  O   UNL     1      10.525   0.254  23.280  0.00  0.00    -0.387 OA
ATOM     30  H   UNL     1      11.033   1.080  23.174  0.00  0.00    +0.210 HD
ENDBRANCH  28  29
BRANCH  28  31
ATOM     31  C   UNL     1       9.092   0.985  21.499  0.00  0.00    +0.189 C 
BRANCH  31  32
ATOM     32  O   UNL     1       9.791   2.229  21.411  0.00  0.00    -0.392 OA
ATOM     33  H   UNL     1      10.380   2.258  22.187  0.00  0.00    +0.210 HD
ENDBRANCH  31  32
ENDBRANCH  28  31
ENDBRANCH  25  28
ENDBRANCH   2  25
TORSDOF 12
ENDMDL
MODEL 4
REMARK VINA RESULT:      -6.0      3.733      5.640
REMARK  Name = 
REMARK  13 active torsions:
REMARK  status: ('A' for Active; 'I' for Inactive)
REMARK    1  A    between atoms: C_1  and  C_2
REMARK    2  A    between atoms: C_2  and  O_4
REMARK    3  A    between atoms: O_4  and  N_5
REMARK    4  A    between atoms: N_5  and  C_6
REMARK    5  A    between atoms: C_8  and  N_26
REMARK    6  A    between atoms: C_11  and  C_23
REMARK    7  A    between atoms: C_13  and  C_15
REMARK    8  A    between atoms: C_15  and  C_17
REMARK    9  A    between atoms: C_15  and  O_22
REMARK   10  A    between atoms: C_17  and  C_19
REMARK   11  A    between atoms: C_17  and  O_21
REMARK   12  A    between atoms: C_19  and  O_20
REMARK   13  A    between atoms: C_23  and  O_25
REMARK                            x       y       z     vdW  Elec       q    Type
REMARK                         _______ _______ _______ _____ _____    ______ ____
ROOT
ATOM      1  C   UNL     1      10.108   2.993  22.956  0.00  0.00    +0.180 C 
ATOM      2  C   UNL     1      10.234   1.437  22.900  0.00  0.00    +0.228 C 
ATOM      3  O   UNL     1       9.866   0.736  24.107  0.00  0.00    -0.478 OA
ATOM      4  C   UNL     1       8.797   1.236  24.818  0.00  0.00    +0.204 C 
ATOM      5  C   UNL     1       8.306   2.471  24.676  0.00  0.00    +0.071 C 
ATOM      6  C   UNL     1       8.879   3.494  23.765  0.00  0.00    +0.238 C 
ENDROOT
BRANCH   6   7
ATOM      7  N   UNL     1       7.818   3.959  22.870  0.00  0.00    -0.104 NA
ATOM      8  C   UNL     1       7.788   5.181  22.488  0.00  0.00    +0.377 C 
ATOM      9  N   UNL     1       6.770   5.599  21.708  0.00  0.00    -0.289 N 
ATOM     10  H   UNL     1       7.011   6.264  20.987  0.00  0.00    +0.255 HD
ATOM     11  H   UNL     1       6.241   4.810  21.349  0.00  0.00    +0.255 HD
ATOM     12  N   UNL     1       8.632   6.210  22.746  0.00  0.00    -0.289 N 
ATOM     13  H   UNL     1       8.196   7.122  22.689  0.00  0.00    +0.255 HD
ATOM     14  H   UNL     1       9.166   6.128  23.603  0.00  0.00    +0.255 HD
ENDBRANCH   6   7
BRANCH   1  15
ATOM     15  N   UNL     1      11.396   3.529  23.508  0.00  0.00    -0.141 NA
ATOM     16  H   UNL     1      11.517   3.197  24.475  0.00  0.00    +0.168 HD
BRANCH  15  17
ATOM     17  O   UNL     1      11.184   4.980  23.679  0.00  0.00    -0.369 OA
BRANCH  17  19
ATOM     18  C   UNL     1      13.171   5.516  22.532  0.00  0.00    +0.138 C 
ATOM     19  C   UNL     1      12.371   5.670  23.789  0.00  0.00    +0.323 C 
ATOM     20  O   UNL     1      12.699   6.345  24.758  0.00  0.00    -0.249 OA
ENDBRANCH  17  19
ENDBRANCH  15  17
ENDBRANCH   1  15
BRANCH   4  21
ATOM     21  C   UNL     1       8.150   0.352  25.847  0.00  0.00    +0.372 C 
ATOM     22  O   UNL     1       7.950  -0.842  25.719  0.00  0.00    -0.242 OA
BRANCH  21  23
ATOM     23  O   UNL     1       7.797   1.062  26.937  0.00  0.00    -0.475 OA
ATOM     24  H   UNL     1       8.412   0.871  27.671  0.00  0.00    +0.296 HD
ENDBRANCH  21  23
ENDBRANCH   4  21
BRANCH   2  25
ATOM     25  C   UNL     1       9.565   0.824  21.639  0.00  0.00    +0.187 C 
BRANCH  25  26
ATOM     26  O   UNL     1       8.375   1.522  21.267  0.00  0.00    -0.385 OA
ATOM     27  H   UNL     1       7.922   1.729  22.109  0.00  0.00    +0.210 HD
ENDBRANCH  25  26
BRANCH  25  28
ATOM     28  C   UNL     1       9.241  -0.684  21.743  0.00  0.00    +0.172 C 
BRANCH  28  29
ATOM     29  O   UNL     1       8.033  -0.796  22.534  0.00  0.00    -0.387 OA
ATOM     30  H   UNL     1       8.191  -0.293  23.354  0.00  0.00    +0.210 HD
ENDBRANCH  28  29
BRANCH  28  31
ATOM     31  C   UNL     1      10.312  -1.538  22.424  0.00  0.00    +0.189 C 
BRANCH  31  32
ATOM     32  O   UNL     1       9.779  -2.107  23.623  0.00  0.00    -0.392 OA
ATOM     33  H   UNL     1       9.832  -1.405  24.296  0.00  0.00    +0.210 HD
ENDBRANCH  31  32
ENDBRANCH  28  31
ENDBRANCH  25  28
ENDBRANCH   2  25
TORSDOF 12
ENDMDL
MODEL 5
REMARK VINA RESULT:      -5.8      2.234      4.053
REMARK  Name = 
REMARK  13 active torsions:
REMARK  status: ('A' for Active; 'I' for Inactive)
REMARK    1  A    between atoms: C_1  and  C_2
REMARK    2  A    between atoms: C_2  and  O_4
REMARK    3  A    between atoms: O_4  and  N_5
REMARK    4  A    between atoms: N_5  and  C_6
REMARK    5  A    between atoms: C_8  and  N_26
REMARK    6  A    between atoms: C_11  and  C_23
REMARK    7  A    between atoms: C_13  and  C_15
REMARK    8  A    between atoms: C_15  and  C_17
REMARK    9  A    between atoms: C_15  and  O_22
REMARK   10  A    between atoms: C_17  and  C_19
REMARK   11  A    between atoms: C_17  and  O_21
REMARK   12  A    between atoms: C_19  and  O_20
REMARK   13  A    between atoms: C_23  and  O_25
REMARK                            x       y       z     vdW  Elec       q    Type
REMARK                         _______ _______ _______ _____ _____    ______ ____
ROOT
ATOM      1  C   UNL     1       6.854  -1.920  24.147  0.00  0.00    +0.180 C 
ATOM      2  C   UNL     1       6.299  -3.154  24.926  0.00  0.00    +0.228 C 
ATOM      3  O   UNL     1       5.653  -4.163  24.122  0.00  0.00    -0.478 OA
ATOM      4  C   UNL     1       6.201  -4.421  22.884  0.00  0.00    +0.204 C 
ATOM      5  C   UNL     1       7.043  -3.603  22.246  0.00  0.00    +0.071 C 
ATOM      6  C   UNL     1       7.466  -2.277  22.762  0.00  0.00    +0.238 C 
ENDROOT
BRANCH   6   7
ATOM      7  N   UNL     1       8.929  -2.248  22.814  0.00  0.00    -0.104 NA
ATOM      8  C   UNL     1       9.584  -1.449  22.059  0.00  0.00    +0.377 C 
ATOM      9  N   UNL     1      10.933  -1.479  22.085  0.00  0.00    -0.289 N 
ATOM     10  H   UNL     1      11.396  -0.585  22.003  0.00  0.00    +0.255 HD
ATOM     11  H   UNL     1      11.267  -2.019  22.877  0.00  0.00    +0.255 HD
ATOM     12  N   UNL     1       9.155  -0.523  21.166  0.00  0.00    -0.289 N 
ATOM     13  H   UNL     1       9.819  -0.330  20.426  0.00  0.00    +0.255 HD
ATOM     14  H   UNL     1       8.235  -0.691  20.777  0.00  0.00    +0.255 HD
ENDBRANCH   6   7
BRANCH   1  15
ATOM     15  N   UNL     1       5.738  -0.925  24.024  0.00  0.00    -0.141 NA
ATOM     16  H   UNL     1       5.601  -0.688  23.032  0.00  0.00    +0.168 HD
BRANCH  15  17
ATOM     17  O   UNL     1       6.259   0.332  24.598  0.00  0.00    -0.369 OA
BRANCH  17  19
ATOM     18  C   UNL     1       8.290   1.507  24.385  0.00  0.00    +0.138 C 
ATOM     19  C   UNL     1       7.047   1.023  23.703  0.00  0.00    +0.323 C 
ATOM     20  O   UNL     1       6.785   1.176  22.516  0.00  0.00    -0.249 OA
ENDBRANCH  17  19
ENDBRANCH  15  17
ENDBRANCH   1  15
BRANCH   4  21
ATOM     21  C   UNL     1       5.809  -5.690  22.181  0.00  0.00    +0.372 C 
ATOM     22  O   UNL     1       5.828  -5.858  20.975  0.00  0.00    -0.242 OA
BRANCH  21  23
ATOM     23  O   UNL     1       5.410  -6.625  23.066  0.00  0.00    -0.475 OA
ATOM     24  H   UNL     1       4.881  -7.308  22.611  0.00  0.00    +0.296 HD
ENDBRANCH  21  23
ENDBRANCH   4  21
BRANCH   2  25
ATOM     25  C   UNL     1       7.337  -3.764  25.908  0.00  0.00    +0.187 C 
BRANCH  25  26
ATOM     26  O   UNL     1       8.524  -2.972  25.996  0.00  0.00    -0.385 OA
ATOM     27  H   UNL     1       8.436  -2.294  25.297  0.00  0.00    +0.210 HD
ENDBRANCH  25  26
BRANCH  25  28
ATOM     28  C   UNL     1       7.740  -5.225  25.605  0.00  0.00    +0.172 C 
BRANCH  28  29
ATOM     29  O   UNL     1       7.858  -5.897  26.882  0.00  0.00    -0.387 OA
ATOM     30  H   UNL     1       8.349  -5.292  27.469  0.00  0.00    +0.210 HD
ENDBRANCH  28  29
BRANCH  28  31
ATOM     31  C   UNL     1       9.073  -5.398  24.874  0.00  0.00    +0.189 C 
BRANCH  31  32
ATOM     32  O   UNL     1      10.129  -5.525  25.829  0.00  0.00    -0.392 OA
ATOM     33  H   UNL     1      10.895  -5.870  25.334  0.00  0.00    +0.210 HD
ENDBRANCH  31  32
ENDBRANCH  28  31
ENDBRANCH  25  28
ENDBRANCH   2  25
TORSDOF 12
ENDMDL
MODEL 6
REMARK VINA RESULT:      -5.5      2.904      5.026
REMARK  Name = 
REMARK  13 active torsions:
REMARK  status: ('A' for Active; 'I' for Inactive)
REMARK    1  A    between atoms: C_1  and  C_2
REMARK    2  A    between atoms: C_2  and  O_4
REMARK    3  A    between atoms: O_4  and  N_5
REMARK    4  A    between atoms: N_5  and  C_6
REMARK    5  A    between atoms: C_8  and  N_26
REMARK    6  A    between atoms: C_11  and  C_23
REMARK    7  A    between atoms: C_13  and  C_15
REMARK    8  A    between atoms: C_15  and  C_17
REMARK    9  A    between atoms: C_15  and  O_22
REMARK   10  A    between atoms: C_17  and  C_19
REMARK   11  A    between atoms: C_17  and  O_21
REMARK   12  A    between atoms: C_19  and  O_20
REMARK   13  A    between atoms: C_23  and  O_25
REMARK                            x       y       z     vdW  Elec       q    Type
REMARK                         _______ _______ _______ _____ _____    ______ ____
ROOT
ATOM      1  C   UNL     1       6.486  -2.506  23.626  0.00  0.00    +0.180 C 
ATOM      2  C   UNL     1       7.863  -2.242  24.314  0.00  0.00    +0.228 C 
ATOM      3  O   UNL     1       8.079  -2.930  25.564  0.00  0.00    -0.478 OA
ATOM      4  C   UNL     1       7.583  -4.212  25.665  0.00  0.00    +0.204 C 
ATOM      5  C   UNL     1       6.652  -4.728  24.858  0.00  0.00    +0.071 C 
ATOM      6  C   UNL     1       5.985  -3.971  23.768  0.00  0.00    +0.238 C 
ENDROOT
BRANCH   6   7
ATOM      7  N   UNL     1       6.165  -4.709  22.517  0.00  0.00    -0.104 NA
ATOM      8  C   UNL     1       5.411  -5.706  22.242  0.00  0.00    +0.377 C 
ATOM      9  N   UNL     1       5.632  -6.404  21.109  0.00  0.00    -0.289 N 
ATOM     10  H   UNL     1       4.809  -6.731  20.624  0.00  0.00    +0.255 HD
ATOM     11  H   UNL     1       6.274  -5.908  20.499  0.00  0.00    +0.255 HD
ATOM     12  N   UNL     1       4.368  -6.241  22.924  0.00  0.00    -0.289 N 
ATOM     13  H   UNL     1       4.213  -7.224  22.731  0.00  0.00    +0.255 HD
ATOM     14  H   UNL     1       4.375  -6.077  23.924  0.00  0.00    +0.255 HD
ENDBRANCH   6   7
BRANCH   1  15
ATOM     15  N   UNL     1       5.503  -1.523  24.191  0.00  0.00    -0.141 NA
ATOM     16  H   UNL     1       4.998  -1.065  23.420  0.00  0.00    +0.168 HD
BRANCH  15  17
ATOM     17  O   UNL     1       6.316  -0.426  24.754  0.00  0.00    -0.369 OA
BRANCH  17  19
ATOM     18  C   UNL     1       6.763   1.387  23.316  0.00  0.00    +0.138 C 
ATOM     19  C   UNL     1       5.857   0.813  24.363  0.00  0.00    +0.323 C 
ATOM     20  O   UNL     1       4.834   1.342  24.780  0.00  0.00    -0.249 OA
ENDBRANCH  17  19
ENDBRANCH  15  17
ENDBRANCH   1  15
BRANCH   4  21
ATOM     21  C   UNL     1       8.096  -5.089  26.773  0.00  0.00    +0.372 C 
ATOM     22  O   UNL     1       7.435  -5.915  27.375  0.00  0.00    -0.242 OA
BRANCH  21  23
ATOM     23  O   UNL     1       9.391  -4.826  27.033  0.00  0.00    -0.475 OA
ATOM     24  H   UNL     1       9.567  -3.872  26.918  0.00  0.00    +0.296 HD
ENDBRANCH  21  23
ENDBRANCH   4  21
BRANCH   2  25
ATOM     25  C   UNL     1       9.063  -2.402  23.342  0.00  0.00    +0.187 C 
BRANCH  25  26
ATOM     26  O   UNL     1      10.202  -2.978  23.983  0.00  0.00    -0.385 OA
ATOM     27  H   UNL     1      10.166  -3.932  23.768  0.00  0.00    +0.210 HD
ENDBRANCH  25  26
BRANCH  25  28
ATOM     28  C   UNL     1       9.502  -1.101  22.630  0.00  0.00    +0.172 C 
BRANCH  28  29
ATOM     29  O   UNL     1      10.090  -1.497  21.367  0.00  0.00    -0.387 OA
ATOM     30  H   UNL     1      10.418  -2.407  21.487  0.00  0.00    +0.210 HD
ENDBRANCH  28  29
BRANCH  28  31
ATOM     31  C   UNL     1      10.544  -0.267  23.378  0.00  0.00    +0.189 C 
BRANCH  31  32
ATOM     32  O   UNL     1      10.111  -0.055  24.724  0.00  0.00    -0.392 OA
ATOM     33  H   UNL     1      10.570  -0.728  25.259  0.00  0.00    +0.210 HD
ENDBRANCH  31  32
ENDBRANCH  28  31
ENDBRANCH  25  28
ENDBRANCH   2  25
TORSDOF 12
ENDMDL
MODEL 7
REMARK VINA RESULT:      -5.5      2.288      5.496
REMARK  Name = 
REMARK  13 active torsions:
REMARK  status: ('A' for Active; 'I' for Inactive)
REMARK    1  A    between atoms: C_1  and  C_2
REMARK    2  A    between atoms: C_2  and  O_4
REMARK    3  A    between atoms: O_4  and  N_5
REMARK    4  A    between atoms: N_5  and  C_6
REMARK    5  A    between atoms: C_8  and  N_26
REMARK    6  A    between atoms: C_11  and  C_23
REMARK    7  A    between atoms: C_13  and  C_15
REMARK    8  A    between atoms: C_15  and  C_17
REMARK    9  A    between atoms: C_15  and  O_22
REMARK   10  A    between atoms: C_17  and  C_19
REMARK   11  A    between atoms: C_17  and  O_21
REMARK   12  A    between atoms: C_19  and  O_20
REMARK   13  A    between atoms: C_23  and  O_25
REMARK                            x       y       z     vdW  Elec       q    Type
REMARK                         _______ _______ _______ _____ _____    ______ ____
ROOT
ATOM      1  C   UNL     1       6.819  -2.758  23.170  0.00  0.00    +0.180 C 
ATOM      2  C   UNL     1       8.338  -2.489  22.920  0.00  0.00    +0.228 C 
ATOM      3  O   UNL     1       8.657  -1.213  22.328  0.00  0.00    -0.478 OA
ATOM      4  C   UNL     1       7.904  -0.131  22.732  0.00  0.00    +0.204 C 
ATOM      5  C   UNL     1       6.720  -0.221  23.344  0.00  0.00    +0.071 C 
ATOM      6  C   UNL     1       6.027  -1.502  23.630  0.00  0.00    +0.238 C 
ENDROOT
BRANCH   6   7
ATOM      7  N   UNL     1       5.742  -1.561  25.064  0.00  0.00    -0.104 NA
ATOM      8  C   UNL     1       4.801  -2.311  25.504  0.00  0.00    +0.377 C 
ATOM      9  N   UNL     1       4.521  -2.306  26.823  0.00  0.00    -0.289 N 
ATOM     10  H   UNL     1       4.271  -3.198  27.225  0.00  0.00    +0.255 HD
ATOM     11  H   UNL     1       5.252  -1.835  27.347  0.00  0.00    +0.255 HD
ATOM     12  N   UNL     1       3.966  -3.156  24.852  0.00  0.00    -0.289 N 
ATOM     13  H   UNL     1       3.082  -3.303  25.324  0.00  0.00    +0.255 HD
ATOM     14  H   UNL     1       3.810  -2.942  23.873  0.00  0.00    +0.255 HD
ENDBRANCH   6   7
BRANCH   1  15
ATOM     15  N   UNL     1       6.253  -3.345  21.910  0.00  0.00    -0.141 NA
ATOM     16  H   UNL     1       5.780  -2.605  21.373  0.00  0.00    +0.168 HD
BRANCH  15  17
ATOM     17  O   UNL     1       5.135  -4.209  22.340  0.00  0.00    -0.369 OA
BRANCH  17  19
ATOM     18  C   UNL     1       6.306  -6.146  21.684  0.00  0.00    +0.138 C 
ATOM     19  C   UNL     1       5.571  -5.440  22.781  0.00  0.00    +0.323 C 
ATOM     20  O   UNL     1       5.416  -5.868  23.919  0.00  0.00    -0.249 OA
ENDBRANCH  17  19
ENDBRANCH  15  17
ENDBRANCH   1  15
BRANCH   4  21
ATOM     21  C   UNL     1       8.427   1.248  22.441  0.00  0.00    +0.372 C 
ATOM     22  O   UNL     1       8.492   2.157  23.249  0.00  0.00    -0.242 OA
BRANCH  21  23
ATOM     23  O   UNL     1       8.800   1.359  21.152  0.00  0.00    -0.475 OA
ATOM     24  H   UNL     1       8.164   0.886  20.580  0.00  0.00    +0.296 HD
ENDBRANCH  21  23
ENDBRANCH   4  21
BRANCH   2  25
ATOM     25  C   UNL     1       9.216  -2.794  24.164  0.00  0.00    +0.187 C 
BRANCH  25  26
ATOM     26  O   UNL     1      10.520  -3.253  23.803  0.00  0.00    -0.385 OA
ATOM     27  H   UNL     1      11.045  -2.444  23.640  0.00  0.00    +0.210 HD
ENDBRANCH  25  26
BRANCH  25  28
ATOM     28  C   UNL     1       8.599  -3.797  25.166  0.00  0.00    +0.172 C 
BRANCH  28  29
ATOM     29  O   UNL     1       8.210  -3.032  26.333  0.00  0.00    -0.387 OA
ATOM     30  H   UNL     1       7.361  -2.605  26.114  0.00  0.00    +0.210 HD
ENDBRANCH  28  29
BRANCH  28  31
ATOM     31  C   UNL     1       9.538  -4.907  25.642  0.00  0.00    +0.189 C 
BRANCH  31  32
ATOM     32  O   UNL     1       9.761  -5.834  24.575  0.00  0.00    -0.392 OA
ATOM     33  H   UNL     1       9.399  -6.684  24.883  0.00  0.00    +0.210 HD
ENDBRANCH  31  32
ENDBRANCH  28  31
ENDBRANCH  25  28
ENDBRANCH   2  25
TORSDOF 12
ENDMDL
MODEL 8
REMARK VINA RESULT:      -5.5      2.801      5.804
REMARK  Name = 
REMARK  13 active torsions:
REMARK  status: ('A' for Active; 'I' for Inactive)
REMARK    1  A    between atoms: C_1  and  C_2
REMARK    2  A    between atoms: C_2  and  O_4
REMARK    3  A    between atoms: O_4  and  N_5
REMARK    4  A    between atoms: N_5  and  C_6
REMARK    5  A    between atoms: C_8  and  N_26
REMARK    6  A    between atoms: C_11  and  C_23
REMARK    7  A    between atoms: C_13  and  C_15
REMARK    8  A    between atoms: C_15  and  C_17
REMARK    9  A    between atoms: C_15  and  O_22
REMARK   10  A    between atoms: C_17  and  C_19
REMARK   11  A    between atoms: C_17  and  O_21
REMARK   12  A    between atoms: C_19  and  O_20
REMARK   13  A    between atoms: C_23  and  O_25
REMARK                            x       y       z     vdW  Elec       q    Type
REMARK                         _______ _______ _______ _____ _____    ______ ____
ROOT
ATOM      1  C   UNL     1       6.476  -3.135  24.716  0.00  0.00    +0.180 C 
ATOM      2  C   UNL     1       6.349  -1.807  23.903  0.00  0.00    +0.228 C 
ATOM      3  O   UNL     1       6.421  -0.591  24.676  0.00  0.00    -0.478 OA
ATOM      4  C   UNL     1       7.303  -0.576  25.735  0.00  0.00    +0.204 C 
ATOM      5  C   UNL     1       7.827  -1.668  26.298  0.00  0.00    +0.071 C 
ATOM      6  C   UNL     1       7.491  -3.055  25.891  0.00  0.00    +0.238 C 
ENDROOT
BRANCH   6   7
ATOM      7  N   UNL     1       8.735  -3.751  25.555  0.00  0.00    -0.104 NA
ATOM      8  C   UNL     1       8.944  -4.940  25.981  0.00  0.00    +0.377 C 
ATOM      9  N   UNL     1      10.120  -5.539  25.704  0.00  0.00    -0.289 N 
ATOM     10  H   UNL     1      10.076  -6.527  25.503  0.00  0.00    +0.255 HD
ATOM     11  H   UNL     1      10.633  -5.020  24.998  0.00  0.00    +0.255 HD
ATOM     12  N   UNL     1       8.162  -5.765  26.720  0.00  0.00    -0.289 N 
ATOM     13  H   UNL     1       8.682  -6.446  27.260  0.00  0.00    +0.255 HD
ATOM     14  H   UNL     1       7.476  -5.302  27.305  0.00  0.00    +0.255 HD
ENDBRANCH   6   7
BRANCH   1  15
ATOM     15  N   UNL     1       5.101  -3.506  25.190  0.00  0.00    -0.141 NA
ATOM     16  H   UNL     1       5.177  -4.065  26.051  0.00  0.00    +0.168 HD
BRANCH  15  17
ATOM     17  O   UNL     1       4.590  -4.481  24.205  0.00  0.00    -0.369 OA
BRANCH  17  19
ATOM     18  C   UNL     1       5.695  -6.130  22.936  0.00  0.00    +0.138 C 
ATOM     19  C   UNL     1       5.234  -5.695  24.294  0.00  0.00    +0.323 C 
ATOM     20  O   UNL     1       5.439  -6.302  25.338  0.00  0.00    -0.249 OA
ENDBRANCH  17  19
ENDBRANCH  15  17
ENDBRANCH   1  15
BRANCH   4  21
ATOM     21  C   UNL     1       7.684   0.753  26.324  0.00  0.00    +0.372 C 
ATOM     22  O   UNL     1       7.892   1.770  25.686  0.00  0.00    -0.242 OA
BRANCH  21  23
ATOM     23  O   UNL     1       7.788   0.672  27.665  0.00  0.00    -0.475 OA
ATOM     24  H   UNL     1       8.730   0.674  27.926  0.00  0.00    +0.296 HD
ENDBRANCH  21  23
ENDBRANCH   4  21
BRANCH   2  25
ATOM     25  C   UNL     1       7.283  -1.769  22.663  0.00  0.00    +0.187 C 
BRANCH  25  26
ATOM     26  O   UNL     1       7.960  -3.011  22.460  0.00  0.00    -0.385 OA
ATOM     27  H   UNL     1       8.278  -2.985  21.535  0.00  0.00    +0.210 HD
ENDBRANCH  25  26
BRANCH  25  28
ATOM     28  C   UNL     1       8.329  -0.631  22.671  0.00  0.00    +0.172 C 
BRANCH  28  29
ATOM     29  O   UNL     1       7.593   0.611  22.562  0.00  0.00    -0.387 OA
ATOM     30  H   UNL     1       6.917   0.474  21.873  0.00  0.00    +0.210 HD
ENDBRANCH  28  29
BRANCH  28  31
ATOM     31  C   UNL     1       9.340  -0.664  21.523  0.00  0.00    +0.189 C 
BRANCH  31  32
ATOM     32  O   UNL     1      10.339  -1.651  21.794  0.00  0.00    -0.392 OA
ATOM     33  H   UNL     1      10.941  -1.247  22.445  0.00  0.00    +0.210 HD
ENDBRANCH  31  32
ENDBRANCH  28  31
ENDBRANCH  25  28
ENDBRANCH   2  25
TORSDOF 12
ENDMDL
MODEL 9
REMARK VINA RESULT:      -5.5      2.341      4.347
REMARK  Name = 
REMARK  13 active torsions:
REMARK  status: ('A' for Active; 'I' for Inactive)
REMARK    1  A    between atoms: C_1  and  C_2
REMARK    2  A    between atoms: C_2  and  O_4
REMARK    3  A    between atoms: O_4  and  N_5
REMARK    4  A    between atoms: N_5  and  C_6
REMARK    5  A    between atoms: C_8  and  N_26
REMARK    6  A    between atoms: C_11  and  C_23
REMARK    7  A    between atoms: C_13  and  C_15
REMARK    8  A    between atoms: C_15  and  C_17
REMARK    9  A    between atoms: C_15  and  O_22
REMARK   10  A    between atoms: C_17  and  C_19
REMARK   11  A    between atoms: C_17  and  O_21
REMARK   12  A    between atoms: C_19  and  O_20
REMARK   13  A    between atoms: C_23  and  O_25
REMARK                            x       y       z     vdW  Elec       q    Type
REMARK                         _______ _______ _______ _____ _____    ______ ____
ROOT
ATOM      1  C   UNL     1       6.663  -2.265  23.588  0.00  0.00    +0.180 C 
ATOM      2  C   UNL     1       5.702  -2.323  24.818  0.00  0.00    +0.228 C 
ATOM      3  O   UNL     1       5.822  -3.496  25.650  0.00  0.00    -0.478 OA
ATOM      4  C   UNL     1       7.090  -3.998  25.843  0.00  0.00    +0.204 C 
ATOM      5  C   UNL     1       8.144  -3.706  25.075  0.00  0.00    +0.071 C 
ATOM      6  C   UNL     1       8.080  -2.838  23.873  0.00  0.00    +0.238 C 
ENDROOT
BRANCH   6   7
ATOM      7  N   UNL     1       9.057  -1.759  24.031  0.00  0.00    -0.104 NA
ATOM      8  C   UNL     1       9.645  -1.267  23.006  0.00  0.00    +0.377 C 
ATOM      9  N   UNL     1      10.581  -0.312  23.182  0.00  0.00    -0.289 N 
ATOM     10  H   UNL     1      10.597   0.425  22.491  0.00  0.00    +0.255 HD
ATOM     11  H   UNL     1      10.559   0.046  24.132  0.00  0.00    +0.255 HD
ATOM     12  N   UNL     1       9.507  -1.548  21.687  0.00  0.00    -0.289 N 
ATOM     13  H   UNL     1      10.333  -1.346  21.136  0.00  0.00    +0.255 HD
ATOM     14  H   UNL     1       9.164  -2.478  21.476  0.00  0.00    +0.255 HD
ENDBRANCH   6   7
BRANCH   1  15
ATOM     15  N   UNL     1       5.988  -2.981  22.455  0.00  0.00    -0.141 NA
ATOM     16  H   UNL     1       5.332  -3.677  22.834  0.00  0.00    +0.168 HD
BRANCH  15  17
ATOM     17  O   UNL     1       7.034  -3.817  21.832  0.00  0.00    -0.369 OA
BRANCH  17  19
ATOM     18  C   UNL     1       6.896  -6.089  22.439  0.00  0.00    +0.138 C 
ATOM     19  C   UNL     1       6.548  -5.040  21.427  0.00  0.00    +0.323 C 
ATOM     20  O   UNL     1       5.890  -5.228  20.411  0.00  0.00    -0.249 OA
ENDBRANCH  17  19
ENDBRANCH  15  17
ENDBRANCH   1  15
BRANCH   4  21
ATOM     21  C   UNL     1       7.310  -4.963  26.975  0.00  0.00    +0.372 C 
ATOM     22  O   UNL     1       6.732  -4.930  28.046  0.00  0.00    -0.242 OA
BRANCH  21  23
ATOM     23  O   UNL     1       8.254  -5.869  26.656  0.00  0.00    -0.475 OA
ATOM     24  H   UNL     1       8.319  -5.955  25.685  0.00  0.00    +0.296 HD
ENDBRANCH  21  23
ENDBRANCH   4  21
BRANCH   2  25
ATOM     25  C   UNL     1       5.708  -1.012  25.650  0.00  0.00    +0.187 C 
BRANCH  25  26
ATOM     26  O   UNL     1       4.391  -0.614  26.037  0.00  0.00    -0.385 OA
ATOM     27  H   UNL     1       4.463   0.335  26.264  0.00  0.00    +0.210 HD
ENDBRANCH  25  26
BRANCH  25  28
ATOM     28  C   UNL     1       6.406   0.187  24.970  0.00  0.00    +0.172 C 
BRANCH  28  29
ATOM     29  O   UNL     1       7.708   0.317  25.590  0.00  0.00    -0.387 OA
ATOM     30  H   UNL     1       7.680   1.131  26.126  0.00  0.00    +0.210 HD
ENDBRANCH  28  29
BRANCH  28  31
ATOM     31  C   UNL     1       5.693   1.532  25.123  0.00  0.00    +0.189 C 
BRANCH  31  32
ATOM     32  O   UNL     1       4.699   1.665  24.103  0.00  0.00    -0.392 OA
ATOM     33  H   UNL     1       3.861   1.383  24.511  0.00  0.00    +0.210 HD
ENDBRANCH  31  32
ENDBRANCH  28  31
ENDBRANCH  25  28
ENDBRANCH   2  25
TORSDOF 12
ENDMDL
