MODEL 1
REMARK VINA RESULT:      -6.2      0.000      0.000
REMARK  Name = 
REMARK  11 active torsions:
REMARK  status: ('A' for Active; 'I' for Inactive)
REMARK    1  A    between atoms: C_1  and  C_2
REMARK    2  A    between atoms: N_4  and  C_5
REMARK    3  A    between atoms: C_7  and  N_25
REMARK    4  A    between atoms: C_10  and  C_22
REMARK    5  A    between atoms: C_12  and  C_14
REMARK    6  A    between atoms: C_14  and  C_16
REMARK    7  A    between atoms: C_14  and  O_21
REMARK    8  A    between atoms: C_16  and  C_18
REMARK    9  A    between atoms: C_16  and  O_20
REMARK   10  A    between atoms: C_18  and  O_19
REMARK   11  A    between atoms: C_22  and  O_24
REMARK                            x       y       z     vdW  Elec       q    Type
REMARK                         _______ _______ _______ _____ _____    ______ ____
ROOT
ATOM      1  C   UNL     1       7.453  -2.145  24.269  0.00  0.00    +0.145 C 
ATOM      2  C   UNL     1       7.370  -3.523  23.529  0.00  0.00    +0.174 C 
ATOM      3  O   UNL     1       6.749  -4.567  24.300  0.00  0.00    -0.357 OA
ATOM      4  C   UNL     1       7.290  -4.704  25.614  0.00  0.00    +0.230 C 
ATOM      5  C   UNL     1       7.005  -3.445  26.414  0.00  0.00    +0.089 C 
ATOM      6  C   UNL     1       7.712  -2.242  25.797  0.00  0.00    +0.214 C 
ENDROOT
BRANCH   6   7
ATOM      7  N   UNL     1       7.197  -1.016  26.441  0.00  0.00    -0.108 NA
ATOM      8  C   UNL     1       7.957  -0.299  27.176  0.00  0.00    +0.377 C 
ATOM      9  N   UNL     1       7.460   0.780  27.820  0.00  0.00    -0.289 N 
ATOM     10  H   UNL     1       7.826   0.881  28.760  0.00  0.00    +0.255 HD
ATOM     11  H   UNL     1       6.444   0.753  27.830  0.00  0.00    +0.255 HD
ATOM     12  N   UNL     1       9.263  -0.449  27.491  0.00  0.00    -0.289 N 
ATOM     13  H   UNL     1       9.765   0.433  27.510  0.00  0.00    +0.255 HD
ATOM     14  H   UNL     1       9.770  -1.135  26.942  0.00  0.00    +0.255 HD
ENDBRANCH   6   7
BRANCH   1  17
ATOM     15  C   UNL     1       9.243   0.690  22.397  0.00  0.00    +0.109 C 
ATOM     16  C   UNL     1       8.086  -0.077  22.963  0.00  0.00    +0.210 C 
ATOM     17  N   UNL     1       8.435  -1.215  23.659  0.00  0.00    -0.307 N 
ATOM     18  H   UNL     1       9.317  -1.650  23.410  0.00  0.00    +0.149 HD
ATOM     19  O   UNL     1       6.941   0.351  22.867  0.00  0.00    -0.276 OA
ENDBRANCH   1  17
BRANCH   4  20
ATOM     20  C   UNL     1       8.775  -5.125  25.718  0.00  0.00    +0.334 C 
ATOM     21  O   UNL     1       9.454  -5.539  24.788  0.00  0.00    -0.248 OA
BRANCH  20  22
ATOM     22  O   UNL     1       9.272  -4.949  26.964  0.00  0.00    -0.479 OA
ATOM     23  H   UNL     1      10.241  -5.080  26.991  0.00  0.00    +0.295 HD
ENDBRANCH  20  22
ENDBRANCH   4  20
BRANCH   2  24
ATOM     24  C   UNL     1       6.678  -3.328  22.147  0.00  0.00    +0.176 C 
BRANCH  24  25
ATOM     25  O   UNL     1       5.647  -2.334  22.213  0.00  0.00    -0.387 OA
ATOM     26  H   UNL     1       5.109  -2.459  21.401  0.00  0.00    +0.210 HD
ENDBRANCH  24  25
BRANCH  24  27
ATOM     27  C   UNL     1       6.109  -4.612  21.511  0.00  0.00    +0.171 C 
BRANCH  27  28
ATOM     28  O   UNL     1       4.933  -4.996  22.270  0.00  0.00    -0.387 OA
ATOM     29  H   UNL     1       5.007  -5.954  22.438  0.00  0.00    +0.210 HD
ENDBRANCH  27  28
BRANCH  27  30
ATOM     30  C   UNL     1       7.048  -5.819  21.532  0.00  0.00    +0.189 C 
BRANCH  30  31
ATOM     31  O   UNL     1       6.402  -6.905  22.207  0.00  0.00    -0.392 OA
ATOM     32  H   UNL     1       5.452  -6.804  22.002  0.00  0.00    +0.210 HD
ENDBRANCH  30  31
ENDBRANCH  27  30
ENDBRANCH  24  27
ENDBRANCH   2  24
TORSDOF 10
ENDMDL
MODEL 2
REMARK VINA RESULT:      -5.8      2.519      5.243
REMARK  Name = 
REMARK  11 active torsions:
REMARK  status: ('A' for Active; 'I' for Inactive)
REMARK    1  A    between atoms: C_1  and  C_2
REMARK    2  A    between atoms: N_4  and  C_5
REMARK    3  A    between atoms: C_7  and  N_25
REMARK    4  A    between atoms: C_10  and  C_22
REMARK    5  A    between atoms: C_12  and  C_14
REMARK    6  A    between atoms: C_14  and  C_16
REMARK    7  A    between atoms: C_14  and  O_21
REMARK    8  A    between atoms: C_16  and  C_18
REMARK    9  A    between atoms: C_16  and  O_20
REMARK   10  A    between atoms: C_18  and  O_19
REMARK   11  A    between atoms: C_22  and  O_24
REMARK                            x       y       z     vdW  Elec       q    Type
REMARK                         _______ _______ _______ _____ _____    ______ ____
ROOT
ATOM      1  C   UNL     1       7.505  -3.223  24.479  0.00  0.00    +0.145 C 
ATOM      2  C   UNL     1       8.058  -1.895  23.858  0.00  0.00    +0.174 C 
ATOM      3  O   UNL     1       8.264  -0.841  24.816  0.00  0.00    -0.357 OA
ATOM      4  C   UNL     1       7.133  -0.602  25.653  0.00  0.00    +0.230 C 
ATOM      5  C   UNL     1       6.871  -1.825  26.514  0.00  0.00    +0.089 C 
ATOM      6  C   UNL     1       6.500  -3.025  25.647  0.00  0.00    +0.214 C 
ENDROOT
BRANCH   6   7
ATOM      7  N   UNL     1       6.518  -4.236  26.493  0.00  0.00    -0.108 NA
ATOM      8  C   UNL     1       7.622  -4.812  26.780  0.00  0.00    +0.377 C 
ATOM      9  N   UNL     1       7.624  -5.960  27.493  0.00  0.00    -0.289 N 
ATOM     10  H   UNL     1       8.306  -6.632  27.157  0.00  0.00    +0.255 HD
ATOM     11  H   UNL     1       6.695  -6.370  27.514  0.00  0.00    +0.255 HD
ATOM     12  N   UNL     1       8.890  -4.488  26.446  0.00  0.00    -0.289 N 
ATOM     13  H   UNL     1       9.546  -4.636  27.205  0.00  0.00    +0.255 HD
ATOM     14  H   UNL     1       9.015  -3.564  26.043  0.00  0.00    +0.255 HD
ENDBRANCH   6   7
BRANCH   1  17
ATOM     15  C   UNL     1       6.768  -6.037  21.973  0.00  0.00    +0.109 C 
ATOM     16  C   UNL     1       7.527  -5.291  23.029  0.00  0.00    +0.210 C 
ATOM     17  N   UNL     1       6.915  -4.136  23.469  0.00  0.00    -0.307 N 
ATOM     18  H   UNL     1       6.277  -3.683  22.825  0.00  0.00    +0.149 HD
ATOM     19  O   UNL     1       8.563  -5.748  23.499  0.00  0.00    -0.276 OA
ENDBRANCH   1  17
BRANCH   4  20
ATOM     20  C   UNL     1       5.843  -0.102  24.959  0.00  0.00    +0.334 C 
ATOM     21  O   UNL     1       4.723  -0.143  25.448  0.00  0.00    -0.248 OA
BRANCH  20  22
ATOM     22  O   UNL     1       6.090   0.432  23.740  0.00  0.00    -0.479 OA
ATOM     23  H   UNL     1       7.025   0.315  23.475  0.00  0.00    +0.295 HD
ENDBRANCH  20  22
ENDBRANCH   4  20
BRANCH   2  24
ATOM     24  C   UNL     1       9.349  -2.203  23.043  0.00  0.00    +0.176 C 
BRANCH  24  25
ATOM     25  O   UNL     1      10.264  -3.010  23.797  0.00  0.00    -0.387 OA
ATOM     26  H   UNL     1      10.177  -2.708  24.727  0.00  0.00    +0.210 HD
ENDBRANCH  24  25
BRANCH  24  27
ATOM     27  C   UNL     1      10.090  -0.968  22.496  0.00  0.00    +0.171 C 
BRANCH  27  28
ATOM     28  O   UNL     1      10.611  -0.227  23.630  0.00  0.00    -0.387 OA
ATOM     29  H   UNL     1       9.897   0.365  23.931  0.00  0.00    +0.210 HD
ENDBRANCH  27  28
BRANCH  27  30
ATOM     30  C   UNL     1       9.223   0.012  21.703  0.00  0.00    +0.189 C 
BRANCH  30  31
ATOM     31  O   UNL     1       8.832   1.091  22.560  0.00  0.00    -0.392 OA
ATOM     32  H   UNL     1       7.999   0.798  22.976  0.00  0.00    +0.210 HD
ENDBRANCH  30  31
ENDBRANCH  27  30
ENDBRANCH  24  27
ENDBRANCH   2  24
TORSDOF 10
ENDMDL
MODEL 3
REMARK VINA RESULT:      -5.8      5.232      8.424
REMARK  Name = 
REMARK  11 active torsions:
REMARK  status: ('A' for Active; 'I' for Inactive)
REMARK    1  A    between atoms: C_1  and  C_2
REMARK    2  A    between atoms: N_4  and  C_5
REMARK    3  A    between atoms: C_7  and  N_25
REMARK    4  A    between atoms: C_10  and  C_22
REMARK    5  A    between atoms: C_12  and  C_14
REMARK    6  A    between atoms: C_14  and  C_16
REMARK    7  A    between atoms: C_14  and  O_21
REMARK    8  A    between atoms: C_16  and  C_18
REMARK    9  A    between atoms: C_16  and  O_20
REMARK   10  A    between atoms: C_18  and  O_19
REMARK   11  A    between atoms: C_22  and  O_24
REMARK                            x       y       z     vdW  Elec       q    Type
REMARK                         _______ _______ _______ _____ _____    ______ ____
ROOT
ATOM      1  C   UNL     1       8.689   3.854  23.506  0.00  0.00    +0.145 C 
ATOM      2  C   UNL     1      10.239   3.664  23.636  0.00  0.00    +0.174 C 
ATOM      3  O   UNL     1      10.820   2.857  22.596  0.00  0.00    -0.357 OA
ATOM      4  C   UNL     1      10.150   1.612  22.399  0.00  0.00    +0.230 C 
ATOM      5  C   UNL     1       8.736   1.870  21.908  0.00  0.00    +0.089 C 
ATOM      6  C   UNL     1       7.925   2.615  22.964  0.00  0.00    +0.214 C 
ENDROOT
BRANCH   6   7
ATOM      7  N   UNL     1       6.663   3.072  22.348  0.00  0.00    -0.108 NA
ATOM      8  C   UNL     1       5.537   2.689  22.814  0.00  0.00    +0.377 C 
ATOM      9  N   UNL     1       4.388   3.052  22.201  0.00  0.00    -0.289 N 
ATOM     10  H   UNL     1       3.704   2.304  22.170  0.00  0.00    +0.255 HD
ATOM     11  H   UNL     1       4.578   3.406  21.268  0.00  0.00    +0.255 HD
ATOM     12  N   UNL     1       5.251   1.891  23.866  0.00  0.00    -0.289 N 
ATOM     13  H   UNL     1       4.449   2.213  24.397  0.00  0.00    +0.255 HD
ATOM     14  H   UNL     1       6.029   1.688  24.487  0.00  0.00    +0.255 HD
ENDBRANCH   6   7
BRANCH   1  17
ATOM     15  C   UNL     1       6.945   5.831  26.297  0.00  0.00    +0.109 C 
ATOM     16  C   UNL     1       7.493   5.566  24.927  0.00  0.00    +0.210 C 
ATOM     17  N   UNL     1       8.052   4.316  24.764  0.00  0.00    -0.307 N 
ATOM     18  H   UNL     1       8.406   3.861  25.598  0.00  0.00    +0.149 HD
ATOM     19  O   UNL     1       7.362   6.388  24.027  0.00  0.00    -0.276 OA
ENDBRANCH   1  17
BRANCH   4  20
ATOM     20  C   UNL     1      10.174   0.611  23.577  0.00  0.00    +0.334 C 
ATOM     21  O   UNL     1      10.878   0.714  24.572  0.00  0.00    -0.248 OA
BRANCH  20  22
ATOM     22  O   UNL     1       9.287  -0.398  23.411  0.00  0.00    -0.479 OA
ATOM     23  H   UNL     1       8.575  -0.157  22.786  0.00  0.00    +0.295 HD
ENDBRANCH  20  22
ENDBRANCH   4  20
BRANCH   2  24
ATOM     24  C   UNL     1      10.924   5.058  23.744  0.00  0.00    +0.176 C 
BRANCH  24  25
ATOM     25  O   UNL     1      10.294   6.019  22.886  0.00  0.00    -0.387 OA
ATOM     26  H   UNL     1      10.711   6.881  23.105  0.00  0.00    +0.210 HD
ENDBRANCH  24  25
BRANCH  24  27
ATOM     27  C   UNL     1      12.444   5.065  23.488  0.00  0.00    +0.171 C 
BRANCH  27  28
ATOM     28  O   UNL     1      13.035   6.055  24.367  0.00  0.00    -0.387 OA
ATOM     29  H   UNL     1      13.996   6.044  24.199  0.00  0.00    +0.210 HD
ENDBRANCH  27  28
BRANCH  27  30
ATOM     30  C   UNL     1      12.861   5.447  22.067  0.00  0.00    +0.189 C 
BRANCH  30  31
ATOM     31  O   UNL     1      14.128   6.115  22.113  0.00  0.00    -0.392 OA
ATOM     32  H   UNL     1      14.712   5.519  22.620  0.00  0.00    +0.210 HD
ENDBRANCH  30  31
ENDBRANCH  27  30
ENDBRANCH  24  27
ENDBRANCH   2  24
TORSDOF 10
ENDMDL
MODEL 4
REMARK VINA RESULT:      -5.8      2.627      4.142
REMARK  Name = 
REMARK  11 active torsions:
REMARK  status: ('A' for Active; 'I' for Inactive)
REMARK    1  A    between atoms: C_1  and  C_2
REMARK    2  A    between atoms: N_4  and  C_5
REMARK    3  A    between atoms: C_7  and  N_25
REMARK    4  A    between atoms: C_10  and  C_22
REMARK    5  A    between atoms: C_12  and  C_14
REMARK    6  A    between atoms: C_14  and  C_16
REMARK    7  A    between atoms: C_14  and  O_21
REMARK    8  A    between atoms: C_16  and  C_18
REMARK    9  A    between atoms: C_16  and  O_20
REMARK   10  A    between atoms: C_18  and  O_19
REMARK   11  A    between atoms: C_22  and  O_24
REMARK                            x       y       z     vdW  Elec       q    Type
REMARK                         _______ _______ _______ _____ _____    ______ ____
ROOT
ATOM      1  C   UNL     1       5.905  -4.340  24.064  0.00  0.00    +0.145 C 
ATOM      2  C   UNL     1       6.179  -5.594  24.963  0.00  0.00    +0.174 C 
ATOM      3  O   UNL     1       6.778  -5.285  26.234  0.00  0.00    -0.357 OA
ATOM      4  C   UNL     1       7.929  -4.445  26.133  0.00  0.00    +0.230 C 
ATOM      5  C   UNL     1       7.519  -3.088  25.587  0.00  0.00    +0.089 C 
ATOM      6  C   UNL     1       6.975  -3.219  24.168  0.00  0.00    +0.214 C 
ENDROOT
BRANCH   6   7
ATOM      7  N   UNL     1       6.350  -1.936  23.786  0.00  0.00    -0.108 NA
ATOM      8  C   UNL     1       7.007  -1.068  23.117  0.00  0.00    +0.377 C 
ATOM      9  N   UNL     1       6.455   0.133  22.835  0.00  0.00    -0.289 N 
ATOM     10  H   UNL     1       7.114   0.900  22.917  0.00  0.00    +0.255 HD
ATOM     11  H   UNL     1       5.638   0.296  23.416  0.00  0.00    +0.255 HD
ATOM     12  N   UNL     1       8.267  -1.108  22.632  0.00  0.00    -0.289 N 
ATOM     13  H   UNL     1       8.346  -0.695  21.708  0.00  0.00    +0.255 HD
ATOM     14  H   UNL     1       8.717  -2.018  22.653  0.00  0.00    +0.255 HD
ENDBRANCH   6   7
BRANCH   1  17
ATOM     15  C   UNL     1       6.159  -5.618  20.453  0.00  0.00    +0.109 C 
ATOM     16  C   UNL     1       6.565  -5.432  21.884  0.00  0.00    +0.210 C 
ATOM     17  N   UNL     1       5.685  -4.683  22.638  0.00  0.00    -0.307 N 
ATOM     18  H   UNL     1       5.105  -4.019  22.137  0.00  0.00    +0.149 HD
ATOM     19  O   UNL     1       7.561  -5.987  22.332  0.00  0.00    -0.276 OA
ENDBRANCH   1  17
BRANCH   4  20
ATOM     20  C   UNL     1       9.151  -5.021  25.380  0.00  0.00    +0.334 C 
ATOM     21  O   UNL     1       9.881  -4.381  24.636  0.00  0.00    -0.248 OA
BRANCH  20  22
ATOM     22  O   UNL     1       9.359  -6.327  25.663  0.00  0.00    -0.479 OA
ATOM     23  H   UNL     1       8.914  -6.595  26.492  0.00  0.00    +0.295 HD
ENDBRANCH  20  22
ENDBRANCH   4  20
BRANCH   2  24
ATOM     24  C   UNL     1       4.865  -6.414  25.122  0.00  0.00    +0.176 C 
BRANCH  24  25
ATOM     25  O   UNL     1       4.712  -7.368  24.062  0.00  0.00    -0.387 OA
ATOM     26  H   UNL     1       3.745  -7.431  23.902  0.00  0.00    +0.210 HD
ENDBRANCH  24  25
BRANCH  24  27
ATOM     27  C   UNL     1       3.578  -5.575  25.244  0.00  0.00    +0.171 C 
BRANCH  27  28
ATOM     28  O   UNL     1       3.028  -5.802  26.567  0.00  0.00    -0.387 OA
ATOM     29  H   UNL     1       2.661  -4.950  26.869  0.00  0.00    +0.210 HD
ENDBRANCH  27  28
BRANCH  27  30
ATOM     30  C   UNL     1       2.472  -5.935  24.251  0.00  0.00    +0.189 C 
BRANCH  30  31
ATOM     31  O   UNL     1       2.813  -5.416  22.960  0.00  0.00    -0.392 OA
ATOM     32  H   UNL     1       3.403  -6.085  22.563  0.00  0.00    +0.210 HD
ENDBRANCH  30  31
ENDBRANCH  27  30
ENDBRANCH  24  27
ENDBRANCH   2  24
TORSDOF 10
ENDMDL
MODEL 5
REMARK VINA RESULT:      -5.7      2.058      4.453
REMARK  Name = 
REMARK  11 active torsions:
REMARK  status: ('A' for Active; 'I' for Inactive)
REMARK    1  A    between atoms: C_1  and  C_2
REMARK    2  A    between atoms: N_4  and  C_5
REMARK    3  A    between atoms: C_7  and  N_25
REMARK    4  A    between atoms: C_10  and  C_22
REMARK    5  A    between atoms: C_12  and  C_14
REMARK    6  A    between atoms: C_14  and  C_16
REMARK    7  A    between atoms: C_14  and  O_21
REMARK    8  A    between atoms: C_16  and  C_18
REMARK    9  A    between atoms: C_16  and  O_20
REMARK   10  A    between atoms: C_18  and  O_19
REMARK   11  A    between atoms: C_22  and  O_24
REMARK                            x       y       z     vdW  Elec       q    Type
REMARK                         _______ _______ _______ _____ _____    ______ ____
ROOT
ATOM      1  C   UNL     1       8.064  -1.970  24.905  0.00  0.00    +0.145 C 
ATOM      2  C   UNL     1       8.776  -2.792  23.777  0.00  0.00    +0.174 C 
ATOM      3  O   UNL     1      10.152  -2.428  23.564  0.00  0.00    -0.357 OA
ATOM      4  C   UNL     1      10.351  -1.024  23.401  0.00  0.00    +0.230 C 
ATOM      5  C   UNL     1       9.983  -0.306  24.688  0.00  0.00    +0.089 C 
ATOM      6  C   UNL     1       8.499  -0.481  24.997  0.00  0.00    +0.214 C 
ENDROOT
BRANCH   6   7
ATOM      7  N   UNL     1       8.248  -0.002  26.372  0.00  0.00    -0.108 NA
ATOM      8  C   UNL     1       7.413   0.940  26.589  0.00  0.00    +0.377 C 
ATOM      9  N   UNL     1       7.243   1.423  27.840  0.00  0.00    -0.289 N 
ATOM     10  H   UNL     1       7.138   2.431  27.863  0.00  0.00    +0.255 HD
ATOM     11  H   UNL     1       8.004   1.126  28.444  0.00  0.00    +0.255 HD
ATOM     12  N   UNL     1       6.631   1.631  25.731  0.00  0.00    -0.289 N 
ATOM     13  H   UNL     1       5.706   1.816  26.104  0.00  0.00    +0.255 HD
ATOM     14  H   UNL     1       6.566   1.249  24.793  0.00  0.00    +0.255 HD
ENDBRANCH   6   7
BRANCH   1  17
ATOM     15  C   UNL     1       4.322  -2.486  25.588  0.00  0.00    +0.109 C 
ATOM     16  C   UNL     1       5.788  -2.436  25.896  0.00  0.00    +0.210 C 
ATOM     17  N   UNL     1       6.584  -2.049  24.838  0.00  0.00    -0.307 N 
ATOM     18  H   UNL     1       6.221  -2.219  23.907  0.00  0.00    +0.149 HD
ATOM     19  O   UNL     1       6.199  -2.647  27.030  0.00  0.00    -0.276 OA
ENDBRANCH   1  17
BRANCH   4  20
ATOM     20  C   UNL     1       9.693  -0.363  22.167  0.00  0.00    +0.334 C 
ATOM     21  O   UNL     1       9.234   0.771  22.140  0.00  0.00    -0.248 OA
BRANCH  20  22
ATOM     22  O   UNL     1       9.709  -1.171  21.082  0.00  0.00    -0.479 OA
ATOM     23  H   UNL     1       9.967  -2.086  21.314  0.00  0.00    +0.295 HD
ENDBRANCH  20  22
ENDBRANCH   4  20
BRANCH   2  24
ATOM     24  C   UNL     1       8.612  -4.314  24.064  0.00  0.00    +0.176 C 
BRANCH  24  25
ATOM     25  O   UNL     1       7.332  -4.794  23.632  0.00  0.00    -0.387 OA
ATOM     26  H   UNL     1       6.920  -5.198  24.427  0.00  0.00    +0.210 HD
ENDBRANCH  24  25
BRANCH  24  27
ATOM     27  C   UNL     1       8.848  -4.735  25.528  0.00  0.00    +0.171 C 
BRANCH  27  28
ATOM     28  O   UNL     1      10.047  -5.551  25.565  0.00  0.00    -0.387 OA
ATOM     29  H   UNL     1       9.768  -6.469  25.389  0.00  0.00    +0.210 HD
ENDBRANCH  27  28
BRANCH  27  30
ATOM     30  C   UNL     1       7.734  -5.579  26.148  0.00  0.00    +0.189 C 
BRANCH  30  31
ATOM     31  O   UNL     1       7.969  -5.706  27.556  0.00  0.00    -0.392 OA
ATOM     32  H   UNL     1       7.928  -4.795  27.905  0.00  0.00    +0.210 HD
ENDBRANCH  30  31
ENDBRANCH  27  30
ENDBRANCH  24  27
ENDBRANCH   2  24
TORSDOF 10
ENDMDL
MODEL 6
REMARK VINA RESULT:      -5.6      2.622      4.257
REMARK  Name = 
REMARK  11 active torsions:
REMARK  status: ('A' for Active; 'I' for Inactive)
REMARK    1  A    between atoms: C_1  and  C_2
REMARK    2  A    between atoms: N_4  and  C_5
REMARK    3  A    between atoms: C_7  and  N_25
REMARK    4  A    between atoms: C_10  and  C_22
REMARK    5  A    between atoms: C_12  and  C_14
REMARK    6  A    between atoms: C_14  and  C_16
REMARK    7  A    between atoms: C_14  and  O_21
REMARK    8  A    between atoms: C_16  and  C_18
REMARK    9  A    between atoms: C_16  and  O_20
REMARK   10  A    between atoms: C_18  and  O_19
REMARK   11  A    between atoms: C_22  and  O_24
REMARK                            x       y       z     vdW  Elec       q    Type
REMARK                         _______ _______ _______ _____ _____    ______ ____
ROOT
ATOM      1  C   UNL     1       6.663  -3.261  23.684  0.00  0.00    +0.145 C 
ATOM      2  C   UNL     1       6.376  -4.092  24.981  0.00  0.00    +0.174 C 
ATOM      3  O   UNL     1       7.097  -3.638  26.141  0.00  0.00    -0.357 OA
ATOM      4  C   UNL     1       8.498  -3.479  25.915  0.00  0.00    +0.230 C 
ATOM      5  C   UNL     1       8.724  -2.376  24.894  0.00  0.00    +0.089 C 
ATOM      6  C   UNL     1       8.126  -2.760  23.544  0.00  0.00    +0.214 C 
ENDROOT
BRANCH   6   7
ATOM      7  N   UNL     1       8.134  -1.567  22.673  0.00  0.00    -0.108 NA
ATOM      8  C   UNL     1       9.217  -1.172  22.122  0.00  0.00    +0.377 C 
ATOM      9  N   UNL     1       9.231  -0.038  21.386  0.00  0.00    -0.289 N 
ATOM     10  H   UNL     1      10.066   0.517  21.534  0.00  0.00    +0.255 HD
ATOM     11  H   UNL     1       8.396   0.512  21.563  0.00  0.00    +0.255 HD
ATOM     12  N   UNL     1      10.463  -1.692  22.171  0.00  0.00    -0.289 N 
ATOM     13  H   UNL     1      10.942  -1.648  21.277  0.00  0.00    +0.255 HD
ATOM     14  H   UNL     1      10.534  -2.624  22.567  0.00  0.00    +0.255 HD
ENDBRANCH   6   7
BRANCH   1  17
ATOM     15  C   UNL     1       6.273  -5.664  20.716  0.00  0.00    +0.109 C 
ATOM     16  C   UNL     1       6.802  -5.160  22.025  0.00  0.00    +0.210 C 
ATOM     17  N   UNL     1       6.259  -3.963  22.442  0.00  0.00    -0.307 N 
ATOM     18  H   UNL     1       5.896  -3.350  21.720  0.00  0.00    +0.149 HD
ATOM     19  O   UNL     1       7.591  -5.828  22.683  0.00  0.00    -0.276 OA
ENDBRANCH   1  17
BRANCH   4  20
ATOM     20  C   UNL     1       9.300  -4.755  25.567  0.00  0.00    +0.334 C 
ATOM     21  O   UNL     1      10.248  -4.799  24.795  0.00  0.00    -0.248 OA
BRANCH  20  22
ATOM     22  O   UNL     1       8.861  -5.838  26.249  0.00  0.00    -0.479 OA
ATOM     23  H   UNL     1       9.219  -6.670  25.880  0.00  0.00    +0.295 HD
ENDBRANCH  20  22
ENDBRANCH   4  20
BRANCH   2  24
ATOM     24  C   UNL     1       4.840  -4.144  25.234  0.00  0.00    +0.176 C 
BRANCH  24  25
ATOM     25  O   UNL     1       4.298  -2.833  25.440  0.00  0.00    -0.387 OA
ATOM     26  H   UNL     1       4.965  -2.212  25.074  0.00  0.00    +0.210 HD
ENDBRANCH  24  25
BRANCH  24  27
ATOM     27  C   UNL     1       4.395  -5.068  26.385  0.00  0.00    +0.171 C 
BRANCH  27  28
ATOM     28  O   UNL     1       4.763  -4.426  27.633  0.00  0.00    -0.387 OA
ATOM     29  H   UNL     1       5.281  -5.077  28.143  0.00  0.00    +0.210 HD
ENDBRANCH  27  28
BRANCH  27  30
ATOM     30  C   UNL     1       5.051  -6.449  26.401  0.00  0.00    +0.189 C 
BRANCH  30  31
ATOM     31  O   UNL     1       6.184  -6.420  27.277  0.00  0.00    -0.392 OA
ATOM     32  H   UNL     1       6.948  -6.225  26.701  0.00  0.00    +0.210 HD
ENDBRANCH  30  31
ENDBRANCH  27  30
ENDBRANCH  24  27
ENDBRANCH   2  24
TORSDOF 10
ENDMDL
MODEL 7
REMARK VINA RESULT:      -5.5      2.221      4.786
REMARK  Name = 
REMARK  11 active torsions:
REMARK  status: ('A' for Active; 'I' for Inactive)
REMARK    1  A    between atoms: C_1  and  C_2
REMARK    2  A    between atoms: N_4  and  C_5
REMARK    3  A    between atoms: C_7  and  N_25
REMARK    4  A    between atoms: C_10  and  C_22
REMARK    5  A    between atoms: C_12  and  C_14
REMARK    6  A    between atoms: C_14  and  C_16
REMARK    7  A    between atoms: C_14  and  O_21
REMARK    8  A    between atoms: C_16  and  C_18
REMARK    9  A    between atoms: C_16  and  O_20
REMARK   10  A    between atoms: C_18  and  O_19
REMARK   11  A    between atoms: C_22  and  O_24
REMARK                            x       y       z     vdW  Elec       q    Type
REMARK                         _______ _______ _______ _____ _____    ______ ____
ROOT
ATOM      1  C   UNL     1       7.024  -3.066  25.248  0.00  0.00    +0.145 C 
ATOM      2  C   UNL     1       6.595  -4.544  25.538  0.00  0.00    +0.174 C 
ATOM      3  O   UNL     1       7.114  -5.502  24.598  0.00  0.00    -0.357 OA
ATOM      4  C   UNL     1       6.886  -5.143  23.235  0.00  0.00    +0.230 C 
ATOM      5  C   UNL     1       7.648  -3.870  22.911  0.00  0.00    +0.089 C 
ATOM      6  C   UNL     1       7.123  -2.702  23.741  0.00  0.00    +0.214 C 
ENDROOT
BRANCH   6   7
ATOM      7  N   UNL     1       8.055  -1.566  23.592  0.00  0.00    -0.108 NA
ATOM      8  C   UNL     1       7.626  -0.414  23.244  0.00  0.00    +0.377 C 
ATOM      9  N   UNL     1       8.493   0.602  23.038  0.00  0.00    -0.289 N 
ATOM     10  H   UNL     1       8.248   1.174  22.237  0.00  0.00    +0.255 HD
ATOM     11  H   UNL     1       9.442   0.249  22.952  0.00  0.00    +0.255 HD
ATOM     12  N   UNL     1       6.369   0.008  22.981  0.00  0.00    -0.289 N 
ATOM     13  H   UNL     1       6.186   0.940  23.338  0.00  0.00    +0.255 HD
ATOM     14  H   UNL     1       5.627  -0.629  23.253  0.00  0.00    +0.255 HD
ENDBRANCH   6   7
BRANCH   1  17
ATOM     15  C   UNL     1       5.622  -0.241  27.437  0.00  0.00    +0.109 C 
ATOM     16  C   UNL     1       6.667  -1.119  26.817  0.00  0.00    +0.210 C 
ATOM     17  N   UNL     1       6.176  -2.066  25.943  0.00  0.00    -0.307 N 
ATOM     18  H   UNL     1       5.217  -2.364  26.083  0.00  0.00    +0.149 HD
ATOM     19  O   UNL     1       7.858  -0.924  27.029  0.00  0.00    -0.276 OA
ENDBRANCH   1  17
BRANCH   4  20
ATOM     20  C   UNL     1       5.413  -5.064  22.770  0.00  0.00    +0.334 C 
ATOM     21  O   UNL     1       4.887  -4.079  22.270  0.00  0.00    -0.248 OA
BRANCH  20  22
ATOM     22  O   UNL     1       4.757  -6.235  22.940  0.00  0.00    -0.479 OA
ATOM     23  H   UNL     1       3.938  -6.121  23.462  0.00  0.00    +0.295 HD
ENDBRANCH  20  22
ENDBRANCH   4  20
BRANCH   2  24
ATOM     24  C   UNL     1       6.962  -4.911  27.006  0.00  0.00    +0.176 C 
BRANCH  24  25
ATOM     25  O   UNL     1       7.925  -5.973  27.056  0.00  0.00    -0.387 OA
ATOM     26  H   UNL     1       8.353  -5.982  26.172  0.00  0.00    +0.210 HD
ENDBRANCH  24  25
BRANCH  24  27
ATOM     27  C   UNL     1       5.766  -5.264  27.914  0.00  0.00    +0.171 C 
BRANCH  27  28
ATOM     28  O   UNL     1       6.269  -5.417  29.266  0.00  0.00    -0.387 OA
ATOM     29  H   UNL     1       5.886  -6.243  29.617  0.00  0.00    +0.210 HD
ENDBRANCH  27  28
BRANCH  27  30
ATOM     30  C   UNL     1       5.053  -6.572  27.569  0.00  0.00    +0.189 C 
BRANCH  30  31
ATOM     31  O   UNL     1       5.559  -7.618  28.407  0.00  0.00    -0.392 OA
ATOM     32  H   UNL     1       5.824  -7.175  29.236  0.00  0.00    +0.210 HD
ENDBRANCH  30  31
ENDBRANCH  27  30
ENDBRANCH  24  27
ENDBRANCH   2  24
TORSDOF 10
ENDMDL
MODEL 8
REMARK VINA RESULT:      -5.5      2.597      4.750
REMARK  Name = 
REMARK  11 active torsions:
REMARK  status: ('A' for Active; 'I' for Inactive)
REMARK    1  A    between atoms: C_1  and  C_2
REMARK    2  A    between atoms: N_4  and  C_5
REMARK    3  A    between atoms: C_7  and  N_25
REMARK    4  A    between atoms: C_10  and  C_22
REMARK    5  A    between atoms: C_12  and  C_14
REMARK    6  A    between atoms: C_14  and  C_16
REMARK    7  A    between atoms: C_14  and  O_21
REMARK    8  A    between atoms: C_16  and  C_18
REMARK    9  A    between atoms: C_16  and  O_20
REMARK   10  A    between atoms: C_18  and  O_19
REMARK   11  A    between atoms: C_22  and  O_24
REMARK                            x       y       z     vdW  Elec       q    Type
REMARK                         _______ _______ _______ _____ _____    ______ ____
ROOT
ATOM      1  C   UNL     1       7.249  -3.224  23.951  0.00  0.00    +0.145 C 
ATOM      2  C   UNL     1       5.807  -2.650  24.165  0.00  0.00    +0.174 C 
ATOM      3  O   UNL     1       4.941  -3.506  24.931  0.00  0.00    -0.357 OA
ATOM      4  C   UNL     1       4.909  -4.854  24.459  0.00  0.00    +0.230 C 
ATOM      5  C   UNL     1       6.282  -5.482  24.627  0.00  0.00    +0.089 C 
ATOM      6  C   UNL     1       7.314  -4.764  23.763  0.00  0.00    +0.214 C 
ENDROOT
BRANCH   6   7
ATOM      7  N   UNL     1       8.659  -5.230  24.157  0.00  0.00    -0.108 NA
ATOM      8  C   UNL     1       9.077  -5.072  25.354  0.00  0.00    +0.377 C 
ATOM      9  N   UNL     1      10.335  -5.433  25.689  0.00  0.00    -0.289 N 
ATOM     10  H   UNL     1      10.782  -4.774  26.317  0.00  0.00    +0.255 HD
ATOM     11  H   UNL     1      10.899  -5.577  24.856  0.00  0.00    +0.255 HD
ATOM     12  N   UNL     1       8.464  -4.529  26.429  0.00  0.00    -0.289 N 
ATOM     13  H   UNL     1       8.658  -5.034  27.287  0.00  0.00    +0.255 HD
ATOM     14  H   UNL     1       7.467  -4.365  26.330  0.00  0.00    +0.255 HD
ENDBRANCH   6   7
BRANCH   1  17
ATOM     15  C   UNL     1       9.711  -1.252  21.763  0.00  0.00    +0.109 C 
ATOM     16  C   UNL     1       9.172  -1.882  23.011  0.00  0.00    +0.210 C 
ATOM     17  N   UNL     1       7.982  -2.560  22.846  0.00  0.00    -0.307 N 
ATOM     18  H   UNL     1       7.391  -2.263  22.077  0.00  0.00    +0.149 HD
ATOM     19  O   UNL     1       9.808  -1.848  24.058  0.00  0.00    -0.276 OA
ENDBRANCH   1  17
BRANCH   4  20
ATOM     20  C   UNL     1       4.344  -5.083  23.037  0.00  0.00    +0.334 C 
ATOM     21  O   UNL     1       5.012  -5.379  22.056  0.00  0.00    -0.248 OA
BRANCH  20  22
ATOM     22  O   UNL     1       2.997  -4.957  22.995  0.00  0.00    -0.479 OA
ATOM     23  H   UNL     1       2.711  -4.040  23.179  0.00  0.00    +0.295 HD
ENDBRANCH  20  22
ENDBRANCH   4  20
BRANCH   2  24
ATOM     24  C   UNL     1       5.904  -1.221  24.777  0.00  0.00    +0.176 C 
BRANCH  24  25
ATOM     25  O   UNL     1       6.208  -0.241  23.775  0.00  0.00    -0.387 OA
ATOM     26  H   UNL     1       5.472  -0.292  23.125  0.00  0.00    +0.210 HD
ENDBRANCH  24  25
BRANCH  24  27
ATOM     27  C   UNL     1       6.894  -1.075  25.949  0.00  0.00    +0.171 C 
BRANCH  27  28
ATOM     28  O   UNL     1       6.332  -1.773  27.090  0.00  0.00    -0.387 OA
ATOM     29  H   UNL     1       5.537  -2.240  26.771  0.00  0.00    +0.210 HD
ENDBRANCH  27  28
BRANCH  27  30
ATOM     30  C   UNL     1       7.151   0.361  26.407  0.00  0.00    +0.189 C 
BRANCH  30  31
ATOM     31  O   UNL     1       8.373   0.828  25.822  0.00  0.00    -0.392 OA
ATOM     32  H   UNL     1       8.128   1.632  25.325  0.00  0.00    +0.210 HD
ENDBRANCH  30  31
ENDBRANCH  27  30
ENDBRANCH  24  27
ENDBRANCH   2  24
TORSDOF 10
ENDMDL
MODEL 9
REMARK VINA RESULT:      -5.5      2.273      4.880
REMARK  Name = 
REMARK  11 active torsions:
REMARK  status: ('A' for Active; 'I' for Inactive)
REMARK    1  A    between atoms: C_1  and  C_2
REMARK    2  A    between atoms: N_4  and  C_5
REMARK    3  A    between atoms: C_7  and  N_25
REMARK    4  A    between atoms: C_10  and  C_22
REMARK    5  A    between atoms: C_12  and  C_14
REMARK    6  A    between atoms: C_14  and  C_16
REMARK    7  A    between atoms: C_14  and  O_21
REMARK    8  A    between atoms: C_16  and  C_18
REMARK    9  A    between atoms: C_16  and  O_20
REMARK   10  A    between atoms: C_18  and  O_19
REMARK   11  A    between atoms: C_22  and  O_24
REMARK                            x       y       z     vdW  Elec       q    Type
REMARK                         _______ _______ _______ _____ _____    ______ ____
ROOT
ATOM      1  C   UNL     1       7.204  -3.204  24.247  0.00  0.00    +0.145 C 
ATOM      2  C   UNL     1       7.445  -2.977  22.716  0.00  0.00    +0.174 C 
ATOM      3  O   UNL     1       6.239  -2.938  21.931  0.00  0.00    -0.357 OA
ATOM      4  C   UNL     1       5.367  -4.043  22.171  0.00  0.00    +0.230 C 
ATOM      5  C   UNL     1       4.867  -3.992  23.604  0.00  0.00    +0.089 C 
ATOM      6  C   UNL     1       6.024  -4.156  24.585  0.00  0.00    +0.214 C 
ENDROOT
BRANCH   6   7
ATOM      7  N   UNL     1       5.535  -3.836  25.942  0.00  0.00    -0.108 NA
ATOM      8  C   UNL     1       5.656  -4.682  26.892  0.00  0.00    +0.377 C 
ATOM      9  N   UNL     1       5.140  -4.412  28.112  0.00  0.00    -0.289 N 
ATOM     10  H   UNL     1       4.707  -5.220  28.545  0.00  0.00    +0.255 HD
ATOM     11  H   UNL     1       4.487  -3.636  28.060  0.00  0.00    +0.255 HD
ATOM     12  N   UNL     1       6.209  -5.915  26.901  0.00  0.00    -0.289 N 
ATOM     13  H   UNL     1       6.733  -6.103  27.749  0.00  0.00    +0.255 HD
ATOM     14  H   UNL     1       6.760  -6.154  26.082  0.00  0.00    +0.255 HD
ENDBRANCH   6   7
BRANCH   1  17
ATOM     15  C   UNL     1      10.217  -5.129  25.646  0.00  0.00    +0.109 C 
ATOM     16  C   UNL     1       9.022  -4.876  24.777  0.00  0.00    +0.210 C 
ATOM     17  N   UNL     1       8.421  -3.650  24.968  0.00  0.00    -0.307 N 
ATOM     18  H   UNL     1       8.544  -3.218  25.878  0.00  0.00    +0.149 HD
ATOM     19  O   UNL     1       8.688  -5.683  23.917  0.00  0.00    -0.276 OA
ENDBRANCH   1  17
BRANCH   4  20
ATOM     20  C   UNL     1       5.899  -5.447  21.799  0.00  0.00    +0.334 C 
ATOM     21  O   UNL     1       6.919  -5.665  21.160  0.00  0.00    -0.248 OA
BRANCH  20  22
ATOM     22  O   UNL     1       5.122  -6.438  22.296  0.00  0.00    -0.479 OA
ATOM     23  H   UNL     1       5.465  -7.323  22.058  0.00  0.00    +0.295 HD
ENDBRANCH  20  22
ENDBRANCH   4  20
BRANCH   2  24
ATOM     24  C   UNL     1       8.315  -1.702  22.512  0.00  0.00    +0.176 C 
BRANCH  24  25
ATOM     25  O   UNL     1       9.687  -1.944  22.851  0.00  0.00    -0.387 OA
ATOM     26  H   UNL     1       9.673  -2.690  23.489  0.00  0.00    +0.210 HD
ENDBRANCH  24  25
BRANCH  24  27
ATOM     27  C   UNL     1       7.820  -0.444  23.253  0.00  0.00    +0.171 C 
BRANCH  27  28
ATOM     28  O   UNL     1       6.475  -0.160  22.790  0.00  0.00    -0.387 OA
ATOM     29  H   UNL     1       6.458  -0.357  21.835  0.00  0.00    +0.210 HD
ENDBRANCH  27  28
BRANCH  27  30
ATOM     30  C   UNL     1       8.639   0.823  23.001  0.00  0.00    +0.189 C 
BRANCH  30  31
ATOM     31  O   UNL     1       9.169   0.782  21.671  0.00  0.00    -0.392 OA
ATOM     32  H   UNL     1       8.848  -0.060  21.294  0.00  0.00    +0.210 HD
ENDBRANCH  30  31
ENDBRANCH  27  30
ENDBRANCH  24  27
ENDBRANCH   2  24
TORSDOF 10
ENDMDL
