MODEL 1
REMARK VINA RESULT:      -6.1      0.000      0.000
REMARK  Name = 
REMARK  6 active torsions:
REMARK  status: ('A' for Active; 'I' for Inactive)
REMARK    1  A    between atoms: C6_3  and  N6_19
REMARK    2  A    between atoms: N9_7  and  C1*_10
REMARK    3  A    between atoms: C2*_11  and  O2*_18
REMARK    4  A    between atoms: C3*_12  and  O3*_17
REMARK    5  A    between atoms: C4*_13  and  C5*_15
REMARK    6  A    between atoms: C5*_15  and  O5*_16
REMARK                            x       y       z     vdW  Elec       q    Type
REMARK                         _______ _______ _______ _____ _____    ______ ____
ROOT
ATOM      1  C2    A A   1       5.884  -3.386  21.481  0.00  0.00    +0.225 A 
ATOM      2  N3    A A   1       6.810  -2.637  22.121  0.00  0.00    -0.216 NA
ATOM      3  C4    A A   1       7.580  -3.396  22.919  0.00  0.00    +0.167 A 
ATOM      4  N9    A A   1       8.613  -3.007  23.722  0.00  0.00    -0.286 N 
ATOM      5  C8    A A   1       9.069  -4.135  24.367  0.00  0.00    +0.203 A 
ATOM      6  N7    A A   1       8.427  -5.221  23.991  0.00  0.00    -0.231 NA
ATOM      7  C5    A A   1       7.497  -4.772  23.083  0.00  0.00    +0.147 A 
ATOM      8  C6    A A   1       6.521  -5.445  22.328  0.00  0.00    +0.147 A 
ATOM      9  N1    A A   1       5.699  -4.720  21.539  0.00  0.00    -0.219 NA
ENDROOT
BRANCH   4  10
ATOM     10  C1*   A A   1       9.233  -1.714  23.888  0.00  0.00    +0.253 C 
ATOM     11  O4*   A A   1       8.217  -0.709  24.121  0.00  0.00    -0.346 OA
ATOM     12  C4*   A A   1       8.781   0.551  23.656  0.00  0.00    +0.177 C 
ATOM     13  C3*   A A   1      10.279   0.288  23.392  0.00  0.00    +0.178 C 
ATOM     14  C2*   A A   1      10.208  -1.132  22.845  0.00  0.00    +0.195 C 
BRANCH  13  15
ATOM     15  O3*   A A   1      11.095   0.281  24.568  0.00  0.00    -0.386 OA
ATOM     16  H3*   A A   1      11.148  -0.642  24.905  0.00  0.00    +0.210 HD
ENDBRANCH  13  15
BRANCH  14  17
ATOM     17  O2*   A A   1       9.721  -1.023  21.506  0.00  0.00    -0.385 OA
ATOM     18  H2*   A A   1       8.762  -1.227  21.517  0.00  0.00    +0.210 HD
ENDBRANCH  14  17
BRANCH  12  19
ATOM     19  C5*   A A   1       8.485   1.638  24.682  0.00  0.00    +0.190 C 
BRANCH  19  20
ATOM     20  O5*   A A   1       8.603   1.100  26.002  0.00  0.00    -0.392 OA
ATOM     21  H5*   A A   1       8.266   1.800  26.597  0.00  0.00    +0.210 HD
ENDBRANCH  19  20
ENDBRANCH  12  19
ENDBRANCH   4  10
BRANCH   8  22
ATOM     22  N6    A A   1       6.353  -6.824  22.364  0.00  0.00    -0.341 N 
ATOM     23  H61   A A   1       5.382  -7.112  22.351  0.00  0.00    +0.144 HD
ATOM     24  H62   A A   1       6.999  -7.305  21.753  0.00  0.00    +0.144 HD
ENDBRANCH   8  22
TORSDOF 6
ENDMDL
MODEL 2
REMARK VINA RESULT:      -6.0      2.691      3.344
REMARK  Name = 
REMARK  6 active torsions:
REMARK  status: ('A' for Active; 'I' for Inactive)
REMARK    1  A    between atoms: C6_3  and  N6_19
REMARK    2  A    between atoms: N9_7  and  C1*_10
REMARK    3  A    between atoms: C2*_11  and  O2*_18
REMARK    4  A    between atoms: C3*_12  and  O3*_17
REMARK    5  A    between atoms: C4*_13  and  C5*_15
REMARK    6  A    between atoms: C5*_15  and  O5*_16
REMARK                            x       y       z     vdW  Elec       q    Type
REMARK                         _______ _______ _______ _____ _____    ______ ____
ROOT
ATOM      1  C2    A A   1       6.648  -2.489  26.669  0.00  0.00    +0.225 A 
ATOM      2  N3    A A   1       7.185  -1.660  25.745  0.00  0.00    -0.216 NA
ATOM      3  C4    A A   1       8.211  -2.248  25.106  0.00  0.00    +0.167 A 
ATOM      4  N9    A A   1       9.001  -1.734  24.117  0.00  0.00    -0.286 N 
ATOM      5  C8    A A   1       9.934  -2.698  23.806  0.00  0.00    +0.203 A 
ATOM      6  N7    A A   1       9.760  -3.805  24.496  0.00  0.00    -0.231 NA
ATOM      7  C5    A A   1       8.683  -3.537  25.309  0.00  0.00    +0.147 A 
ATOM      8  C6    A A   1       8.013  -4.317  26.267  0.00  0.00    +0.147 A 
ATOM      9  N1    A A   1       6.997  -3.758  26.961  0.00  0.00    -0.219 NA
ENDROOT
BRANCH   4  10
ATOM     10  C1*   A A   1       8.921  -0.476  23.416  0.00  0.00    +0.253 C 
ATOM     11  O4*   A A   1       9.164   0.616  24.335  0.00  0.00    -0.346 OA
ATOM     12  C4*   A A   1       8.476   1.773  23.781  0.00  0.00    +0.177 C 
ATOM     13  C3*   A A   1       8.046   1.381  22.350  0.00  0.00    +0.178 C 
ATOM     14  C2*   A A   1       7.692  -0.084  22.570  0.00  0.00    +0.195 C 
BRANCH  13  15
ATOM     15  O3*   A A   1       9.092   1.454  21.376  0.00  0.00    -0.386 OA
ATOM     16  H3*   A A   1       8.697   1.321  20.485  0.00  0.00    +0.210 HD
ENDBRANCH  13  15
BRANCH  14  17
ATOM     17  O2*   A A   1       6.428  -0.097  23.238  0.00  0.00    -0.385 OA
ATOM     18  H2*   A A   1       6.010  -0.968  23.075  0.00  0.00    +0.210 HD
ENDBRANCH  14  17
BRANCH  12  19
ATOM     19  C5*   A A   1       9.391   2.988  23.872  0.00  0.00    +0.190 C 
BRANCH  19  20
ATOM     20  O5*   A A   1       9.028   3.941  22.869  0.00  0.00    -0.392 OA
ATOM     21  H5*   A A   1       8.194   4.344  23.184  0.00  0.00    +0.210 HD
ENDBRANCH  19  20
ENDBRANCH  12  19
ENDBRANCH   4  10
BRANCH   8  22
ATOM     22  N6    A A   1       8.353  -5.635  26.543  0.00  0.00    -0.341 N 
ATOM     23  H61   A A   1       8.885  -6.077  25.803  0.00  0.00    +0.144 HD
ATOM     24  H62   A A   1       8.670  -5.758  27.494  0.00  0.00    +0.144 HD
ENDBRANCH   8  22
TORSDOF 6
ENDMDL
MODEL 3
REMARK VINA RESULT:      -6.0      2.085      3.108
REMARK  Name = 
REMARK  6 active torsions:
REMARK  status: ('A' for Active; 'I' for Inactive)
REMARK    1  A    between atoms: C6_3  and  N6_19
REMARK    2  A    between atoms: N9_7  and  C1*_10
REMARK    3  A    between atoms: C2*_11  and  O2*_18
REMARK    4  A    between atoms: C3*_12  and  O3*_17
REMARK    5  A    between atoms: C4*_13  and  C5*_15
REMARK    6  A    between atoms: C5*_15  and  O5*_16
REMARK                            x       y       z     vdW  Elec       q    Type
REMARK                         _______ _______ _______ _____ _____    ______ ____
ROOT
ATOM      1  C2    A A   1       8.588  -4.760  26.661  0.00  0.00    +0.225 A 
ATOM      2  N3    A A   1       8.801  -3.677  25.881  0.00  0.00    -0.216 NA
ATOM      3  C4    A A   1       7.815  -3.527  24.980  0.00  0.00    +0.167 A 
ATOM      4  N9    A A   1       7.679  -2.561  24.025  0.00  0.00    -0.286 N 
ATOM      5  C8    A A   1       6.527  -2.846  23.326  0.00  0.00    +0.203 A 
ATOM      6  N7    A A   1       5.899  -3.900  23.803  0.00  0.00    -0.231 NA
ATOM      7  C5    A A   1       6.693  -4.331  24.840  0.00  0.00    +0.147 A 
ATOM      8  C6    A A   1       6.561  -5.402  25.741  0.00  0.00    +0.147 A 
ATOM      9  N1    A A   1       7.545  -5.615  26.642  0.00  0.00    -0.219 NA
ENDROOT
BRANCH   4  10
ATOM     10  C1*   A A   1       8.479  -1.391  23.757  0.00  0.00    +0.253 C 
ATOM     11  O4*   A A   1       8.041  -0.766  22.526  0.00  0.00    -0.346 OA
ATOM     12  C4*   A A   1       9.197  -0.053  22.000  0.00  0.00    +0.177 C 
ATOM     13  C3*   A A   1      10.260  -0.059  23.120  0.00  0.00    +0.178 C 
ATOM     14  C2*   A A   1      10.019  -1.444  23.709  0.00  0.00    +0.195 C 
BRANCH  13  15
ATOM     15  O3*   A A   1      10.045   0.914  24.147  0.00  0.00    -0.386 OA
ATOM     16  H3*   A A   1       9.106   0.858  24.437  0.00  0.00    +0.210 HD
ENDBRANCH  13  15
BRANCH  14  17
ATOM     17  O2*   A A   1      10.597  -2.376  22.792  0.00  0.00    -0.385 OA
ATOM     18  H2*   A A   1      11.056  -3.067  23.314  0.00  0.00    +0.210 HD
ENDBRANCH  14  17
BRANCH  12  19
ATOM     19  C5*   A A   1       8.759   1.328  21.531  0.00  0.00    +0.190 C 
BRANCH  19  20
ATOM     20  O5*   A A   1       9.893   2.197  21.466  0.00  0.00    -0.392 OA
ATOM     21  H5*   A A   1       9.998   2.415  20.518  0.00  0.00    +0.210 HD
ENDBRANCH  19  20
ENDBRANCH  12  19
ENDBRANCH   4  10
BRANCH   8  22
ATOM     22  N6    A A   1       5.470  -6.262  25.741  0.00  0.00    -0.341 N 
ATOM     23  H61   A A   1       5.034  -6.359  26.650  0.00  0.00    +0.144 HD
ATOM     24  H62   A A   1       4.871  -6.121  24.940  0.00  0.00    +0.144 HD
ENDBRANCH   8  22
TORSDOF 6
ENDMDL
MODEL 4
REMARK VINA RESULT:      -6.0      2.505      3.430
REMARK  Name = 
REMARK  6 active torsions:
REMARK  status: ('A' for Active; 'I' for Inactive)
REMARK    1  A    between atoms: C6_3  and  N6_19
REMARK    2  A    between atoms: N9_7  and  C1*_10
REMARK    3  A    between atoms: C2*_11  and  O2*_18
REMARK    4  A    between atoms: C3*_12  and  O3*_17
REMARK    5  A    between atoms: C4*_13  and  C5*_15
REMARK    6  A    between atoms: C5*_15  and  O5*_16
REMARK                            x       y       z     vdW  Elec       q    Type
REMARK                         _______ _______ _______ _____ _____    ______ ____
ROOT
ATOM      1  C2    A A   1       6.050  -3.097  26.720  0.00  0.00    +0.225 A 
ATOM      2  N3    A A   1       6.893  -2.685  25.747  0.00  0.00    -0.216 NA
ATOM      3  C4    A A   1       7.915  -3.545  25.596  0.00  0.00    +0.167 A 
ATOM      4  N9    A A   1       8.963  -3.473  24.723  0.00  0.00    -0.286 N 
ATOM      5  C8    A A   1       9.765  -4.565  24.967  0.00  0.00    +0.203 A 
ATOM      6  N7    A A   1       9.273  -5.350  25.902  0.00  0.00    -0.231 NA
ATOM      7  C5    A A   1       8.114  -4.724  26.299  0.00  0.00    +0.147 A 
ATOM      8  C6    A A   1       7.143  -5.068  27.255  0.00  0.00    +0.147 A 
ATOM      9  N1    A A   1       6.116  -4.216  27.468  0.00  0.00    -0.219 NA
ENDROOT
BRANCH   4  10
ATOM     10  C1*   A A   1       9.238  -2.527  23.669  0.00  0.00    +0.253 C 
ATOM     11  O4*   A A   1       9.404  -1.202  24.228  0.00  0.00    -0.346 OA
ATOM     12  C4*   A A   1       9.046  -0.268  23.170  0.00  0.00    +0.177 C 
ATOM     13  C3*   A A   1       8.925  -1.101  21.875  0.00  0.00    +0.178 C 
ATOM     14  C2*   A A   1       8.321  -2.382  22.437  0.00  0.00    +0.195 C 
BRANCH  13  15
ATOM     15  O3*   A A   1      10.176  -1.422  21.258  0.00  0.00    -0.386 OA
ATOM     16  H3*   A A   1      10.901  -1.103  21.840  0.00  0.00    +0.210 HD
ENDBRANCH  13  15
BRANCH  14  17
ATOM     17  O2*   A A   1       6.945  -2.098  22.696  0.00  0.00    -0.385 OA
ATOM     18  H2*   A A   1       6.407  -2.578  22.033  0.00  0.00    +0.210 HD
ENDBRANCH  14  17
BRANCH  12  19
ATOM     19  C5*   A A   1      10.076   0.853  23.124  0.00  0.00    +0.190 C 
BRANCH  19  20
ATOM     20  O5*   A A   1      10.047   1.483  21.840  0.00  0.00    -0.392 OA
ATOM     21  H5*   A A   1       9.757   2.402  22.009  0.00  0.00    +0.210 HD
ENDBRANCH  19  20
ENDBRANCH  12  19
ENDBRANCH   4  10
BRANCH   8  22
ATOM     22  N6    A A   1       7.195  -6.238  28.002  0.00  0.00    -0.341 N 
ATOM     23  H61   A A   1       7.904  -6.222  28.726  0.00  0.00    +0.144 HD
ATOM     24  H62   A A   1       6.276  -6.579  28.246  0.00  0.00    +0.144 HD
ENDBRANCH   8  22
TORSDOF 6
ENDMDL
MODEL 5
REMARK VINA RESULT:      -5.9      3.166      5.520
REMARK  Name = 
REMARK  6 active torsions:
REMARK  status: ('A' for Active; 'I' for Inactive)
REMARK    1  A    between atoms: C6_3  and  N6_19
REMARK    2  A    between atoms: N9_7  and  C1*_10
REMARK    3  A    between atoms: C2*_11  and  O2*_18
REMARK    4  A    between atoms: C3*_12  and  O3*_17
REMARK    5  A    between atoms: C4*_13  and  C5*_15
REMARK    6  A    between atoms: C5*_15  and  O5*_16
REMARK                            x       y       z     vdW  Elec       q    Type
REMARK                         _______ _______ _______ _____ _____    ______ ____
ROOT
ATOM      1  C2    A A   1       6.833   1.347  22.540  0.00  0.00    +0.225 A 
ATOM      2  N3    A A   1       6.831   0.109  23.083  0.00  0.00    -0.216 NA
ATOM      3  C4    A A   1       8.059  -0.437  23.049  0.00  0.00    +0.167 A 
ATOM      4  N9    A A   1       8.454  -1.664  23.496  0.00  0.00    -0.286 N 
ATOM      5  C8    A A   1       9.797  -1.782  23.213  0.00  0.00    +0.203 A 
ATOM      6  N7    A A   1      10.290  -0.695  22.660  0.00  0.00    -0.231 NA
ATOM      7  C5    A A   1       9.213   0.155  22.556  0.00  0.00    +0.147 A 
ATOM      8  C6    A A   1       9.096   1.464  22.057  0.00  0.00    +0.147 A 
ATOM      9  N1    A A   1       7.874   2.041  22.038  0.00  0.00    -0.219 NA
ENDROOT
BRANCH   4  10
ATOM     10  C1*   A A   1       7.717  -2.684  24.201  0.00  0.00    +0.253 C 
ATOM     11  O4*   A A   1       8.605  -3.409  25.087  0.00  0.00    -0.346 OA
ATOM     12  C4*   A A   1       8.018  -4.731  25.256  0.00  0.00    +0.177 C 
ATOM     13  C3*   A A   1       6.599  -4.659  24.649  0.00  0.00    +0.178 C 
ATOM     14  C2*   A A   1       6.862  -3.735  23.466  0.00  0.00    +0.195 C 
BRANCH  13  15
ATOM     15  O3*   A A   1       5.623  -4.045  25.496  0.00  0.00    -0.386 OA
ATOM     16  H3*   A A   1       6.066  -3.759  26.326  0.00  0.00    +0.210 HD
ENDBRANCH  13  15
BRANCH  14  17
ATOM     17  O2*   A A   1       7.530  -4.525  22.480  0.00  0.00    -0.385 OA
ATOM     18  H2*   A A   1       7.046  -5.373  22.393  0.00  0.00    +0.210 HD
ENDBRANCH  14  17
BRANCH  12  19
ATOM     19  C5*   A A   1       8.073  -5.116  26.729  0.00  0.00    +0.190 C 
BRANCH  19  20
ATOM     20  O5*   A A   1       7.038  -6.061  27.019  0.00  0.00    -0.392 OA
ATOM     21  H5*   A A   1       7.286  -6.460  27.877  0.00  0.00    +0.210 HD
ENDBRANCH  19  20
ENDBRANCH  12  19
ENDBRANCH   4  10
BRANCH   8  22
ATOM     22  N6    A A   1      10.175   2.190  21.571  0.00  0.00    -0.341 N 
ATOM     23  H61   A A   1      11.028   1.647  21.504  0.00  0.00    +0.144 HD
ATOM     24  H62   A A   1       9.923   2.775  20.787  0.00  0.00    +0.144 HD
ENDBRANCH   8  22
TORSDOF 6
ENDMDL
MODEL 6
REMARK VINA RESULT:      -5.8      3.199      5.487
REMARK  Name = 
REMARK  6 active torsions:
REMARK  status: ('A' for Active; 'I' for Inactive)
REMARK    1  A    between atoms: C6_3  and  N6_19
REMARK    2  A    between atoms: N9_7  and  C1*_10
REMARK    3  A    between atoms: C2*_11  and  O2*_18
REMARK    4  A    between atoms: C3*_12  and  O3*_17
REMARK    5  A    between atoms: C4*_13  and  C5*_15
REMARK    6  A    between atoms: C5*_15  and  O5*_16
REMARK                            x       y       z     vdW  Elec       q    Type
REMARK                         _______ _______ _______ _____ _____    ______ ____
ROOT
ATOM      1  C2    A A   1       6.929   0.908  23.647  0.00  0.00    +0.225 A 
ATOM      2  N3    A A   1       7.181  -0.324  24.142  0.00  0.00    -0.216 NA
ATOM      3  C4    A A   1       8.337  -0.813  23.660  0.00  0.00    +0.167 A 
ATOM      4  N9    A A   1       8.924  -2.017  23.922  0.00  0.00    -0.286 N 
ATOM      5  C8    A A   1      10.077  -2.075  23.171  0.00  0.00    +0.203 A 
ATOM      6  N7    A A   1      10.285  -0.970  22.487  0.00  0.00    -0.231 NA
ATOM      7  C5    A A   1       9.205  -0.172  22.789  0.00  0.00    +0.147 A 
ATOM      8  C6    A A   1       8.855   1.126  22.379  0.00  0.00    +0.147 A 
ATOM      9  N1    A A   1       7.684   1.646  22.809  0.00  0.00    -0.219 NA
ENDROOT
BRANCH   4  10
ATOM     10  C1*   A A   1       8.540  -3.065  24.837  0.00  0.00    +0.253 C 
ATOM     11  O4*   A A   1       7.286  -3.652  24.414  0.00  0.00    -0.346 OA
ATOM     12  C4*   A A   1       6.664  -4.188  25.617  0.00  0.00    +0.177 C 
ATOM     13  C3*   A A   1       7.738  -4.133  26.725  0.00  0.00    +0.178 C 
ATOM     14  C2*   A A   1       8.434  -2.829  26.357  0.00  0.00    +0.195 C 
BRANCH  13  15
ATOM     15  O3*   A A   1       8.699  -5.191  26.671  0.00  0.00    -0.386 OA
ATOM     16  H3*   A A   1       8.224  -6.036  26.506  0.00  0.00    +0.210 HD
ENDBRANCH  13  15
BRANCH  14  17
ATOM     17  O2*   A A   1       7.566  -1.776  26.780  0.00  0.00    -0.385 OA
ATOM     18  H2*   A A   1       6.727  -1.857  26.281  0.00  0.00    +0.210 HD
ENDBRANCH  14  17
BRANCH  12  19
ATOM     19  C5*   A A   1       6.114  -5.576  25.317  0.00  0.00    +0.190 C 
BRANCH  19  20
ATOM     20  O5*   A A   1       6.043  -6.338  26.525  0.00  0.00    -0.392 OA
ATOM     21  H5*   A A   1       6.949  -6.675  26.672  0.00  0.00    +0.210 HD
ENDBRANCH  19  20
ENDBRANCH  12  19
ENDBRANCH   4  10
BRANCH   8  22
ATOM     22  N6    A A   1       9.650   1.898  21.541  0.00  0.00    -0.341 N 
ATOM     23  H61   A A   1      10.179   2.609  22.031  0.00  0.00    +0.144 HD
ATOM     24  H62   A A   1      10.132   1.341  20.849  0.00  0.00    +0.144 HD
ENDBRANCH   8  22
TORSDOF 6
ENDMDL
MODEL 7
REMARK VINA RESULT:      -5.8      1.923      2.636
REMARK  Name = 
REMARK  6 active torsions:
REMARK  status: ('A' for Active; 'I' for Inactive)
REMARK    1  A    between atoms: C6_3  and  N6_19
REMARK    2  A    between atoms: N9_7  and  C1*_10
REMARK    3  A    between atoms: C2*_11  and  O2*_18
REMARK    4  A    between atoms: C3*_12  and  O3*_17
REMARK    5  A    between atoms: C4*_13  and  C5*_15
REMARK    6  A    between atoms: C5*_15  and  O5*_16
REMARK                            x       y       z     vdW  Elec       q    Type
REMARK                         _______ _______ _______ _____ _____    ______ ____
ROOT
ATOM      1  C2    A A   1       6.378  -4.614  26.061  0.00  0.00    +0.225 A 
ATOM      2  N3    A A   1       7.067  -3.624  25.452  0.00  0.00    -0.216 NA
ATOM      3  C4    A A   1       7.015  -3.750  24.115  0.00  0.00    +0.167 A 
ATOM      4  N9    A A   1       7.585  -2.952  23.164  0.00  0.00    -0.286 N 
ATOM      5  C8    A A   1       7.281  -3.505  21.940  0.00  0.00    +0.203 A 
ATOM      6  N7    A A   1       6.517  -4.571  22.047  0.00  0.00    -0.231 NA
ATOM      7  C5    A A   1       6.341  -4.731  23.402  0.00  0.00    +0.147 A 
ATOM      8  C6    A A   1       5.623  -5.681  24.149  0.00  0.00    +0.147 A 
ATOM      9  N1    A A   1       5.674  -5.616  25.498  0.00  0.00    -0.219 NA
ENDROOT
BRANCH   4  10
ATOM     10  C1*   A A   1       8.319  -1.717  23.298  0.00  0.00    +0.253 C 
ATOM     11  O4*   A A   1       8.240  -0.962  22.065  0.00  0.00    -0.346 OA
ATOM     12  C4*   A A   1       9.432  -0.128  22.024  0.00  0.00    +0.177 C 
ATOM     13  C3*   A A   1      10.080  -0.223  23.423  0.00  0.00    +0.178 C 
ATOM     14  C2*   A A   1       9.793  -1.683  23.751  0.00  0.00    +0.195 C 
BRANCH  13  15
ATOM     15  O3*   A A   1       9.461   0.596  24.419  0.00  0.00    -0.386 OA
ATOM     16  H3*   A A   1      10.066   0.657  25.192  0.00  0.00    +0.210 HD
ENDBRANCH  13  15
BRANCH  14  17
ATOM     17  O2*   A A   1      10.714  -2.457  22.980  0.00  0.00    -0.385 OA
ATOM     18  H2*   A A   1      10.965  -3.243  23.509  0.00  0.00    +0.210 HD
ENDBRANCH  14  17
BRANCH  12  19
ATOM     19  C5*   A A   1       9.042   1.278  21.586  0.00  0.00    +0.190 C 
BRANCH  19  20
ATOM     20  O5*   A A   1      10.175   2.146  21.684  0.00  0.00    -0.392 OA
ATOM     21  H5*   A A   1      10.042   2.825  20.993  0.00  0.00    +0.210 HD
ENDBRANCH  19  20
ENDBRANCH  12  19
ENDBRANCH   4  10
BRANCH   8  22
ATOM     22  N6    A A   1       4.872  -6.694  23.566  0.00  0.00    -0.341 N 
ATOM     23  H61   A A   1       4.884  -6.672  22.553  0.00  0.00    +0.144 HD
ATOM     24  H62   A A   1       5.008  -7.585  24.023  0.00  0.00    +0.144 HD
ENDBRANCH   8  22
TORSDOF 6
ENDMDL
MODEL 8
REMARK VINA RESULT:      -5.8      1.876      2.501
REMARK  Name = 
REMARK  6 active torsions:
REMARK  status: ('A' for Active; 'I' for Inactive)
REMARK    1  A    between atoms: C6_3  and  N6_19
REMARK    2  A    between atoms: N9_7  and  C1*_10
REMARK    3  A    between atoms: C2*_11  and  O2*_18
REMARK    4  A    between atoms: C3*_12  and  O3*_17
REMARK    5  A    between atoms: C4*_13  and  C5*_15
REMARK    6  A    between atoms: C5*_15  and  O5*_16
REMARK                            x       y       z     vdW  Elec       q    Type
REMARK                         _______ _______ _______ _____ _____    ______ ____
ROOT
ATOM      1  C2    A A   1       7.536  -4.368  22.860  0.00  0.00    +0.225 A 
ATOM      2  N3    A A   1       7.953  -3.082  22.857  0.00  0.00    -0.216 NA
ATOM      3  C4    A A   1       8.226  -2.659  24.104  0.00  0.00    +0.167 A 
ATOM      4  N9    A A   1       8.666  -1.430  24.506  0.00  0.00    -0.286 N 
ATOM      5  C8    A A   1       8.770  -1.470  25.879  0.00  0.00    +0.203 A 
ATOM      6  N7    A A   1       8.471  -2.654  26.370  0.00  0.00    -0.231 NA
ATOM      7  C5    A A   1       8.134  -3.406  25.269  0.00  0.00    +0.147 A 
ATOM      8  C6    A A   1       7.732  -4.747  25.137  0.00  0.00    +0.147 A 
ATOM      9  N1    A A   1       7.411  -5.207  23.907  0.00  0.00    -0.219 NA
ENDROOT
BRANCH   4  10
ATOM     10  C1*   A A   1       9.045  -0.274  23.731  0.00  0.00    +0.253 C 
ATOM     11  O4*   A A   1       7.882   0.277  23.068  0.00  0.00    -0.346 OA
ATOM     12  C4*   A A   1       8.378   0.964  21.884  0.00  0.00    +0.177 C 
ATOM     13  C3*   A A   1       9.914   1.028  22.028  0.00  0.00    +0.178 C 
ATOM     14  C2*   A A   1      10.176  -0.322  22.684  0.00  0.00    +0.195 C 
BRANCH  13  15
ATOM     15  O3*   A A   1      10.385   2.057  22.904  0.00  0.00    -0.386 OA
ATOM     16  H3*   A A   1      10.047   1.875  23.809  0.00  0.00    +0.210 HD
ENDBRANCH  13  15
BRANCH  14  17
ATOM     17  O2*   A A   1      10.049  -1.302  21.652  0.00  0.00    -0.385 OA
ATOM     18  H2*   A A   1       9.095  -1.416  21.460  0.00  0.00    +0.210 HD
ENDBRANCH  14  17
BRANCH  12  19
ATOM     19  C5*   A A   1       7.683   2.314  21.764  0.00  0.00    +0.190 C 
BRANCH  19  20
ATOM     20  O5*   A A   1       7.653   2.958  23.041  0.00  0.00    -0.392 OA
ATOM     21  H5*   A A   1       7.034   3.708  22.939  0.00  0.00    +0.210 HD
ENDBRANCH  19  20
ENDBRANCH  12  19
ENDBRANCH   4  10
BRANCH   8  22
ATOM     22  N6    A A   1       7.635  -5.619  26.213  0.00  0.00    -0.341 N 
ATOM     23  H61   A A   1       7.239  -5.193  27.043  0.00  0.00    +0.144 HD
ATOM     24  H62   A A   1       7.295  -6.530  25.939  0.00  0.00    +0.144 HD
ENDBRANCH   8  22
TORSDOF 6
ENDMDL
MODEL 9
REMARK VINA RESULT:      -5.8      1.619      2.654
REMARK  Name = 
REMARK  6 active torsions:
REMARK  status: ('A' for Active; 'I' for Inactive)
REMARK    1  A    between atoms: C6_3  and  N6_19
REMARK    2  A    between atoms: N9_7  and  C1*_10
REMARK    3  A    between atoms: C2*_11  and  O2*_18
REMARK    4  A    between atoms: C3*_12  and  O3*_17
REMARK    5  A    between atoms: C4*_13  and  C5*_15
REMARK    6  A    between atoms: C5*_15  and  O5*_16
REMARK                            x       y       z     vdW  Elec       q    Type
REMARK                         _______ _______ _______ _____ _____    ______ ____
ROOT
ATOM      1  C2    A A   1       5.615  -2.981  22.642  0.00  0.00    +0.225 A 
ATOM      2  N3    A A   1       6.321  -1.871  22.950  0.00  0.00    -0.216 NA
ATOM      3  C4    A A   1       7.580  -2.182  23.308  0.00  0.00    +0.167 A 
ATOM      4  N9    A A   1       8.586  -1.341  23.687  0.00  0.00    -0.286 N 
ATOM      5  C8    A A   1       9.676  -2.128  23.988  0.00  0.00    +0.203 A 
ATOM      6  N7    A A   1       9.444  -3.407  23.778  0.00  0.00    -0.231 NA
ATOM      7  C5    A A   1       8.138  -3.452  23.349  0.00  0.00    +0.147 A 
ATOM      8  C6    A A   1       7.313  -4.523  22.962  0.00  0.00    +0.147 A 
ATOM      9  N1    A A   1       6.030  -4.263  22.629  0.00  0.00    -0.219 NA
ENDROOT
BRANCH   4  10
ATOM     10  C1*   A A   1       8.633   0.100  23.734  0.00  0.00    +0.253 C 
ATOM     11  O4*   A A   1       9.976   0.558  23.442  0.00  0.00    -0.346 OA
ATOM     12  C4*   A A   1      10.114   1.851  24.098  0.00  0.00    +0.177 C 
ATOM     13  C3*   A A   1       8.697   2.260  24.559  0.00  0.00    +0.178 C 
ATOM     14  C2*   A A   1       8.144   0.898  24.959  0.00  0.00    +0.195 C 
BRANCH  13  15
ATOM     15  O3*   A A   1       7.870   2.799  23.523  0.00  0.00    -0.386 OA
ATOM     16  H3*   A A   1       8.212   2.485  22.656  0.00  0.00    +0.210 HD
ENDBRANCH  13  15
BRANCH  14  17
ATOM     17  O2*   A A   1       8.745   0.573  26.214  0.00  0.00    -0.385 OA
ATOM     18  H2*   A A   1       8.083   0.736  26.917  0.00  0.00    +0.210 HD
ENDBRANCH  14  17
BRANCH  12  19
ATOM     19  C5*   A A   1      10.790   2.825  23.141  0.00  0.00    +0.190 C 
BRANCH  19  20
ATOM     20  O5*   A A   1      10.370   2.555  21.801  0.00  0.00    -0.392 OA
ATOM     21  H5*   A A   1       9.399   2.445  21.851  0.00  0.00    +0.210 HD
ENDBRANCH  19  20
ENDBRANCH  12  19
ENDBRANCH   4  10
BRANCH   8  22
ATOM     22  N6    A A   1       7.753  -5.839  22.918  0.00  0.00    -0.341 N 
ATOM     23  H61   A A   1       7.003  -6.517  22.986  0.00  0.00    +0.144 HD
ATOM     24  H62   A A   1       8.460  -5.985  22.211  0.00  0.00    +0.144 HD
ENDBRANCH   8  22
TORSDOF 6
ENDMDL
