MODEL 1
REMARK VINA RESULT:      -7.5      0.000      0.000
REMARK  Name = 
REMARK  10 active torsions:
REMARK  status: ('A' for Active; 'I' for Inactive)
REMARK    1  A    between atoms: C_1  and  C_2
REMARK    2  A    between atoms: C_2  and  C_3
REMARK    3  A    between atoms: C_2  and  C_4
REMARK    4  A    between atoms: C_4  and  C_6
REMARK    5  A    between atoms: C_4  and  N_8
REMARK    6  A    between atoms: C_6  and  O_7
REMARK    7  A    between atoms: C_10  and  C_28
REMARK    8  A    between atoms: C_17  and  C_19
REMARK    9  A    between atoms: C_19  and  C_20
REMARK   10  A    between atoms: C_28  and  O_30
REMARK                            x       y       z     vdW  Elec       q    Type
REMARK                         _______ _______ _______ _____ _____    ______ ____
ROOT
ATOM      1  N   UNL     1       5.895  -4.749  26.580  0.00  0.00    -0.340 N 
ATOM      2  C   UNL     1       6.966  -4.125  25.878  0.00  0.00    +0.053 A 
ATOM      3  C   UNL     1       7.890  -3.236  26.445  0.00  0.00    +0.027 A 
ATOM      4  C   UNL     1       8.936  -2.661  25.696  0.00  0.00    +0.006 A 
ATOM      5  C   UNL     1       9.106  -2.950  24.340  0.00  0.00    -0.042 A 
ATOM      6  C   UNL     1       8.191  -3.815  23.742  0.00  0.00    +0.017 A 
ATOM      7  C   UNL     1       7.146  -4.387  24.497  0.00  0.00    +0.046 A 
ATOM      8  C   UNL     1       6.224  -5.304  23.795  0.00  0.00    +0.203 A 
ATOM      9  O   UNL     1       6.356  -5.570  22.601  0.00  0.00    -0.286 OA
ATOM     10  C   UNL     1       5.130  -5.914  24.564  0.00  0.00    +0.122 A 
ATOM     11  C   UNL     1       5.050  -5.601  25.865  0.00  0.00    +0.105 A 
ENDROOT
BRANCH  10  12
ATOM     12  C   UNL     1       4.144  -6.841  23.973  0.00  0.00    +0.342 C 
ATOM     13  O   UNL     1       3.772  -7.866  24.531  0.00  0.00    -0.245 OA
BRANCH  12  14
ATOM     14  O   UNL     1       3.678  -6.475  22.761  0.00  0.00    -0.477 OA
ATOM     15  H   UNL     1       4.329  -6.595  22.025  0.00  0.00    +0.295 HD
ENDBRANCH  12  14
ENDBRANCH  10  12
BRANCH   1  16
ATOM     16  C   UNL     1       5.738  -4.555  28.071  0.00  0.00    +0.115 C 
BRANCH  16  18
ATOM     17  C   UNL     1       4.111  -3.997  29.975  0.00  0.00    +0.009 C 
ATOM     18  C   UNL     1       4.354  -3.937  28.456  0.00  0.00    +0.008 C 
ATOM     19  C   UNL     1       4.215  -2.480  28.002  0.00  0.00    +0.009 C 
ENDBRANCH  16  18
BRANCH  16  20
ATOM     20  C   UNL     1       5.972  -5.895  28.820  0.00  0.00    +0.181 C 
BRANCH  20  21
ATOM     21  O   UNL     1       7.225  -6.491  28.496  0.00  0.00    -0.393 OA
ATOM     22  H   UNL     1       7.077  -7.023  27.695  0.00  0.00    +0.209 HD
ENDBRANCH  20  21
ENDBRANCH  16  20
ENDBRANCH   1  16
BRANCH   5  23
ATOM     23  C   UNL     1      10.248  -2.353  23.550  0.00  0.00    +0.073 C 
BRANCH  23  24
ATOM     24  C   UNL     1       9.957  -1.003  22.942  0.00  0.00    -0.006 A 
ATOM     25  C   UNL     1       9.307  -0.894  21.703  0.00  0.00    +0.007 A 
ATOM     26  C   UNL     1       9.076   0.361  21.129  0.00  0.00    +0.002 A 
ATOM     27  C   UNL     1       9.485   1.520  21.790  0.00  0.00    +0.023 A 
ATOM     28  C   UNL     1      10.120   1.424  23.028  0.00  0.00    +0.076 A 
ATOM     29 CL   UNL     1      10.631   2.859  23.831  0.00  0.00    -0.081 Cl
ATOM     30  C   UNL     1      10.351   0.170  23.597  0.00  0.00    +0.145 A 
ATOM     31  F   UNL     1      10.981   0.078  24.778  0.00  0.00    -0.204 F 
ENDBRANCH  23  24
ENDBRANCH   5  23
TORSDOF 8
ENDMDL
MODEL 2
REMARK VINA RESULT:      -7.2      2.168      3.634
REMARK  Name = 
REMARK  10 active torsions:
REMARK  status: ('A' for Active; 'I' for Inactive)
REMARK    1  A    between atoms: C_1  and  C_2
REMARK    2  A    between atoms: C_2  and  C_3
REMARK    3  A    between atoms: C_2  and  C_4
REMARK    4  A    between atoms: C_4  and  C_6
REMARK    5  A    between atoms: C_4  and  N_8
REMARK    6  A    between atoms: C_6  and  O_7
REMARK    7  A    between atoms: C_10  and  C_28
REMARK    8  A    between atoms: C_17  and  C_19
REMARK    9  A    between atoms: C_19  and  C_20
REMARK   10  A    between atoms: C_28  and  O_30
REMARK                            x       y       z     vdW  Elec       q    Type
REMARK                         _______ _______ _______ _____ _____    ______ ____
ROOT
ATOM      1  N   UNL     1       4.290  -4.723  25.363  0.00  0.00    -0.340 N 
ATOM      2  C   UNL     1       5.576  -4.238  24.986  0.00  0.00    +0.053 A 
ATOM      3  C   UNL     1       5.834  -3.420  23.877  0.00  0.00    +0.027 A 
ATOM      4  C   UNL     1       7.130  -2.965  23.564  0.00  0.00    +0.006 A 
ATOM      5  C   UNL     1       8.231  -3.307  24.351  0.00  0.00    -0.042 A 
ATOM      6  C   UNL     1       8.011  -4.136  25.450  0.00  0.00    +0.017 A 
ATOM      7  C   UNL     1       6.711  -4.589  25.757  0.00  0.00    +0.046 A 
ATOM      8  C   UNL     1       6.557  -5.454  26.945  0.00  0.00    +0.203 A 
ATOM      9  O   UNL     1       7.515  -5.768  27.649  0.00  0.00    -0.286 OA
ATOM     10  C   UNL     1       5.210  -5.934  27.285  0.00  0.00    +0.122 A 
ATOM     11  C   UNL     1       4.203  -5.542  26.491  0.00  0.00    +0.105 A 
ENDROOT
BRANCH  10  12
ATOM     12  C   UNL     1       4.930  -6.805  28.444  0.00  0.00    +0.342 C 
ATOM     13  O   UNL     1       4.048  -6.570  29.261  0.00  0.00    -0.245 OA
BRANCH  12  14
ATOM     14  O   UNL     1       5.723  -7.893  28.539  0.00  0.00    -0.477 OA
ATOM     15  H   UNL     1       5.239  -8.753  28.470  0.00  0.00    +0.295 HD
ENDBRANCH  12  14
ENDBRANCH  10  12
BRANCH   1  16
ATOM     16  C   UNL     1       3.054  -4.288  24.610  0.00  0.00    +0.115 C 
BRANCH  16  18
ATOM     17  C   UNL     1       0.940  -5.032  23.361  0.00  0.00    +0.009 C 
ATOM     18  C   UNL     1       2.248  -5.495  24.026  0.00  0.00    +0.008 C 
ATOM     19  C   UNL     1       3.055  -6.298  23.000  0.00  0.00    +0.009 C 
ENDBRANCH  16  18
BRANCH  16  20
ATOM     20  C   UNL     1       2.150  -3.405  25.513  0.00  0.00    +0.181 C 
BRANCH  20  21
ATOM     21  O   UNL     1       2.818  -2.238  25.980  0.00  0.00    -0.393 OA
ATOM     22  H   UNL     1       3.058  -2.411  26.907  0.00  0.00    +0.209 HD
ENDBRANCH  20  21
ENDBRANCH  16  20
ENDBRANCH   1  16
BRANCH   5  23
ATOM     23  C   UNL     1       9.615  -2.790  24.028  0.00  0.00    +0.073 C 
BRANCH  23  24
ATOM     24  C   UNL     1       9.640  -1.479  23.280  0.00  0.00    -0.006 A 
ATOM     25  C   UNL     1       9.402  -1.430  21.898  0.00  0.00    +0.007 A 
ATOM     26  C   UNL     1       9.466  -0.215  21.208  0.00  0.00    +0.002 A 
ATOM     27  C   UNL     1       9.760   0.965  21.893  0.00  0.00    +0.023 A 
ATOM     28  C   UNL     1       9.985   0.930  23.268  0.00  0.00    +0.076 A 
ATOM     29 CL   UNL     1      10.358   2.390  24.102  0.00  0.00    -0.081 Cl
ATOM     30  C   UNL     1       9.923  -0.284  23.954  0.00  0.00    +0.145 A 
ATOM     31  F   UNL     1      10.160  -0.320  25.274  0.00  0.00    -0.204 F 
ENDBRANCH  23  24
ENDBRANCH   5  23
TORSDOF 8
ENDMDL
MODEL 3
REMARK VINA RESULT:      -6.9      1.774      2.318
REMARK  Name = 
REMARK  10 active torsions:
REMARK  status: ('A' for Active; 'I' for Inactive)
REMARK    1  A    between atoms: C_1  and  C_2
REMARK    2  A    between atoms: C_2  and  C_3
REMARK    3  A    between atoms: C_2  and  C_4
REMARK    4  A    between atoms: C_4  and  C_6
REMARK    5  A    between atoms: C_4  and  N_8
REMARK    6  A    between atoms: C_6  and  O_7
REMARK    7  A    between atoms: C_10  and  C_28
REMARK    8  A    between atoms: C_17  and  C_19
REMARK    9  A    between atoms: C_19  and  C_20
REMARK   10  A    between atoms: C_28  and  O_30
REMARK                            x       y       z     vdW  Elec       q    Type
REMARK                         _______ _______ _______ _____ _____    ______ ____
ROOT
ATOM      1  N   UNL     1       6.584  -3.861  25.664  0.00  0.00    -0.340 N 
ATOM      2  C   UNL     1       7.416  -2.813  25.175  0.00  0.00    +0.053 A 
ATOM      3  C   UNL     1       8.098  -1.886  25.978  0.00  0.00    +0.027 A 
ATOM      4  C   UNL     1       8.916  -0.878  25.431  0.00  0.00    +0.006 A 
ATOM      5  C   UNL     1       9.093  -0.751  24.052  0.00  0.00    -0.042 A 
ATOM      6  C   UNL     1       8.412  -1.645  23.225  0.00  0.00    +0.017 A 
ATOM      7  C   UNL     1       7.594  -2.651  23.779  0.00  0.00    +0.046 A 
ATOM      8  C   UNL     1       6.917  -3.568  22.839  0.00  0.00    +0.203 A 
ATOM      9  O   UNL     1       7.058  -3.471  21.621  0.00  0.00    -0.286 OA
ATOM     10  C   UNL     1       6.062  -4.627  23.395  0.00  0.00    +0.122 A 
ATOM     11  C   UNL     1       5.963  -4.694  24.730  0.00  0.00    +0.105 A 
ENDROOT
BRANCH  10  12
ATOM     12  C   UNL     1       5.331  -5.600  22.558  0.00  0.00    +0.342 C 
ATOM     13  O   UNL     1       4.109  -5.688  22.547  0.00  0.00    -0.245 OA
BRANCH  12  14
ATOM     14  O   UNL     1       6.115  -6.394  21.799  0.00  0.00    -0.477 OA
ATOM     15  H   UNL     1       6.014  -7.360  21.988  0.00  0.00    +0.295 HD
ENDBRANCH  12  14
ENDBRANCH  10  12
BRANCH   1  16
ATOM     16  C   UNL     1       6.453  -4.108  27.149  0.00  0.00    +0.115 C 
BRANCH  16  18
ATOM     17  C   UNL     1       4.783  -4.558  29.045  0.00  0.00    +0.009 C 
ATOM     18  C   UNL     1       4.990  -3.905  27.666  0.00  0.00    +0.008 C 
ATOM     19  C   UNL     1       4.605  -2.426  27.770  0.00  0.00    +0.009 C 
ENDBRANCH  16  18
BRANCH  16  20
ATOM     20  C   UNL     1       6.975  -5.525  27.512  0.00  0.00    +0.181 C 
BRANCH  20  21
ATOM     21  O   UNL     1       8.340  -5.713  27.151  0.00  0.00    -0.393 OA
ATOM     22  H   UNL     1       8.742  -4.828  27.125  0.00  0.00    +0.209 HD
ENDBRANCH  20  21
ENDBRANCH  16  20
ENDBRANCH   1  16
BRANCH   5  23
ATOM     23  C   UNL     1       9.996   0.314  23.473  0.00  0.00    +0.073 C 
BRANCH  23  24
ATOM     24  C   UNL     1       9.418   1.707  23.485  0.00  0.00    -0.006 A 
ATOM     25  C   UNL     1       8.043   1.921  23.300  0.00  0.00    +0.007 A 
ATOM     26  C   UNL     1       7.522   3.220  23.274  0.00  0.00    +0.002 A 
ATOM     27  C   UNL     1       8.368   4.317  23.441  0.00  0.00    +0.023 A 
ATOM     28  C   UNL     1       9.733   4.116  23.638  0.00  0.00    +0.076 A 
ATOM     29 CL   UNL     1      10.770   5.477  23.831  0.00  0.00    -0.081 Cl
ATOM     30  C   UNL     1      10.250   2.820  23.661  0.00  0.00    +0.145 A 
ATOM     31  F   UNL     1      11.567   2.628  23.830  0.00  0.00    -0.204 F 
ENDBRANCH  23  24
ENDBRANCH   5  23
TORSDOF 8
ENDMDL
MODEL 4
REMARK VINA RESULT:      -6.8      2.122      2.958
REMARK  Name = 
REMARK  10 active torsions:
REMARK  status: ('A' for Active; 'I' for Inactive)
REMARK    1  A    between atoms: C_1  and  C_2
REMARK    2  A    between atoms: C_2  and  C_3
REMARK    3  A    between atoms: C_2  and  C_4
REMARK    4  A    between atoms: C_4  and  C_6
REMARK    5  A    between atoms: C_4  and  N_8
REMARK    6  A    between atoms: C_6  and  O_7
REMARK    7  A    between atoms: C_10  and  C_28
REMARK    8  A    between atoms: C_17  and  C_19
REMARK    9  A    between atoms: C_19  and  C_20
REMARK   10  A    between atoms: C_28  and  O_30
REMARK                            x       y       z     vdW  Elec       q    Type
REMARK                         _______ _______ _______ _____ _____    ______ ____
ROOT
ATOM      1  N   UNL     1       6.913  -3.778  25.134  0.00  0.00    -0.340 N 
ATOM      2  C   UNL     1       7.578  -2.739  24.420  0.00  0.00    +0.053 A 
ATOM      3  C   UNL     1       8.404  -1.765  25.001  0.00  0.00    +0.027 A 
ATOM      4  C   UNL     1       9.043  -0.769  24.235  0.00  0.00    +0.006 A 
ATOM      5  C   UNL     1       8.887  -0.704  22.849  0.00  0.00    -0.042 A 
ATOM      6  C   UNL     1       8.056  -1.646  22.244  0.00  0.00    +0.017 A 
ATOM      7  C   UNL     1       7.419  -2.639  23.016  0.00  0.00    +0.046 A 
ATOM      8  C   UNL     1       6.566  -3.610  22.301  0.00  0.00    +0.203 A 
ATOM      9  O   UNL     1       6.414  -3.568  21.081  0.00  0.00    -0.286 OA
ATOM     10  C   UNL     1       5.894  -4.656  23.086  0.00  0.00    +0.122 A 
ATOM     11  C   UNL     1       6.114  -4.663  24.408  0.00  0.00    +0.105 A 
ENDROOT
BRANCH  10  12
ATOM     12  C   UNL     1       5.014  -5.680  22.486  0.00  0.00    +0.342 C 
ATOM     13  O   UNL     1       3.816  -5.758  22.728  0.00  0.00    -0.245 OA
BRANCH  12  14
ATOM     14  O   UNL     1       5.632  -6.533  21.642  0.00  0.00    -0.477 OA
ATOM     15  H   UNL     1       6.541  -6.247  21.374  0.00  0.00    +0.295 HD
ENDBRANCH  12  14
ENDBRANCH  10  12
BRANCH   1  16
ATOM     16  C   UNL     1       7.141  -3.958  26.617  0.00  0.00    +0.115 C 
BRANCH  16  18
ATOM     17  C   UNL     1       4.813  -2.907  26.857  0.00  0.00    +0.009 C 
ATOM     18  C   UNL     1       5.811  -3.924  27.439  0.00  0.00    +0.008 C 
ATOM     19  C   UNL     1       5.125  -5.293  27.501  0.00  0.00    +0.009 C 
ENDBRANCH  16  18
BRANCH  16  20
ATOM     20  C   UNL     1       7.926  -5.269  26.890  0.00  0.00    +0.181 C 
BRANCH  20  21
ATOM     21  O   UNL     1       9.319  -5.043  27.081  0.00  0.00    -0.393 OA
ATOM     22  H   UNL     1       9.774  -5.503  26.354  0.00  0.00    +0.209 HD
ENDBRANCH  20  21
ENDBRANCH  16  20
ENDBRANCH   1  16
BRANCH   5  23
ATOM     23  C   UNL     1       9.600   0.349  22.031  0.00  0.00    +0.073 C 
BRANCH  23  24
ATOM     24  C   UNL     1       9.395   1.766  22.508  0.00  0.00    -0.006 A 
ATOM     25  C   UNL     1      10.404   2.446  23.206  0.00  0.00    +0.007 A 
ATOM     26  C   UNL     1      10.190   3.746  23.678  0.00  0.00    +0.002 A 
ATOM     27  C   UNL     1       8.968   4.382  23.451  0.00  0.00    +0.023 A 
ATOM     28  C   UNL     1       7.963   3.720  22.748  0.00  0.00    +0.076 A 
ATOM     29 CL   UNL     1       6.456   4.508  22.482  0.00  0.00    -0.081 Cl
ATOM     30  C   UNL     1       8.179   2.422  22.280  0.00  0.00    +0.145 A 
ATOM     31  F   UNL     1       7.203   1.778  21.622  0.00  0.00    -0.204 F 
ENDBRANCH  23  24
ENDBRANCH   5  23
TORSDOF 8
ENDMDL
MODEL 5
REMARK VINA RESULT:      -6.8      4.786      7.686
REMARK  Name = 
REMARK  10 active torsions:
REMARK  status: ('A' for Active; 'I' for Inactive)
REMARK    1  A    between atoms: C_1  and  C_2
REMARK    2  A    between atoms: C_2  and  C_3
REMARK    3  A    between atoms: C_2  and  C_4
REMARK    4  A    between atoms: C_4  and  C_6
REMARK    5  A    between atoms: C_4  and  N_8
REMARK    6  A    between atoms: C_6  and  O_7
REMARK    7  A    between atoms: C_10  and  C_28
REMARK    8  A    between atoms: C_17  and  C_19
REMARK    9  A    between atoms: C_19  and  C_20
REMARK   10  A    between atoms: C_28  and  O_30
REMARK                            x       y       z     vdW  Elec       q    Type
REMARK                         _______ _______ _______ _____ _____    ______ ____
ROOT
ATOM      1  N   UNL     1       7.689   1.569  25.395  0.00  0.00    -0.340 N 
ATOM      2  C   UNL     1       7.792   0.153  25.521  0.00  0.00    +0.053 A 
ATOM      3  C   UNL     1       6.974  -0.643  26.336  0.00  0.00    +0.027 A 
ATOM      4  C   UNL     1       7.121  -2.043  26.408  0.00  0.00    +0.006 A 
ATOM      5  C   UNL     1       8.095  -2.712  25.664  0.00  0.00    -0.042 A 
ATOM      6  C   UNL     1       8.937  -1.947  24.859  0.00  0.00    +0.017 A 
ATOM      7  C   UNL     1       8.785  -0.546  24.793  0.00  0.00    +0.046 A 
ATOM      8  C   UNL     1       9.707   0.195  23.907  0.00  0.00    +0.203 A 
ATOM      9  O   UNL     1      10.572  -0.376  23.245  0.00  0.00    -0.286 OA
ATOM     10  C   UNL     1       9.565   1.655  23.820  0.00  0.00    +0.122 A 
ATOM     11  C   UNL     1       8.591   2.218  24.549  0.00  0.00    +0.105 A 
ENDROOT
BRANCH  10  12
ATOM     12  C   UNL     1      10.428   2.504  22.974  0.00  0.00    +0.342 C 
ATOM     13  O   UNL     1      11.183   3.355  23.429  0.00  0.00    -0.245 OA
BRANCH  12  14
ATOM     14  O   UNL     1      10.323   2.273  21.649  0.00  0.00    -0.477 OA
ATOM     15  H   UNL     1       9.823   1.450  21.421  0.00  0.00    +0.295 HD
ENDBRANCH  12  14
ENDBRANCH  10  12
BRANCH   1  16
ATOM     16  C   UNL     1       6.580   2.323  26.092  0.00  0.00    +0.115 C 
BRANCH  16  18
ATOM     17  C   UNL     1       6.554   4.884  26.253  0.00  0.00    +0.009 C 
ATOM     18  C   UNL     1       7.100   3.581  26.864  0.00  0.00    +0.008 C 
ATOM     19  C   UNL     1       6.730   3.551  28.350  0.00  0.00    +0.009 C 
ENDBRANCH  16  18
BRANCH  16  20
ATOM     20  C   UNL     1       5.471   2.717  25.079  0.00  0.00    +0.181 C 
BRANCH  20  21
ATOM     21  O   UNL     1       4.877   1.584  24.452  0.00  0.00    -0.393 OA
ATOM     22  H   UNL     1       5.607   1.069  24.067  0.00  0.00    +0.209 HD
ENDBRANCH  20  21
ENDBRANCH  16  20
ENDBRANCH   1  16
BRANCH   5  23
ATOM     23  C   UNL     1       8.226  -4.217  25.722  0.00  0.00    +0.073 C 
BRANCH  23  24
ATOM     24  C   UNL     1       7.091  -4.975  25.080  0.00  0.00    -0.006 A 
ATOM     25  C   UNL     1       6.104  -5.598  25.860  0.00  0.00    +0.007 A 
ATOM     26  C   UNL     1       5.077  -6.331  25.255  0.00  0.00    +0.002 A 
ATOM     27  C   UNL     1       5.021  -6.444  23.865  0.00  0.00    +0.023 A 
ATOM     28  C   UNL     1       5.988  -5.819  23.080  0.00  0.00    +0.076 A 
ATOM     29 CL   UNL     1       5.917  -5.973  21.366  0.00  0.00    -0.081 Cl
ATOM     30  C   UNL     1       7.013  -5.090  23.686  0.00  0.00    +0.145 A 
ATOM     31  F   UNL     1       7.956  -4.506  22.930  0.00  0.00    -0.204 F 
ENDBRANCH  23  24
ENDBRANCH   5  23
TORSDOF 8
ENDMDL
MODEL 6
REMARK VINA RESULT:      -6.8      1.993      4.526
REMARK  Name = 
REMARK  10 active torsions:
REMARK  status: ('A' for Active; 'I' for Inactive)
REMARK    1  A    between atoms: C_1  and  C_2
REMARK    2  A    between atoms: C_2  and  C_3
REMARK    3  A    between atoms: C_2  and  C_4
REMARK    4  A    between atoms: C_4  and  C_6
REMARK    5  A    between atoms: C_4  and  N_8
REMARK    6  A    between atoms: C_6  and  O_7
REMARK    7  A    between atoms: C_10  and  C_28
REMARK    8  A    between atoms: C_17  and  C_19
REMARK    9  A    between atoms: C_19  and  C_20
REMARK   10  A    between atoms: C_28  and  O_30
REMARK                            x       y       z     vdW  Elec       q    Type
REMARK                         _______ _______ _______ _____ _____    ______ ____
ROOT
ATOM      1  N   UNL     1       6.496  -4.291  23.737  0.00  0.00    -0.340 N 
ATOM      2  C   UNL     1       7.399  -3.211  23.521  0.00  0.00    +0.053 A 
ATOM      3  C   UNL     1       7.596  -2.559  22.294  0.00  0.00    +0.027 A 
ATOM      4  C   UNL     1       8.498  -1.487  22.149  0.00  0.00    +0.006 A 
ATOM      5  C   UNL     1       9.247  -1.014  23.229  0.00  0.00    -0.042 A 
ATOM      6  C   UNL     1       9.090  -1.654  24.458  0.00  0.00    +0.017 A 
ATOM      7  C   UNL     1       8.185  -2.727  24.595  0.00  0.00    +0.046 A 
ATOM      8  C   UNL     1       8.064  -3.345  25.932  0.00  0.00    +0.203 A 
ATOM      9  O   UNL     1       8.716  -2.944  26.895  0.00  0.00    -0.286 OA
ATOM     10  C   UNL     1       7.125  -4.463  26.100  0.00  0.00    +0.122 A 
ATOM     11  C   UNL     1       6.428  -4.842  25.019  0.00  0.00    +0.105 A 
ENDROOT
BRANCH  10  12
ATOM     12  C   UNL     1       6.919  -5.163  27.384  0.00  0.00    +0.342 C 
ATOM     13  O   UNL     1       5.932  -4.992  28.089  0.00  0.00    -0.245 OA
BRANCH  12  14
ATOM     14  O   UNL     1       7.908  -6.014  27.729  0.00  0.00    -0.477 OA
ATOM     15  H   UNL     1       8.768  -5.841  27.269  0.00  0.00    +0.295 HD
ENDBRANCH  12  14
ENDBRANCH  10  12
BRANCH   1  16
ATOM     16  C   UNL     1       5.584  -4.763  22.628  0.00  0.00    +0.115 C 
BRANCH  16  18
ATOM     17  C   UNL     1       6.070  -5.861  20.361  0.00  0.00    +0.009 C 
ATOM     18  C   UNL     1       6.137  -6.026  21.890  0.00  0.00    +0.008 C 
ATOM     19  C   UNL     1       7.584  -6.347  22.279  0.00  0.00    +0.009 C 
ENDBRANCH  16  18
BRANCH  16  20
ATOM     20  C   UNL     1       4.155  -5.025  23.176  0.00  0.00    +0.181 C 
BRANCH  20  21
ATOM     21  O   UNL     1       3.799  -6.403  23.139  0.00  0.00    -0.393 OA
ATOM     22  H   UNL     1       3.940  -6.699  22.222  0.00  0.00    +0.209 HD
ENDBRANCH  20  21
ENDBRANCH  16  20
ENDBRANCH   1  16
BRANCH   5  23
ATOM     23  C   UNL     1      10.191   0.156  23.073  0.00  0.00    +0.073 C 
BRANCH  23  24
ATOM     24  C   UNL     1       9.543   1.512  23.213  0.00  0.00    -0.006 A 
ATOM     25  C   UNL     1       8.166   1.681  23.001  0.00  0.00    +0.007 A 
ATOM     26  C   UNL     1       7.582   2.949  23.094  0.00  0.00    +0.002 A 
ATOM     27  C   UNL     1       8.366   4.060  23.408  0.00  0.00    +0.023 A 
ATOM     28  C   UNL     1       9.732   3.902  23.633  0.00  0.00    +0.076 A 
ATOM     29 CL   UNL     1      10.693   5.281  24.009  0.00  0.00    -0.081 Cl
ATOM     30  C   UNL     1      10.313   2.636  23.537  0.00  0.00    +0.145 A 
ATOM     31  F   UNL     1      11.632   2.489  23.734  0.00  0.00    -0.204 F 
ENDBRANCH  23  24
ENDBRANCH   5  23
TORSDOF 8
ENDMDL
MODEL 7
REMARK VINA RESULT:      -6.6      5.093      8.429
REMARK  Name = 
REMARK  10 active torsions:
REMARK  status: ('A' for Active; 'I' for Inactive)
REMARK    1  A    between atoms: C_1  and  C_2
REMARK    2  A    between atoms: C_2  and  C_3
REMARK    3  A    between atoms: C_2  and  C_4
REMARK    4  A    between atoms: C_4  and  C_6
REMARK    5  A    between atoms: C_4  and  N_8
REMARK    6  A    between atoms: C_6  and  O_7
REMARK    7  A    between atoms: C_10  and  C_28
REMARK    8  A    between atoms: C_17  and  C_19
REMARK    9  A    between atoms: C_19  and  C_20
REMARK   10  A    between atoms: C_28  and  O_30
REMARK                            x       y       z     vdW  Elec       q    Type
REMARK                         _______ _______ _______ _____ _____    ______ ____
ROOT
ATOM      1  N   UNL     1       8.513   3.466  24.117  0.00  0.00    -0.340 N 
ATOM      2  C   UNL     1       8.696   2.154  23.594  0.00  0.00    +0.053 A 
ATOM      3  C   UNL     1       9.280   1.857  22.354  0.00  0.00    +0.027 A 
ATOM      4  C   UNL     1       9.442   0.534  21.898  0.00  0.00    +0.006 A 
ATOM      5  C   UNL     1       9.027  -0.557  22.665  0.00  0.00    -0.042 A 
ATOM      6  C   UNL     1       8.424  -0.294  23.894  0.00  0.00    +0.017 A 
ATOM      7  C   UNL     1       8.265   1.033  24.344  0.00  0.00    +0.046 A 
ATOM      8  C   UNL     1       7.629   1.230  25.663  0.00  0.00    +0.203 A 
ATOM      9  O   UNL     1       7.255   0.282  26.352  0.00  0.00    -0.286 OA
ATOM     10  C   UNL     1       7.455   2.604  26.153  0.00  0.00    +0.122 A 
ATOM     11  C   UNL     1       7.899   3.594  25.366  0.00  0.00    +0.105 A 
ENDROOT
BRANCH  10  12
ATOM     12  C   UNL     1       6.830   2.928  27.451  0.00  0.00    +0.342 C 
ATOM     13  O   UNL     1       5.730   3.457  27.552  0.00  0.00    -0.245 OA
BRANCH  12  14
ATOM     14  O   UNL     1       7.568   2.596  28.532  0.00  0.00    -0.477 OA
ATOM     15  H   UNL     1       8.025   1.722  28.455  0.00  0.00    +0.295 HD
ENDBRANCH  12  14
ENDBRANCH  10  12
BRANCH   1  16
ATOM     16  C   UNL     1       9.046   4.670  23.376  0.00  0.00    +0.115 C 
BRANCH  16  18
ATOM     17  C   UNL     1       8.792   7.108  24.136  0.00  0.00    +0.009 C 
ATOM     18  C   UNL     1       8.094   5.908  23.472  0.00  0.00    +0.008 C 
ATOM     19  C   UNL     1       7.569   6.351  22.102  0.00  0.00    +0.009 C 
ENDBRANCH  16  18
BRANCH  16  20
ATOM     20  C   UNL     1      10.471   5.030  23.879  0.00  0.00    +0.181 C 
BRANCH  20  21
ATOM     21  O   UNL     1      11.492   4.589  22.989  0.00  0.00    -0.393 OA
ATOM     22  H   UNL     1      11.343   3.638  22.850  0.00  0.00    +0.209 HD
ENDBRANCH  20  21
ENDBRANCH  16  20
ENDBRANCH   1  16
BRANCH   5  23
ATOM     23  C   UNL     1       9.233  -1.975  22.183  0.00  0.00    +0.073 C 
BRANCH  23  24
ATOM     24  C   UNL     1       8.307  -2.993  22.804  0.00  0.00    -0.006 A 
ATOM     25  C   UNL     1       7.038  -3.243  22.259  0.00  0.00    +0.007 A 
ATOM     26  C   UNL     1       6.173  -4.160  22.866  0.00  0.00    +0.002 A 
ATOM     27  C   UNL     1       6.569  -4.843  24.016  0.00  0.00    +0.023 A 
ATOM     28  C   UNL     1       7.832  -4.612  24.558  0.00  0.00    +0.076 A 
ATOM     29 CL   UNL     1       8.308  -5.450  25.985  0.00  0.00    -0.081 Cl
ATOM     30  C   UNL     1       8.693  -3.694  23.953  0.00  0.00    +0.145 A 
ATOM     31  F   UNL     1       9.900  -3.457  24.487  0.00  0.00    -0.204 F 
ENDBRANCH  23  24
ENDBRANCH   5  23
TORSDOF 8
ENDMDL
MODEL 8
REMARK VINA RESULT:      -6.6      4.974      7.579
REMARK  Name = 
REMARK  10 active torsions:
REMARK  status: ('A' for Active; 'I' for Inactive)
REMARK    1  A    between atoms: C_1  and  C_2
REMARK    2  A    between atoms: C_2  and  C_3
REMARK    3  A    between atoms: C_2  and  C_4
REMARK    4  A    between atoms: C_4  and  C_6
REMARK    5  A    between atoms: C_4  and  N_8
REMARK    6  A    between atoms: C_6  and  O_7
REMARK    7  A    between atoms: C_10  and  C_28
REMARK    8  A    between atoms: C_17  and  C_19
REMARK    9  A    between atoms: C_19  and  C_20
REMARK   10  A    between atoms: C_28  and  O_30
REMARK                            x       y       z     vdW  Elec       q    Type
REMARK                         _______ _______ _______ _____ _____    ______ ____
ROOT
ATOM      1  N   UNL     1       7.548   1.430  25.345  0.00  0.00    -0.340 N 
ATOM      2  C   UNL     1       7.571   0.006  25.370  0.00  0.00    +0.053 A 
ATOM      3  C   UNL     1       6.718  -0.799  26.140  0.00  0.00    +0.027 A 
ATOM      4  C   UNL     1       6.785  -2.206  26.111  0.00  0.00    +0.006 A 
ATOM      5  C   UNL     1       7.710  -2.875  25.307  0.00  0.00    -0.042 A 
ATOM      6  C   UNL     1       8.586  -2.103  24.545  0.00  0.00    +0.017 A 
ATOM      7  C   UNL     1       8.514  -0.695  24.579  0.00  0.00    +0.046 A 
ATOM      8  C   UNL     1       9.467   0.053  23.734  0.00  0.00    +0.203 A 
ATOM      9  O   UNL     1      10.291  -0.518  23.021  0.00  0.00    -0.286 OA
ATOM     10  C   UNL     1       9.408   1.522  23.752  0.00  0.00    +0.122 A 
ATOM     11  C   UNL     1       8.476   2.086  24.534  0.00  0.00    +0.105 A 
ENDROOT
BRANCH  10  12
ATOM     12  C   UNL     1      10.309   2.378  22.955  0.00  0.00    +0.342 C 
ATOM     13  O   UNL     1      11.078   3.189  23.456  0.00  0.00    -0.245 OA
BRANCH  12  14
ATOM     14  O   UNL     1      10.222   2.202  21.620  0.00  0.00    -0.477 OA
ATOM     15  H   UNL     1      10.604   2.945  21.089  0.00  0.00    +0.295 HD
ENDBRANCH  12  14
ENDBRANCH  10  12
BRANCH   1  16
ATOM     16  C   UNL     1       6.492   2.194  26.110  0.00  0.00    +0.115 C 
BRANCH  16  18
ATOM     17  C   UNL     1       6.521   4.735  26.467  0.00  0.00    +0.009 C 
ATOM     18  C   UNL     1       7.088   3.383  26.935  0.00  0.00    +0.008 C 
ATOM     19  C   UNL     1       6.826   3.243  28.438  0.00  0.00    +0.009 C 
ENDBRANCH  16  18
BRANCH  16  20
ATOM     20  C   UNL     1       5.379   2.693  25.148  0.00  0.00    +0.181 C 
BRANCH  20  21
ATOM     21  O   UNL     1       4.806   1.638  24.383  0.00  0.00    -0.393 OA
ATOM     22  H   UNL     1       5.396   1.497  23.623  0.00  0.00    +0.209 HD
ENDBRANCH  20  21
ENDBRANCH  16  20
ENDBRANCH   1  16
BRANCH   5  23
ATOM     23  C   UNL     1       7.756  -4.386  25.258  0.00  0.00    +0.073 C 
BRANCH  23  24
ATOM     24  C   UNL     1       7.052  -5.000  24.073  0.00  0.00    -0.006 A 
ATOM     25  C   UNL     1       7.761  -5.356  22.915  0.00  0.00    +0.007 A 
ATOM     26  C   UNL     1       7.092  -5.889  21.808  0.00  0.00    +0.002 A 
ATOM     27  C   UNL     1       5.710  -6.080  21.848  0.00  0.00    +0.023 A 
ATOM     28  C   UNL     1       4.997  -5.741  22.997  0.00  0.00    +0.076 A 
ATOM     29 CL   UNL     1       3.291  -5.969  23.033  0.00  0.00    -0.081 Cl
ATOM     30  C   UNL     1       5.667  -5.207  24.100  0.00  0.00    +0.145 A 
ATOM     31  F   UNL     1       4.977  -4.863  25.198  0.00  0.00    -0.204 F 
ENDBRANCH  23  24
ENDBRANCH   5  23
TORSDOF 8
ENDMDL
MODEL 9
REMARK VINA RESULT:      -6.6      4.680      8.186
REMARK  Name = 
REMARK  10 active torsions:
REMARK  status: ('A' for Active; 'I' for Inactive)
REMARK    1  A    between atoms: C_1  and  C_2
REMARK    2  A    between atoms: C_2  and  C_3
REMARK    3  A    between atoms: C_2  and  C_4
REMARK    4  A    between atoms: C_4  and  C_6
REMARK    5  A    between atoms: C_4  and  N_8
REMARK    6  A    between atoms: C_6  and  O_7
REMARK    7  A    between atoms: C_10  and  C_28
REMARK    8  A    between atoms: C_17  and  C_19
REMARK    9  A    between atoms: C_19  and  C_20
REMARK   10  A    between atoms: C_28  and  O_30
REMARK                            x       y       z     vdW  Elec       q    Type
REMARK                         _______ _______ _______ _____ _____    ______ ____
ROOT
ATOM      1  N   UNL     1       9.163   1.088  24.298  0.00  0.00    -0.340 N 
ATOM      2  C   UNL     1       9.137  -0.313  24.551  0.00  0.00    +0.053 A 
ATOM      3  C   UNL     1       9.821  -1.280  23.799  0.00  0.00    +0.027 A 
ATOM      4  C   UNL     1       9.763  -2.653  24.110  0.00  0.00    +0.006 A 
ATOM      5  C   UNL     1       9.017  -3.124  25.192  0.00  0.00    -0.042 A 
ATOM      6  C   UNL     1       8.309  -2.190  25.948  0.00  0.00    +0.017 A 
ATOM      7  C   UNL     1       8.371  -0.817  25.631  0.00  0.00    +0.046 A 
ATOM      8  C   UNL     1       7.604   0.112  26.486  0.00  0.00    +0.203 A 
ATOM      9  O   UNL     1       6.939  -0.284  27.443  0.00  0.00    -0.286 OA
ATOM     10  C   UNL     1       7.657   1.547  26.176  0.00  0.00    +0.122 A 
ATOM     11  C   UNL     1       8.414   1.919  25.134  0.00  0.00    +0.105 A 
ENDROOT
BRANCH  10  12
ATOM     12  C   UNL     1       6.932   2.571  26.955  0.00  0.00    +0.342 C 
ATOM     13  O   UNL     1       5.998   3.222  26.500  0.00  0.00    -0.245 OA
BRANCH  12  14
ATOM     14  O   UNL     1       7.376   2.741  28.218  0.00  0.00    -0.477 OA
ATOM     15  H   UNL     1       7.975   3.521  28.333  0.00  0.00    +0.295 HD
ENDBRANCH  12  14
ENDBRANCH  10  12
BRANCH   1  16
ATOM     16  C   UNL     1      10.045   1.656  23.210  0.00  0.00    +0.115 C 
BRANCH  16  18
ATOM     17  C   UNL     1       9.068   0.522  21.125  0.00  0.00    +0.009 C 
ATOM     18  C   UNL     1       9.280   1.858  21.860  0.00  0.00    +0.008 C 
ATOM     19  C   UNL     1       7.915   2.526  22.054  0.00  0.00    +0.009 C 
ENDBRANCH  16  18
BRANCH  16  20
ATOM     20  C   UNL     1      10.699   2.984  23.678  0.00  0.00    +0.181 C 
BRANCH  20  21
ATOM     21  O   UNL     1      11.318   3.694  22.610  0.00  0.00    -0.393 OA
ATOM     22  H   UNL     1      10.832   3.454  21.802  0.00  0.00    +0.209 HD
ENDBRANCH  20  21
ENDBRANCH  16  20
ENDBRANCH   1  16
BRANCH   5  23
ATOM     23  C   UNL     1       8.983  -4.595  25.538  0.00  0.00    +0.073 C 
BRANCH  23  24
ATOM     24  C   UNL     1       7.608  -5.144  25.828  0.00  0.00    -0.006 A 
ATOM     25  C   UNL     1       7.193  -5.398  27.144  0.00  0.00    +0.007 A 
ATOM     26  C   UNL     1       5.930  -5.944  27.399  0.00  0.00    +0.002 A 
ATOM     27  C   UNL     1       5.066  -6.234  26.343  0.00  0.00    +0.023 A 
ATOM     28  C   UNL     1       5.462  -5.975  25.032  0.00  0.00    +0.076 A 
ATOM     29 CL   UNL     1       4.393  -6.347  23.735  0.00  0.00    -0.081 Cl
ATOM     30  C   UNL     1       6.724  -5.432  24.780  0.00  0.00    +0.145 A 
ATOM     31  F   UNL     1       7.112  -5.202  23.517  0.00  0.00    -0.204 F 
ENDBRANCH  23  24
ENDBRANCH   5  23
TORSDOF 8
ENDMDL
