MODEL 1
REMARK VINA RESULT:      -6.4      0.000      0.000
REMARK  Name = 
REMARK  19 active torsions:
REMARK  status: ('A' for Active; 'I' for Inactive)
REMARK    1  A    between atoms: C_1  and  C_2
REMARK    2  A    between atoms: C_2  and  C_3
REMARK    3  A    between atoms: C_2  and  C_4
REMARK    4  A    between atoms: C_4  and  C_6
REMARK    5  A    between atoms: C_4  and  N_66
REMARK    6  A    between atoms: C_12  and  C_14
REMARK    7  A    between atoms: C_17  and  C_19
REMARK    8  A    between atoms: C_30  and  C_33
REMARK    9  A    between atoms: C_41  and  C_43
REMARK   10  A    between atoms: C_46  and  C_48
REMARK   11  A    between atoms: C_54  and  C_56
REMARK   12  A    between atoms: C_56  and  C_58
REMARK   13  A    between atoms: C_56  and  N_61
REMARK   14  A    between atoms: C_58  and  C_59
REMARK   15  A    between atoms: C_58  and  C_60
REMARK   16  A    between atoms: C_62  and  O_64
REMARK   17  A    between atoms: O_64  and  C_65
REMARK   18  A    between atoms: C_67  and  O_69
REMARK   19  A    between atoms: O_69  and  C_70
REMARK                            x       y       z     vdW  Elec       q    Type
REMARK                         _______ _______ _______ _____ _____    ______ ____
ROOT
ATOM      1  C   UNL     1       5.720  -4.964  28.072  0.00  0.00    +0.005 A 
ATOM      2  C   UNL     1       5.421  -3.626  28.344  0.00  0.00    +0.011 A 
ATOM      3  C   UNL     1       6.181  -2.614  27.771  0.00  0.00    +0.014 A 
ATOM      4  C   UNL     1       7.222  -2.938  26.905  0.00  0.00    +0.040 A 
ATOM      5  C   UNL     1       8.003  -1.913  26.258  0.00  0.00    +0.057 A 
ATOM      6  N   UNL     1       8.789  -2.268  25.187  0.00  0.00    -0.300 N 
ATOM      7  C   UNL     1       8.780  -3.647  24.668  0.00  0.00    +0.308 C 
ATOM      8  O   UNL     1       8.499  -4.623  25.717  0.00  0.00    -0.464 OA
ATOM      9  C   UNL     1       9.414  -1.154  24.665  0.00  0.00    +0.053 A 
ATOM     10  C   UNL     1      10.300  -0.986  23.592  0.00  0.00    +0.027 A 
ATOM     11  C   UNL     1      10.711   0.323  23.284  0.00  0.00    +0.012 A 
ATOM     12  C   UNL     1      10.263   1.434  24.009  0.00  0.00    +0.000 A 
ATOM     13  C   UNL     1       9.390   1.232  25.085  0.00  0.00    +0.020 A 
ATOM     14  C   UNL     1       8.969  -0.065  25.421  0.00  0.00    +0.001 A 
ATOM     15  C   UNL     1       8.098  -0.554  26.424  0.00  0.00    +0.036 A 
ATOM     16  C   UNL     1       7.506  -4.275  26.606  0.00  0.00    +0.133 A 
ATOM     17  C   UNL     1       6.784  -5.297  27.221  0.00  0.00    +0.056 A 
ENDROOT
BRANCH   7  18
ATOM     18  C   UNL     1       7.810  -3.851  23.504  0.00  0.00    +0.014 A 
ATOM     19  C   UNL     1       7.023  -2.806  22.986  0.00  0.00    +0.009 A 
ATOM     20  C   UNL     1       6.120  -3.027  21.945  0.00  0.00    +0.000 A 
ATOM     21  C   UNL     1       5.980  -4.300  21.406  0.00  0.00    +0.000 A 
ATOM     22  C   UNL     1       6.733  -5.355  21.916  0.00  0.00    +0.000 A 
ATOM     23  C   UNL     1       7.635  -5.135  22.962  0.00  0.00    +0.009 A 
ENDBRANCH   7  18
BRANCH  12  24
ATOM     24  C   UNL     1      10.677   2.789  23.651  0.00  0.00    +0.066 A 
ATOM     25  N   UNL     1      10.130   3.932  24.188  0.00  0.00    -0.340 N 
ATOM     26  H   UNL     1       9.388   3.961  24.873  0.00  0.00    +0.167 HD
ATOM     27  C   UNL     1      10.744   5.028  23.627  0.00  0.00    +0.128 A 
ATOM     28  N   UNL     1      11.648   4.640  22.750  0.00  0.00    -0.238 NA
ATOM     29  C   UNL     1      11.608   3.267  22.751  0.00  0.00    +0.139 A 
BRANCH  27  30
ATOM     30  C   UNL     1      10.308   6.425  23.971  0.00  0.00    +0.142 C 
ATOM     31  N   UNL     1       9.019   6.445  24.665  0.00  0.00    -0.290 N 
ATOM     32  C   UNL     1       7.714   6.395  24.217  0.00  0.00    +0.237 C 
ATOM     33  O   UNL     1       6.791   6.364  25.048  0.00  0.00    -0.274 OA
ATOM     34  C   UNL     1       9.227   6.639  26.094  0.00  0.00    +0.108 C 
ATOM     35  C   UNL     1      10.731   6.656  26.316  0.00  0.00    +0.021 C 
ATOM     36  C   UNL     1      11.277   7.078  24.963  0.00  0.00    +0.032 C 
BRANCH  32  37
ATOM     37  C   UNL     1       7.307   6.437  22.712  0.00  0.00    +0.165 C 
BRANCH  37  38
ATOM     38  N   UNL     1       7.464   5.231  21.918  0.00  0.00    -0.270 N 
ATOM     39  H   UNL     1       7.493   5.277  20.911  0.00  0.00    +0.153 HD
ATOM     40  C   UNL     1       7.343   4.004  22.503  0.00  0.00    +0.401 C 
ATOM     41  O   UNL     1       7.145   3.809  23.691  0.00  0.00    -0.226 OA
BRANCH  40  42
ATOM     42  O   UNL     1       7.332   3.046  21.543  0.00  0.00    -0.454 OA
ATOM     43  C   UNL     1       7.108   1.732  22.059  0.00  0.00    +0.282 C 
ENDBRANCH  40  42
ENDBRANCH  37  38
BRANCH  37  44
ATOM     44  C   UNL     1       5.917   7.105  22.513  0.00  0.00    +0.012 C 
ATOM     45  C   UNL     1       4.841   6.547  23.448  0.00  0.00    +0.009 C 
ATOM     46  C   UNL     1       5.472   7.064  21.040  0.00  0.00    +0.009 C 
ENDBRANCH  37  44
ENDBRANCH  32  37
ENDBRANCH  27  30
ENDBRANCH  12  24
BRANCH   1  49
ATOM     47  C   UNL     1       3.566  -7.705  29.052  0.00  0.00    +0.241 C 
ATOM     48  N   UNL     1       4.303  -6.954  27.995  0.00  0.00    -0.254 NA
ATOM     49  C   UNL     1       4.904  -6.025  28.665  0.00  0.00    +0.086 C 
ATOM     50  C   UNL     1       4.681  -6.186  30.117  0.00  0.00    +0.135 C 
ATOM     51  N   UNL     1       3.967  -7.219  30.399  0.00  0.00    -0.261 NA
BRANCH  47  54
ATOM     52  C   UNL     1       2.140  -7.429  26.238  0.00  0.00    +0.237 C 
ATOM     53  N   UNL     1       1.608  -7.030  27.451  0.00  0.00    -0.293 N 
ATOM     54  C   UNL     1       2.033  -7.540  28.765  0.00  0.00    +0.122 C 
ATOM     55  C   UNL     1       1.381  -6.541  29.757  0.00  0.00    +0.028 C 
ATOM     56  C   UNL     1       0.758  -5.450  28.889  0.00  0.00    +0.021 C 
ATOM     57  C   UNL     1       0.445  -6.180  27.608  0.00  0.00    +0.108 C 
ATOM     58  O   UNL     1       2.677  -8.522  26.053  0.00  0.00    -0.274 OA
BRANCH  52  59
ATOM     59  C   UNL     1       2.120  -6.337  25.138  0.00  0.00    +0.165 C 
BRANCH  59  60
ATOM     60  N   UNL     1       2.842  -5.145  25.564  0.00  0.00    -0.270 N 
ATOM     61  H   UNL     1       3.756  -5.226  25.984  0.00  0.00    +0.153 HD
ATOM     62  C   UNL     1       2.247  -3.917  25.602  0.00  0.00    +0.401 C 
ATOM     63  O   UNL     1       1.094  -3.681  25.273  0.00  0.00    -0.226 OA
BRANCH  62  64
ATOM     64  O   UNL     1       3.137  -2.984  26.023  0.00  0.00    -0.454 OA
ATOM     65  C   UNL     1       2.560  -1.957  26.836  0.00  0.00    +0.282 C 
ENDBRANCH  62  64
ENDBRANCH  59  60
BRANCH  59  67
ATOM     66  C   UNL     1       1.492  -7.689  23.106  0.00  0.00    +0.009 C 
ATOM     67  C   UNL     1       2.609  -6.894  23.791  0.00  0.00    +0.012 C 
ATOM     68  C   UNL     1       3.144  -5.819  22.843  0.00  0.00    +0.009 C 
ENDBRANCH  59  67
ENDBRANCH  52  59
ENDBRANCH  47  54
ENDBRANCH   1  49
TORSDOF 13
ENDMDL
