MODEL 1
REMARK VINA RESULT:      -6.1      0.000      0.000
REMARK  Name = 
REMARK  3 active torsions:
REMARK  status: ('A' for Active; 'I' for Inactive)
REMARK    1  A    between atoms: C_3  and  N_10
REMARK    2  A    between atoms: C_6  and  C_8
REMARK    3  A    between atoms: C_8  and  O_9
REMARK                            x       y       z     vdW  Elec       q    Type
REMARK                         _______ _______ _______ _____ _____    ______ ____
ROOT
ATOM      1  N   UNL     1      10.219   1.915  23.156  0.00  0.00    -0.273 N 
ATOM      2  C   UNL     1      10.602   0.726  23.782  0.00  0.00    +0.352 A 
ATOM      3  O   UNL     1      11.195   0.740  24.860  0.00  0.00    -0.244 OA
ATOM      4  N   UNL     1      10.302  -0.466  23.164  0.00  0.00    -0.178 NA
ATOM      5  C   UNL     1       9.628  -0.467  22.057  0.00  0.00    +0.123 A 
ATOM      6  N   UNL     1       9.389  -1.682  21.478  0.00  0.00    -0.343 N 
ATOM      7  H   UNL     1       9.583  -2.457  22.104  0.00  0.00    +0.144 HD
ATOM      8  H   UNL     1       8.542  -1.791  20.936  0.00  0.00    +0.144 HD
ATOM      9  C   UNL     1       9.119   0.761  21.418  0.00  0.00    +0.061 A 
ATOM     10  C   UNL     1       9.453   1.905  22.012  0.00  0.00    +0.096 A 
ENDROOT
BRANCH   1  14
ATOM     11  C   UNL     1      10.329   5.474  24.001  0.00  0.00    +0.038 C 
ATOM     12  C   UNL     1      11.569   5.189  23.169  0.00  0.00    +0.146 C 
ATOM     13  O   UNL     1      11.742   3.753  23.142  0.00  0.00    -0.351 OA
ATOM     14  C   UNL     1      10.608   3.154  23.802  0.00  0.00    +0.224 C 
ATOM     15  C   UNL     1       9.518   4.215  23.811  0.00  0.00    +0.057 C 
BRANCH  12  16
ATOM     16  C   UNL     1      12.833   5.830  23.738  0.00  0.00    +0.187 C 
BRANCH  16  17
ATOM     17  O   UNL     1      13.984   5.132  23.268  0.00  0.00    -0.392 OA
ATOM     18  H   UNL     1      14.082   4.360  23.857  0.00  0.00    +0.210 HD
ENDBRANCH  16  17
ENDBRANCH  12  16
ENDBRANCH   1  14
TORSDOF 3
ENDMDL
MODEL 2
REMARK VINA RESULT:      -5.8      4.040      6.879
REMARK  Name = 
REMARK  3 active torsions:
REMARK  status: ('A' for Active; 'I' for Inactive)
REMARK    1  A    between atoms: C_3  and  N_10
REMARK    2  A    between atoms: C_6  and  C_8
REMARK    3  A    between atoms: C_8  and  O_9
REMARK                            x       y       z     vdW  Elec       q    Type
REMARK                         _______ _______ _______ _____ _____    ______ ____
ROOT
ATOM      1  N   UNL     1       8.736  -1.538  23.009  0.00  0.00    -0.273 N 
ATOM      2  C   UNL     1       9.889  -1.087  22.361  0.00  0.00    +0.352 A 
ATOM      3  O   UNL     1      10.866  -1.822  22.222  0.00  0.00    -0.244 OA
ATOM      4  N   UNL     1       9.910   0.203  21.884  0.00  0.00    -0.178 NA
ATOM      5  C   UNL     1       8.855   0.947  21.988  0.00  0.00    +0.123 A 
ATOM      6  N   UNL     1       8.951   2.228  21.521  0.00  0.00    -0.343 N 
ATOM      7  H   UNL     1       9.775   2.373  20.947  0.00  0.00    +0.144 HD
ATOM      8  H   UNL     1       8.114   2.665  21.158  0.00  0.00    +0.144 HD
ATOM      9  C   UNL     1       7.586   0.474  22.573  0.00  0.00    +0.061 A 
ATOM     10  C   UNL     1       7.599  -0.764  23.064  0.00  0.00    +0.096 A 
ENDROOT
BRANCH   1  14
ATOM     11  C   UNL     1       7.593  -4.707  24.439  0.00  0.00    +0.038 C 
ATOM     12  C   UNL     1       8.221  -3.921  25.578  0.00  0.00    +0.146 C 
ATOM     13  O   UNL     1       8.997  -2.856  24.982  0.00  0.00    -0.351 OA
ATOM     14  C   UNL     1       8.771  -2.881  23.558  0.00  0.00    +0.224 C 
ATOM     15  C   UNL     1       7.485  -3.666  23.350  0.00  0.00    +0.057 C 
BRANCH  12  16
ATOM     16  C   UNL     1       9.136  -4.768  26.458  0.00  0.00    +0.187 C 
BRANCH  16  17
ATOM     17  O   UNL     1      10.026  -5.527  25.642  0.00  0.00    -0.392 OA
ATOM     18  H   UNL     1       9.539  -6.339  25.406  0.00  0.00    +0.210 HD
ENDBRANCH  16  17
ENDBRANCH  12  16
ENDBRANCH   1  14
TORSDOF 3
ENDMDL
MODEL 3
REMARK VINA RESULT:      -5.8      3.499      4.884
REMARK  Name = 
REMARK  3 active torsions:
REMARK  status: ('A' for Active; 'I' for Inactive)
REMARK    1  A    between atoms: C_3  and  N_10
REMARK    2  A    between atoms: C_6  and  C_8
REMARK    3  A    between atoms: C_8  and  O_9
REMARK                            x       y       z     vdW  Elec       q    Type
REMARK                         _______ _______ _______ _____ _____    ______ ____
ROOT
ATOM      1  N   UNL     1       9.253  -1.665  24.641  0.00  0.00    -0.273 N 
ATOM      2  C   UNL     1       9.864  -2.751  24.010  0.00  0.00    +0.352 A 
ATOM      3  O   UNL     1      10.561  -2.592  23.008  0.00  0.00    -0.244 OA
ATOM      4  N   UNL     1       9.666  -4.008  24.532  0.00  0.00    -0.178 NA
ATOM      5  C   UNL     1       8.976  -4.155  25.619  0.00  0.00    +0.123 A 
ATOM      6  N   UNL     1       8.791  -5.432  26.069  0.00  0.00    -0.343 N 
ATOM      7  H   UNL     1       9.405  -6.098  25.613  0.00  0.00    +0.144 HD
ATOM      8  H   UNL     1       8.694  -5.574  27.066  0.00  0.00    +0.144 HD
ATOM      9  C   UNL     1       8.401  -3.023  26.371  0.00  0.00    +0.061 A 
ATOM     10  C   UNL     1       8.571  -1.819  25.827  0.00  0.00    +0.096 A 
ENDROOT
BRANCH   1  14
ATOM     11  C   UNL     1       9.063   1.952  24.119  0.00  0.00    +0.038 C 
ATOM     12  C   UNL     1       8.058   1.325  23.166  0.00  0.00    +0.146 C 
ATOM     13  O   UNL     1       8.373  -0.084  23.084  0.00  0.00    -0.351 OA
ATOM     14  C   UNL     1       9.428  -0.362  24.027  0.00  0.00    +0.224 C 
ATOM     15  C   UNL     1       9.423   0.793  25.016  0.00  0.00    +0.057 C 
BRANCH  12  16
ATOM     16  C   UNL     1       8.105   1.927  21.764  0.00  0.00    +0.187 C 
BRANCH  16  17
ATOM     17  O   UNL     1       9.459   2.167  21.386  0.00  0.00    -0.392 OA
ATOM     18  H   UNL     1       9.671   1.485  20.720  0.00  0.00    +0.210 HD
ENDBRANCH  16  17
ENDBRANCH  12  16
ENDBRANCH   1  14
TORSDOF 3
ENDMDL
MODEL 4
REMARK VINA RESULT:      -5.7      4.512      7.817
REMARK  Name = 
REMARK  3 active torsions:
REMARK  status: ('A' for Active; 'I' for Inactive)
REMARK    1  A    between atoms: C_3  and  N_10
REMARK    2  A    between atoms: C_6  and  C_8
REMARK    3  A    between atoms: C_8  and  O_9
REMARK                            x       y       z     vdW  Elec       q    Type
REMARK                         _______ _______ _______ _____ _____    ______ ____
ROOT
ATOM      1  N   UNL     1       7.980  -1.489  22.606  0.00  0.00    -0.273 N 
ATOM      2  C   UNL     1       7.369  -0.309  23.039  0.00  0.00    +0.352 A 
ATOM      3  O   UNL     1       6.374  -0.339  23.763  0.00  0.00    -0.244 OA
ATOM      4  N   UNL     1       7.905   0.892  22.636  0.00  0.00    -0.178 NA
ATOM      5  C   UNL     1       8.986   0.909  21.921  0.00  0.00    +0.123 A 
ATOM      6  N   UNL     1       9.451   2.133  21.528  0.00  0.00    -0.343 N 
ATOM      7  H   UNL     1       9.011   2.896  22.031  0.00  0.00    +0.144 HD
ATOM      8  H   UNL     1      10.447   2.243  21.400  0.00  0.00    +0.144 HD
ATOM      9  C   UNL     1       9.716  -0.312  21.529  0.00  0.00    +0.061 A 
ATOM     10  C   UNL     1       9.159  -1.464  21.897  0.00  0.00    +0.096 A 
ENDROOT
BRANCH   1  14
ATOM     11  C   UNL     1       7.580  -5.017  23.494  0.00  0.00    +0.038 C 
ATOM     12  C   UNL     1       7.052  -4.866  22.077  0.00  0.00    +0.146 C 
ATOM     13  O   UNL     1       6.854  -3.452  21.846  0.00  0.00    -0.351 OA
ATOM     14  C   UNL     1       7.350  -2.737  22.995  0.00  0.00    +0.224 C 
ATOM     15  C   UNL     1       8.281  -3.698  23.718  0.00  0.00    +0.057 C 
BRANCH  12  16
ATOM     16  C   UNL     1       5.731  -5.596  21.848  0.00  0.00    +0.187 C 
BRANCH  16  17
ATOM     17  O   UNL     1       5.727  -6.825  22.572  0.00  0.00    -0.392 OA
ATOM     18  H   UNL     1       6.650  -6.965  22.858  0.00  0.00    +0.210 HD
ENDBRANCH  16  17
ENDBRANCH  12  16
ENDBRANCH   1  14
TORSDOF 3
ENDMDL
MODEL 5
REMARK VINA RESULT:      -5.6      5.412      8.819
REMARK  Name = 
REMARK  3 active torsions:
REMARK  status: ('A' for Active; 'I' for Inactive)
REMARK    1  A    between atoms: C_3  and  N_10
REMARK    2  A    between atoms: C_6  and  C_8
REMARK    3  A    between atoms: C_8  and  O_9
REMARK                            x       y       z     vdW  Elec       q    Type
REMARK                         _______ _______ _______ _____ _____    ______ ____
ROOT
ATOM      1  N   UNL     1       8.281  -3.457  23.217  0.00  0.00    -0.273 N 
ATOM      2  C   UNL     1       9.408  -3.298  24.028  0.00  0.00    +0.352 A 
ATOM      3  O   UNL     1       9.820  -4.221  24.729  0.00  0.00    -0.244 OA
ATOM      4  N   UNL     1      10.049  -2.080  24.027  0.00  0.00    -0.178 NA
ATOM      5  C   UNL     1       9.638  -1.135  23.241  0.00  0.00    +0.123 A 
ATOM      6  N   UNL     1      10.298   0.060  23.310  0.00  0.00    -0.343 N 
ATOM      7  H   UNL     1      11.175  -0.009  23.815  0.00  0.00    +0.144 HD
ATOM      8  H   UNL     1      10.347   0.624  22.472  0.00  0.00    +0.144 HD
ATOM      9  C   UNL     1       8.515  -1.298  22.298  0.00  0.00    +0.061 A 
ATOM     10  C   UNL     1       7.885  -2.470  22.343  0.00  0.00    +0.096 A 
ENDROOT
BRANCH   1  14
ATOM     11  C   UNL     1       6.019  -6.206  22.368  0.00  0.00    +0.038 C 
ATOM     12  C   UNL     1       5.390  -5.477  23.545  0.00  0.00    +0.146 C 
ATOM     13  O   UNL     1       6.419  -4.642  24.125  0.00  0.00    -0.351 OA
ATOM     14  C   UNL     1       7.592  -4.731  23.291  0.00  0.00    +0.224 C 
ATOM     15  C   UNL     1       7.111  -5.253  21.946  0.00  0.00    +0.057 C 
BRANCH  12  16
ATOM     16  C   UNL     1       4.853  -6.421  24.617  0.00  0.00    +0.187 C 
BRANCH  16  17
ATOM     17  O   UNL     1       4.338  -7.602  24.006  0.00  0.00    -0.392 OA
ATOM     18  H   UNL     1       5.053  -7.935  23.431  0.00  0.00    +0.210 HD
ENDBRANCH  16  17
ENDBRANCH  12  16
ENDBRANCH   1  14
TORSDOF 3
ENDMDL
MODEL 6
REMARK VINA RESULT:      -5.6      4.197      6.044
REMARK  Name = 
REMARK  3 active torsions:
REMARK  status: ('A' for Active; 'I' for Inactive)
REMARK    1  A    between atoms: C_3  and  N_10
REMARK    2  A    between atoms: C_6  and  C_8
REMARK    3  A    between atoms: C_8  and  O_9
REMARK                            x       y       z     vdW  Elec       q    Type
REMARK                         _______ _______ _______ _____ _____    ______ ____
ROOT
ATOM      1  N   UNL     1       8.367  -2.912  24.012  0.00  0.00    -0.273 N 
ATOM      2  C   UNL     1       7.865  -4.168  23.662  0.00  0.00    +0.352 A 
ATOM      3  O   UNL     1       7.579  -4.433  22.495  0.00  0.00    -0.244 OA
ATOM      4  N   UNL     1       7.694  -5.104  24.654  0.00  0.00    -0.178 NA
ATOM      5  C   UNL     1       8.052  -4.831  25.869  0.00  0.00    +0.123 A 
ATOM      6  N   UNL     1       7.827  -5.793  26.814  0.00  0.00    -0.343 N 
ATOM      7  H   UNL     1       7.606  -6.695  26.406  0.00  0.00    +0.144 HD
ATOM      8  H   UNL     1       8.459  -5.840  27.602  0.00  0.00    +0.144 HD
ATOM      9  C   UNL     1       8.679  -3.554  26.259  0.00  0.00    +0.061 A 
ATOM     10  C   UNL     1       8.800  -2.647  25.291  0.00  0.00    +0.096 A 
ENDROOT
BRANCH   1  14
ATOM     11  C   UNL     1       9.786  -0.344  21.823  0.00  0.00    +0.038 C 
ATOM     12  C   UNL     1       8.851   0.374  22.783  0.00  0.00    +0.146 C 
ATOM     13  O   UNL     1       8.013  -0.633  23.394  0.00  0.00    -0.351 OA
ATOM     14  C   UNL     1       8.474  -1.926  22.952  0.00  0.00    +0.224 C 
ATOM     15  C   UNL     1       9.892  -1.716  22.445  0.00  0.00    +0.057 C 
BRANCH  12  16
ATOM     16  C   UNL     1       7.963   1.407  22.094  0.00  0.00    +0.187 C 
BRANCH  16  17
ATOM     17  O   UNL     1       8.773   2.387  21.448  0.00  0.00    -0.392 OA
ATOM     18  H   UNL     1       9.523   2.548  22.052  0.00  0.00    +0.210 HD
ENDBRANCH  16  17
ENDBRANCH  12  16
ENDBRANCH   1  14
TORSDOF 3
ENDMDL
MODEL 7
REMARK VINA RESULT:      -5.5      3.397      6.581
REMARK  Name = 
REMARK  3 active torsions:
REMARK  status: ('A' for Active; 'I' for Inactive)
REMARK    1  A    between atoms: C_3  and  N_10
REMARK    2  A    between atoms: C_6  and  C_8
REMARK    3  A    between atoms: C_8  and  O_9
REMARK                            x       y       z     vdW  Elec       q    Type
REMARK                         _______ _______ _______ _____ _____    ______ ____
ROOT
ATOM      1  N   UNL     1       9.284  -0.528  23.431  0.00  0.00    -0.273 N 
ATOM      2  C   UNL     1       9.536  -0.022  22.153  0.00  0.00    +0.352 A 
ATOM      3  O   UNL     1       9.297  -0.692  21.149  0.00  0.00    -0.244 OA
ATOM      4  N   UNL     1      10.061   1.244  22.042  0.00  0.00    -0.178 NA
ATOM      5  C   UNL     1      10.254   1.959  23.105  0.00  0.00    +0.123 A 
ATOM      6  N   UNL     1      10.807   3.197  22.929  0.00  0.00    -0.343 N 
ATOM      7  H   UNL     1      10.796   3.493  21.959  0.00  0.00    +0.144 HD
ATOM      8  H   UNL     1      10.559   3.925  23.586  0.00  0.00    +0.144 HD
ATOM      9  C   UNL     1       9.906   1.499  24.463  0.00  0.00    +0.061 A 
ATOM     10  C   UNL     1       9.436   0.257  24.552  0.00  0.00    +0.096 A 
ENDROOT
BRANCH   1  14
ATOM     11  C   UNL     1       7.408  -3.449  24.590  0.00  0.00    +0.038 C 
ATOM     12  C   UNL     1       8.839  -3.636  25.068  0.00  0.00    +0.146 C 
ATOM     13  O   UNL     1       9.661  -2.710  24.322  0.00  0.00    -0.351 OA
ATOM     14  C   UNL     1       8.792  -1.890  23.515  0.00  0.00    +0.224 C 
ATOM     15  C   UNL     1       7.408  -2.009  24.134  0.00  0.00    +0.057 C 
BRANCH  12  16
ATOM     16  C   UNL     1       9.363  -5.053  24.849  0.00  0.00    +0.187 C 
BRANCH  16  17
ATOM     17  O   UNL     1      10.296  -5.388  25.874  0.00  0.00    -0.392 OA
ATOM     18  H   UNL     1      10.864  -4.601  25.980  0.00  0.00    +0.210 HD
ENDBRANCH  16  17
ENDBRANCH  12  16
ENDBRANCH   1  14
TORSDOF 3
ENDMDL
MODEL 8
REMARK VINA RESULT:      -5.3      4.124      5.793
REMARK  Name = 
REMARK  3 active torsions:
REMARK  status: ('A' for Active; 'I' for Inactive)
REMARK    1  A    between atoms: C_3  and  N_10
REMARK    2  A    between atoms: C_6  and  C_8
REMARK    3  A    between atoms: C_8  and  O_9
REMARK                            x       y       z     vdW  Elec       q    Type
REMARK                         _______ _______ _______ _____ _____    ______ ____
ROOT
ATOM      1  N   UNL     1       7.459  -3.020  23.162  0.00  0.00    -0.273 N 
ATOM      2  C   UNL     1       7.927  -4.274  23.566  0.00  0.00    +0.352 A 
ATOM      3  O   UNL     1       9.020  -4.394  24.118  0.00  0.00    -0.244 OA
ATOM      4  N   UNL     1       7.137  -5.375  23.331  0.00  0.00    -0.178 NA
ATOM      5  C   UNL     1       5.964  -5.226  22.800  0.00  0.00    +0.123 A 
ATOM      6  N   UNL     1       5.241  -6.362  22.565  0.00  0.00    -0.343 N 
ATOM      7  H   UNL     1       5.625  -7.173  23.039  0.00  0.00    +0.144 HD
ATOM      8  H   UNL     1       4.233  -6.300  22.605  0.00  0.00    +0.144 HD
ATOM      9  C   UNL     1       5.394  -3.911  22.453  0.00  0.00    +0.061 A 
ATOM     10  C   UNL     1       6.190  -2.862  22.653  0.00  0.00    +0.096 A 
ENDROOT
BRANCH   1  14
ATOM     11  C   UNL     1       8.604   0.353  24.001  0.00  0.00    +0.038 C 
ATOM     12  C   UNL     1       8.613   0.258  22.483  0.00  0.00    +0.146 C 
ATOM     13  O   UNL     1       8.530  -1.145  22.145  0.00  0.00    -0.351 OA
ATOM     14  C   UNL     1       8.345  -1.890  23.366  0.00  0.00    +0.224 C 
ATOM     15  C   UNL     1       7.843  -0.890  24.396  0.00  0.00    +0.057 C 
BRANCH  12  16
ATOM     16  C   UNL     1       9.873   0.847  21.854  0.00  0.00    +0.187 C 
BRANCH  16  17
ATOM     17  O   UNL     1       9.631   2.196  21.459  0.00  0.00    -0.392 OA
ATOM     18  H   UNL     1       8.693   2.368  21.670  0.00  0.00    +0.210 HD
ENDBRANCH  16  17
ENDBRANCH  12  16
ENDBRANCH   1  14
TORSDOF 3
ENDMDL
MODEL 9
REMARK VINA RESULT:      -5.3      4.570      7.848
REMARK  Name = 
REMARK  3 active torsions:
REMARK  status: ('A' for Active; 'I' for Inactive)
REMARK    1  A    between atoms: C_3  and  N_10
REMARK    2  A    between atoms: C_6  and  C_8
REMARK    3  A    between atoms: C_8  and  O_9
REMARK                            x       y       z     vdW  Elec       q    Type
REMARK                         _______ _______ _______ _____ _____    ______ ____
ROOT
ATOM      1  N   UNL     1       8.284  -1.844  23.298  0.00  0.00    -0.273 N 
ATOM      2  C   UNL     1       9.458  -1.407  22.678  0.00  0.00    +0.352 A 
ATOM      3  O   UNL     1       9.729  -1.745  21.526  0.00  0.00    -0.244 OA
ATOM      4  N   UNL     1      10.307  -0.590  23.386  0.00  0.00    -0.178 NA
ATOM      5  C   UNL     1       9.981  -0.196  24.577  0.00  0.00    +0.123 A 
ATOM      6  N   UNL     1      10.882   0.590  25.240  0.00  0.00    -0.343 N 
ATOM      7  H   UNL     1      11.607   0.951  24.628  0.00  0.00    +0.144 HD
ATOM      8  H   UNL     1      10.526   1.265  25.902  0.00  0.00    +0.144 HD
ATOM      9  C   UNL     1       8.705  -0.553  25.226  0.00  0.00    +0.061 A 
ATOM     10  C   UNL     1       7.916  -1.377  24.539  0.00  0.00    +0.096 A 
ENDROOT
BRANCH   1  14
ATOM     11  C   UNL     1       5.422  -3.935  22.388  0.00  0.00    +0.038 C 
ATOM     12  C   UNL     1       6.517  -4.881  22.855  0.00  0.00    +0.146 C 
ATOM     13  O   UNL     1       7.753  -4.130  22.861  0.00  0.00    -0.351 OA
ATOM     14  C   UNL     1       7.443  -2.757  22.546  0.00  0.00    +0.224 C 
ATOM     15  C   UNL     1       5.956  -2.589  22.815  0.00  0.00    +0.057 C 
BRANCH  12  16
ATOM     16  C   UNL     1       6.681  -6.100  21.951  0.00  0.00    +0.187 C 
BRANCH  16  17
ATOM     17  O   UNL     1       5.539  -6.235  21.108  0.00  0.00    -0.392 OA
ATOM     18  H   UNL     1       5.695  -7.042  20.582  0.00  0.00    +0.210 HD
ENDBRANCH  16  17
ENDBRANCH  12  16
ENDBRANCH   1  14
TORSDOF 3
ENDMDL
