MODEL 1
REMARK VINA RESULT:      -6.0      0.000      0.000
REMARK  Name = 
REMARK  11 active torsions:
REMARK  status: ('A' for Active; 'I' for Inactive)
REMARK    1  A    between atoms: C_1  and  C_2
REMARK    2  A    between atoms: N_4  and  C_5
REMARK    3  A    between atoms: C_7  and  N_25
REMARK    4  A    between atoms: C_10  and  C_22
REMARK    5  A    between atoms: C_12  and  C_14
REMARK    6  A    between atoms: C_14  and  C_16
REMARK    7  A    between atoms: C_14  and  O_21
REMARK    8  A    between atoms: C_16  and  C_18
REMARK    9  A    between atoms: C_16  and  O_20
REMARK   10  A    between atoms: C_18  and  O_19
REMARK   11  A    between atoms: C_22  and  O_24
REMARK                            x       y       z     vdW  Elec       q    Type
REMARK                         _______ _______ _______ _____ _____    ______ ____
ROOT
ATOM      1  C   UNL     1       7.845  -2.934  23.093  0.00  0.00    +0.160 C 
ATOM      2  C   UNL     1       7.916  -1.490  22.528  0.00  0.00    +0.229 C 
ATOM      3  O   UNL     1       7.016  -0.528  23.096  0.00  0.00    -0.477 OA
ATOM      4  C   UNL     1       6.693  -0.657  24.428  0.00  0.00    +0.204 C 
ATOM      5  C   UNL     1       6.867  -1.773  25.141  0.00  0.00    +0.071 C 
ATOM      6  C   UNL     1       7.405  -3.040  24.577  0.00  0.00    +0.238 C 
ENDROOT
BRANCH   6   7
ATOM      7  N   UNL     1       8.562  -3.447  25.383  0.00  0.00    -0.104 NA
ATOM      8  C   UNL     1       8.582  -4.593  25.955  0.00  0.00    +0.377 C 
ATOM      9  N   UNL     1       9.616  -4.895  26.764  0.00  0.00    -0.289 N 
ATOM     10  H   UNL     1       9.913  -5.853  26.849  0.00  0.00    +0.255 HD
ATOM     11  H   UNL     1      10.366  -4.216  26.727  0.00  0.00    +0.255 HD
ATOM     12  N   UNL     1       7.670  -5.587  25.937  0.00  0.00    -0.289 N 
ATOM     13  H   UNL     1       7.989  -6.531  26.085  0.00  0.00    +0.255 HD
ATOM     14  H   UNL     1       6.890  -5.513  25.299  0.00  0.00    +0.255 HD
ENDBRANCH   6   7
BRANCH   1  17
ATOM     15  C   UNL     1       6.269  -5.835  21.166  0.00  0.00    +0.109 C 
ATOM     16  C   UNL     1       7.220  -5.174  22.124  0.00  0.00    +0.210 C 
ATOM     17  N   UNL     1       7.053  -3.812  22.200  0.00  0.00    -0.305 N 
ATOM     18  H   UNL     1       6.312  -3.382  21.660  0.00  0.00    +0.149 HD
ATOM     19  O   UNL     1       8.047  -5.799  22.773  0.00  0.00    -0.276 OA
ENDBRANCH   1  17
BRANCH   4  20
ATOM     20  C   UNL     1       6.036   0.510  25.101  0.00  0.00    +0.372 C 
ATOM     21  O   UNL     1       4.836   0.668  25.246  0.00  0.00    -0.242 OA
BRANCH  20  22
ATOM     22  O   UNL     1       6.963   1.397  25.528  0.00  0.00    -0.475 OA
ATOM     23  H   UNL     1       7.151   1.247  26.476  0.00  0.00    +0.296 HD
ENDBRANCH  20  22
ENDBRANCH   4  20
BRANCH   2  24
ATOM     24  C   UNL     1       9.379  -0.974  22.473  0.00  0.00    +0.187 C 
BRANCH  24  25
ATOM     25  O   UNL     1      10.249  -1.760  23.286  0.00  0.00    -0.385 OA
ATOM     26  H   UNL     1      11.163  -1.517  23.043  0.00  0.00    +0.210 HD
ENDBRANCH  24  25
BRANCH  24  27
ATOM     27  C   UNL     1       9.553   0.520  22.813  0.00  0.00    +0.172 C 
BRANCH  27  28
ATOM     28  O   UNL     1      10.034   1.194  21.625  0.00  0.00    -0.387 OA
ATOM     29  H   UNL     1       9.460   0.925  20.885  0.00  0.00    +0.210 HD
ENDBRANCH  27  28
BRANCH  27  30
ATOM     30  C   UNL     1      10.553   0.827  23.930  0.00  0.00    +0.189 C 
BRANCH  30  31
ATOM     31  O   UNL     1       9.900   0.683  25.194  0.00  0.00    -0.392 OA
ATOM     32  H   UNL     1       9.328   1.472  25.270  0.00  0.00    +0.210 HD
ENDBRANCH  30  31
ENDBRANCH  27  30
ENDBRANCH  24  27
ENDBRANCH   2  24
TORSDOF 10
ENDMDL
MODEL 2
REMARK VINA RESULT:      -5.8      2.544      5.807
REMARK  Name = 
REMARK  11 active torsions:
REMARK  status: ('A' for Active; 'I' for Inactive)
REMARK    1  A    between atoms: C_1  and  C_2
REMARK    2  A    between atoms: N_4  and  C_5
REMARK    3  A    between atoms: C_7  and  N_25
REMARK    4  A    between atoms: C_10  and  C_22
REMARK    5  A    between atoms: C_12  and  C_14
REMARK    6  A    between atoms: C_14  and  C_16
REMARK    7  A    between atoms: C_14  and  O_21
REMARK    8  A    between atoms: C_16  and  C_18
REMARK    9  A    between atoms: C_16  and  O_20
REMARK   10  A    between atoms: C_18  and  O_19
REMARK   11  A    between atoms: C_22  and  O_24
REMARK                            x       y       z     vdW  Elec       q    Type
REMARK                         _______ _______ _______ _____ _____    ______ ____
ROOT
ATOM      1  C   UNL     1       6.917  -1.917  24.141  0.00  0.00    +0.160 C 
ATOM      2  C   UNL     1       6.373  -3.115  24.966  0.00  0.00    +0.229 C 
ATOM      3  O   UNL     1       5.667  -4.131  24.241  0.00  0.00    -0.477 OA
ATOM      4  C   UNL     1       6.067  -4.398  22.951  0.00  0.00    +0.204 C 
ATOM      5  C   UNL     1       6.814  -3.576  22.209  0.00  0.00    +0.071 C 
ATOM      6  C   UNL     1       7.286  -2.243  22.671  0.00  0.00    +0.238 C 
ENDROOT
BRANCH   6   7
ATOM      7  N   UNL     1       8.747  -2.200  22.531  0.00  0.00    -0.104 NA
ATOM      8  C   UNL     1       9.324  -1.146  22.089  0.00  0.00    +0.377 C 
ATOM      9  N   UNL     1      10.655  -1.174  21.884  0.00  0.00    -0.289 N 
ATOM     10  H   UNL     1      11.190  -0.327  21.993  0.00  0.00    +0.255 HD
ATOM     11  H   UNL     1      11.100  -2.009  22.244  0.00  0.00    +0.255 HD
ATOM     12  N   UNL     1       8.798   0.039  21.714  0.00  0.00    -0.289 N 
ATOM     13  H   UNL     1       9.377   0.861  21.778  0.00  0.00    +0.255 HD
ATOM     14  H   UNL     1       7.820   0.212  21.900  0.00  0.00    +0.255 HD
ENDBRANCH   6   7
BRANCH   1  17
ATOM     15  C   UNL     1       5.347   1.553  24.471  0.00  0.00    +0.109 C 
ATOM     16  C   UNL     1       6.462   0.546  24.414  0.00  0.00    +0.210 C 
ATOM     17  N   UNL     1       6.017  -0.745  24.256  0.00  0.00    -0.305 N 
ATOM     18  H   UNL     1       5.023  -0.908  24.156  0.00  0.00    +0.149 HD
ATOM     19  O   UNL     1       7.642   0.859  24.491  0.00  0.00    -0.276 OA
ENDBRANCH   1  17
BRANCH   4  20
ATOM     20  C   UNL     1       5.570  -5.661  22.315  0.00  0.00    +0.372 C 
ATOM     21  O   UNL     1       5.606  -5.923  21.125  0.00  0.00    -0.242 OA
BRANCH  20  22
ATOM     22  O   UNL     1       5.052  -6.491  23.248  0.00  0.00    -0.475 OA
ATOM     23  H   UNL     1       4.584  -7.230  22.809  0.00  0.00    +0.296 HD
ENDBRANCH  20  22
ENDBRANCH   4  20
BRANCH   2  24
ATOM     24  C   UNL     1       7.465  -3.702  25.900  0.00  0.00    +0.187 C 
BRANCH  24  25
ATOM     25  O   UNL     1       8.668  -2.936  25.856  0.00  0.00    -0.385 OA
ATOM     26  H   UNL     1       9.272  -3.316  26.523  0.00  0.00    +0.210 HD
ENDBRANCH  24  25
BRANCH  24  27
ATOM     27  C   UNL     1       7.784  -5.192  25.668  0.00  0.00    +0.172 C 
BRANCH  27  28
ATOM     28  O   UNL     1       7.960  -5.817  26.964  0.00  0.00    -0.387 OA
ATOM     29  H   UNL     1       7.935  -6.781  26.828  0.00  0.00    +0.210 HD
ENDBRANCH  27  28
BRANCH  27  30
ATOM     30  C   UNL     1       9.056  -5.474  24.866  0.00  0.00    +0.189 C 
BRANCH  30  31
ATOM     31  O   UNL     1      10.171  -5.524  25.761  0.00  0.00    -0.392 OA
ATOM     32  H   UNL     1      10.035  -4.772  26.370  0.00  0.00    +0.210 HD
ENDBRANCH  30  31
ENDBRANCH  27  30
ENDBRANCH  24  27
ENDBRANCH   2  24
TORSDOF 10
ENDMDL
MODEL 3
REMARK VINA RESULT:      -5.7      4.421      6.908
REMARK  Name = 
REMARK  11 active torsions:
REMARK  status: ('A' for Active; 'I' for Inactive)
REMARK    1  A    between atoms: C_1  and  C_2
REMARK    2  A    between atoms: N_4  and  C_5
REMARK    3  A    between atoms: C_7  and  N_25
REMARK    4  A    between atoms: C_10  and  C_22
REMARK    5  A    between atoms: C_12  and  C_14
REMARK    6  A    between atoms: C_14  and  C_16
REMARK    7  A    between atoms: C_14  and  O_21
REMARK    8  A    between atoms: C_16  and  C_18
REMARK    9  A    between atoms: C_16  and  O_20
REMARK   10  A    between atoms: C_18  and  O_19
REMARK   11  A    between atoms: C_22  and  O_24
REMARK                            x       y       z     vdW  Elec       q    Type
REMARK                         _______ _______ _______ _____ _____    ______ ____
ROOT
ATOM      1  C   UNL     1       8.703   2.710  24.174  0.00  0.00    +0.160 C 
ATOM      2  C   UNL     1       8.597   4.259  24.170  0.00  0.00    +0.229 C 
ATOM      3  O   UNL     1       9.826   4.991  24.274  0.00  0.00    -0.477 OA
ATOM      4  C   UNL     1      10.950   4.446  23.698  0.00  0.00    +0.204 C 
ATOM      5  C   UNL     1      11.074   3.161  23.355  0.00  0.00    +0.071 C 
ATOM      6  C   UNL     1      10.018   2.139  23.583  0.00  0.00    +0.238 C 
ENDROOT
BRANCH   6   7
ATOM      7  N   UNL     1       9.717   1.495  22.299  0.00  0.00    -0.104 NA
ATOM      8  C   UNL     1       9.612   0.221  22.222  0.00  0.00    +0.377 C 
ATOM      9  N   UNL     1       9.429  -0.342  21.012  0.00  0.00    -0.289 N 
ATOM     10  H   UNL     1       8.906  -1.199  20.940  0.00  0.00    +0.255 HD
ATOM     11  H   UNL     1       9.250   0.332  20.278  0.00  0.00    +0.255 HD
ATOM     12  N   UNL     1       9.714  -0.717  23.186  0.00  0.00    -0.289 N 
ATOM     13  H   UNL     1       9.226  -1.590  23.059  0.00  0.00    +0.255 HD
ATOM     14  H   UNL     1       9.767  -0.415  24.149  0.00  0.00    +0.255 HD
ENDBRANCH   6   7
BRANCH   1  17
ATOM     15  C   UNL     1       7.550   0.647  27.178  0.00  0.00    +0.109 C 
ATOM     16  C   UNL     1       7.696   0.998  25.724  0.00  0.00    +0.210 C 
ATOM     17  N   UNL     1       8.396   2.163  25.517  0.00  0.00    -0.305 N 
ATOM     18  H   UNL     1       8.775   2.652  26.317  0.00  0.00    +0.149 HD
ATOM     19  O   UNL     1       7.243   0.303  24.825  0.00  0.00    -0.276 OA
ENDBRANCH   1  17
BRANCH   4  20
ATOM     20  C   UNL     1      12.139   5.340  23.510  0.00  0.00    +0.372 C 
ATOM     21  O   UNL     1      12.727   5.942  24.393  0.00  0.00    -0.242 OA
BRANCH  20  22
ATOM     22  O   UNL     1      12.483   5.407  22.205  0.00  0.00    -0.475 OA
ATOM     23  H   UNL     1      11.810   5.918  21.712  0.00  0.00    +0.296 HD
ENDBRANCH  20  22
ENDBRANCH   4  20
BRANCH   2  24
ATOM     24  C   UNL     1       7.701   4.764  23.008  0.00  0.00    +0.187 C 
BRANCH  24  25
ATOM     25  O   UNL     1       7.804   3.925  21.858  0.00  0.00    -0.385 OA
ATOM     26  H   UNL     1       6.917   3.545  21.703  0.00  0.00    +0.210 HD
ENDBRANCH  24  25
BRANCH  24  27
ATOM     27  C   UNL     1       7.930   6.234  22.604  0.00  0.00    +0.172 C 
BRANCH  27  28
ATOM     28  O   UNL     1       8.086   7.010  23.818  0.00  0.00    -0.387 OA
ATOM     29  H   UNL     1       8.996   7.356  23.827  0.00  0.00    +0.210 HD
ENDBRANCH  27  28
BRANCH  27  30
ATOM     30  C   UNL     1       6.793   6.881  21.810  0.00  0.00    +0.189 C 
BRANCH  30  31
ATOM     31  O   UNL     1       5.646   6.029  21.858  0.00  0.00    -0.392 OA
ATOM     32  H   UNL     1       4.901   6.626  22.067  0.00  0.00    +0.210 HD
ENDBRANCH  30  31
ENDBRANCH  27  30
ENDBRANCH  24  27
ENDBRANCH   2  24
TORSDOF 10
ENDMDL
MODEL 4
REMARK VINA RESULT:      -5.6      2.532      4.605
REMARK  Name = 
REMARK  11 active torsions:
REMARK  status: ('A' for Active; 'I' for Inactive)
REMARK    1  A    between atoms: C_1  and  C_2
REMARK    2  A    between atoms: N_4  and  C_5
REMARK    3  A    between atoms: C_7  and  N_25
REMARK    4  A    between atoms: C_10  and  C_22
REMARK    5  A    between atoms: C_12  and  C_14
REMARK    6  A    between atoms: C_14  and  C_16
REMARK    7  A    between atoms: C_14  and  O_21
REMARK    8  A    between atoms: C_16  and  C_18
REMARK    9  A    between atoms: C_16  and  O_20
REMARK   10  A    between atoms: C_18  and  O_19
REMARK   11  A    between atoms: C_22  and  O_24
REMARK                            x       y       z     vdW  Elec       q    Type
REMARK                         _______ _______ _______ _____ _____    ______ ____
ROOT
ATOM      1  C   UNL     1       5.736  -4.186  25.399  0.00  0.00    +0.160 C 
ATOM      2  C   UNL     1       4.871  -3.457  24.335  0.00  0.00    +0.229 C 
ATOM      3  O   UNL     1       4.951  -2.025  24.309  0.00  0.00    -0.477 OA
ATOM      4  C   UNL     1       6.153  -1.441  24.637  0.00  0.00    +0.204 C 
ATOM      5  C   UNL     1       7.136  -2.059  25.298  0.00  0.00    +0.071 C 
ATOM      6  C   UNL     1       7.046  -3.458  25.796  0.00  0.00    +0.238 C 
ENDROOT
BRANCH   6   7
ATOM      7  N   UNL     1       8.185  -4.211  25.258  0.00  0.00    -0.104 NA
ATOM      8  C   UNL     1       8.666  -5.207  25.903  0.00  0.00    +0.377 C 
ATOM      9  N   UNL     1       9.769  -5.816  25.428  0.00  0.00    -0.289 N 
ATOM     10  H   UNL     1       9.902  -6.800  25.596  0.00  0.00    +0.255 HD
ATOM     11  H   UNL     1      10.035  -5.500  24.503  0.00  0.00    +0.255 HD
ATOM     12  N   UNL     1       8.274  -5.752  27.074  0.00  0.00    -0.289 N 
ATOM     13  H   UNL     1       8.474  -6.726  27.239  0.00  0.00    +0.255 HD
ATOM     14  H   UNL     1       7.408  -5.437  27.486  0.00  0.00    +0.255 HD
ENDBRANCH   6   7
BRANCH   1  17
ATOM     15  C   UNL     1       3.977  -5.954  28.298  0.00  0.00    +0.109 C 
ATOM     16  C   UNL     1       4.853  -5.842  27.081  0.00  0.00    +0.210 C 
ATOM     17  N   UNL     1       4.916  -4.566  26.575  0.00  0.00    -0.305 N 
ATOM     18  H   UNL     1       4.423  -3.826  27.058  0.00  0.00    +0.149 HD
ATOM     19  O   UNL     1       5.453  -6.797  26.606  0.00  0.00    -0.276 OA
ENDBRANCH   1  17
BRANCH   4  20
ATOM     20  C   UNL     1       6.340   0.006  24.294  0.00  0.00    +0.372 C 
ATOM     21  O   UNL     1       7.365   0.513  23.869  0.00  0.00    -0.242 OA
BRANCH  20  22
ATOM     22  O   UNL     1       5.206   0.702  24.532  0.00  0.00    -0.475 OA
ATOM     23  H   UNL     1       5.365   1.365  25.233  0.00  0.00    +0.296 HD
ENDBRANCH  20  22
ENDBRANCH   4  20
BRANCH   2  24
ATOM     24  C   UNL     1       5.053  -4.087  22.929  0.00  0.00    +0.187 C 
BRANCH  24  25
ATOM     25  O   UNL     1       3.954  -4.928  22.580  0.00  0.00    -0.385 OA
ATOM     26  H   UNL     1       3.441  -4.456  21.896  0.00  0.00    +0.210 HD
ENDBRANCH  24  25
BRANCH  24  27
ATOM     27  C   UNL     1       6.379  -4.847  22.724  0.00  0.00    +0.172 C 
BRANCH  27  28
ATOM     28  O   UNL     1       7.366  -3.899  22.249  0.00  0.00    -0.387 OA
ATOM     29  H   UNL     1       8.175  -4.034  22.774  0.00  0.00    +0.210 HD
ENDBRANCH  27  28
BRANCH  27  30
ATOM     30  C   UNL     1       6.333  -5.986  21.703  0.00  0.00    +0.189 C 
BRANCH  30  31
ATOM     31  O   UNL     1       5.936  -5.459  20.434  0.00  0.00    -0.392 OA
ATOM     32  H   UNL     1       4.958  -5.465  20.457  0.00  0.00    +0.210 HD
ENDBRANCH  30  31
ENDBRANCH  27  30
ENDBRANCH  24  27
ENDBRANCH   2  24
TORSDOF 10
ENDMDL
MODEL 5
REMARK VINA RESULT:      -5.6      1.928      2.328
REMARK  Name = 
REMARK  11 active torsions:
REMARK  status: ('A' for Active; 'I' for Inactive)
REMARK    1  A    between atoms: C_1  and  C_2
REMARK    2  A    between atoms: N_4  and  C_5
REMARK    3  A    between atoms: C_7  and  N_25
REMARK    4  A    between atoms: C_10  and  C_22
REMARK    5  A    between atoms: C_12  and  C_14
REMARK    6  A    between atoms: C_14  and  C_16
REMARK    7  A    between atoms: C_14  and  O_21
REMARK    8  A    between atoms: C_16  and  C_18
REMARK    9  A    between atoms: C_16  and  O_20
REMARK   10  A    between atoms: C_18  and  O_19
REMARK   11  A    between atoms: C_22  and  O_24
REMARK                            x       y       z     vdW  Elec       q    Type
REMARK                         _______ _______ _______ _____ _____    ______ ____
ROOT
ATOM      1  C   UNL     1       6.550  -3.130  24.361  0.00  0.00    +0.160 C 
ATOM      2  C   UNL     1       6.452  -1.665  23.855  0.00  0.00    +0.229 C 
ATOM      3  O   UNL     1       6.450  -0.635  24.853  0.00  0.00    -0.477 OA
ATOM      4  C   UNL     1       7.184  -0.847  25.998  0.00  0.00    +0.204 C 
ATOM      5  C   UNL     1       7.611  -2.045  26.408  0.00  0.00    +0.071 C 
ATOM      6  C   UNL     1       7.321  -3.316  25.693  0.00  0.00    +0.238 C 
ENDROOT
BRANCH   6   7
ATOM      7  N   UNL     1       8.596  -3.985  25.409  0.00  0.00    -0.104 NA
ATOM      8  C   UNL     1       8.889  -5.092  25.983  0.00  0.00    +0.377 C 
ATOM      9  N   UNL     1      10.106  -5.629  25.771  0.00  0.00    -0.289 N 
ATOM     10  H   UNL     1      10.216  -6.630  25.794  0.00  0.00    +0.255 HD
ATOM     11  H   UNL     1      10.633  -5.158  25.046  0.00  0.00    +0.255 HD
ATOM     12  N   UNL     1       8.176  -5.830  26.859  0.00  0.00    -0.289 N 
ATOM     13  H   UNL     1       8.349  -6.821  26.901  0.00  0.00    +0.255 HD
ATOM     14  H   UNL     1       7.214  -5.575  27.032  0.00  0.00    +0.255 HD
ENDBRANCH   6   7
BRANCH   1  17
ATOM     15  C   UNL     1       3.247  -4.880  23.555  0.00  0.00    +0.109 C 
ATOM     16  C   UNL     1       4.576  -4.242  23.258  0.00  0.00    +0.210 C 
ATOM     17  N   UNL     1       5.214  -3.772  24.381  0.00  0.00    -0.305 N 
ATOM     18  H   UNL     1       4.780  -3.917  25.284  0.00  0.00    +0.149 HD
ATOM     19  O   UNL     1       5.037  -4.166  22.127  0.00  0.00    -0.276 OA
ENDBRANCH   1  17
BRANCH   4  20
ATOM     20  C   UNL     1       7.457   0.334  26.879  0.00  0.00    +0.372 C 
ATOM     21  O   UNL     1       7.047   0.486  28.017  0.00  0.00    -0.242 OA
BRANCH  20  22
ATOM     22  O   UNL     1       8.225   1.241  26.234  0.00  0.00    -0.475 OA
ATOM     23  H   UNL     1       7.993   2.143  26.534  0.00  0.00    +0.296 HD
ENDBRANCH  20  22
ENDBRANCH   4  20
BRANCH   2  24
ATOM     24  C   UNL     1       7.471  -1.388  22.718  0.00  0.00    +0.187 C 
BRANCH  24  25
ATOM     25  O   UNL     1       7.736  -2.559  21.947  0.00  0.00    -0.385 OA
ATOM     26  H   UNL     1       8.570  -2.399  21.464  0.00  0.00    +0.210 HD
ENDBRANCH  24  25
BRANCH  24  27
ATOM     27  C   UNL     1       8.799  -0.754  23.178  0.00  0.00    +0.172 C 
BRANCH  27  28
ATOM     28  O   UNL     1       8.871   0.581  22.619  0.00  0.00    -0.387 OA
ATOM     29  H   UNL     1       8.195   0.642  21.921  0.00  0.00    +0.210 HD
ENDBRANCH  27  28
BRANCH  27  30
ATOM     30  C   UNL     1      10.066  -1.487  22.734  0.00  0.00    +0.189 C 
BRANCH  30  31
ATOM     31  O   UNL     1      10.204  -2.687  23.500  0.00  0.00    -0.392 OA
ATOM     32  H   UNL     1      11.112  -2.998  23.314  0.00  0.00    +0.210 HD
ENDBRANCH  30  31
ENDBRANCH  27  30
ENDBRANCH  24  27
ENDBRANCH   2  24
TORSDOF 10
ENDMDL
MODEL 6
REMARK VINA RESULT:      -5.5      2.078      4.781
REMARK  Name = 
REMARK  11 active torsions:
REMARK  status: ('A' for Active; 'I' for Inactive)
REMARK    1  A    between atoms: C_1  and  C_2
REMARK    2  A    between atoms: N_4  and  C_5
REMARK    3  A    between atoms: C_7  and  N_25
REMARK    4  A    between atoms: C_10  and  C_22
REMARK    5  A    between atoms: C_12  and  C_14
REMARK    6  A    between atoms: C_14  and  C_16
REMARK    7  A    between atoms: C_14  and  O_21
REMARK    8  A    between atoms: C_16  and  C_18
REMARK    9  A    between atoms: C_16  and  O_20
REMARK   10  A    between atoms: C_18  and  O_19
REMARK   11  A    between atoms: C_22  and  O_24
REMARK                            x       y       z     vdW  Elec       q    Type
REMARK                         _______ _______ _______ _____ _____    ______ ____
ROOT
ATOM      1  C   UNL     1       7.343  -2.960  24.556  0.00  0.00    +0.160 C 
ATOM      2  C   UNL     1       6.785  -2.396  23.221  0.00  0.00    +0.229 C 
ATOM      3  O   UNL     1       7.463  -1.261  22.666  0.00  0.00    -0.477 OA
ATOM      4  C   UNL     1       8.823  -1.165  22.859  0.00  0.00    +0.204 C 
ATOM      5  C   UNL     1       9.501  -1.841  23.791  0.00  0.00    +0.071 C 
ATOM      6  C   UNL     1       8.867  -2.766  24.767  0.00  0.00    +0.238 C 
ENDROOT
BRANCH   6   7
ATOM      7  N   UNL     1       9.527  -4.072  24.660  0.00  0.00    -0.104 NA
ATOM      8  C   UNL     1       9.453  -4.917  25.619  0.00  0.00    +0.377 C 
ATOM      9  N   UNL     1      10.150  -6.066  25.525  0.00  0.00    -0.289 N 
ATOM     10  H   UNL     1       9.793  -6.898  25.967  0.00  0.00    +0.255 HD
ATOM     11  H   UNL     1      10.566  -6.211  24.613  0.00  0.00    +0.255 HD
ATOM     12  N   UNL     1       8.810  -4.831  26.802  0.00  0.00    -0.289 N 
ATOM     13  H   UNL     1       8.517  -5.685  27.249  0.00  0.00    +0.255 HD
ATOM     14  H   UNL     1       8.184  -4.053  26.955  0.00  0.00    +0.255 HD
ENDBRANCH   6   7
BRANCH   1  17
ATOM     15  C   UNL     1       4.916  -2.521  27.477  0.00  0.00    +0.109 C 
ATOM     16  C   UNL     1       5.553  -3.222  26.309  0.00  0.00    +0.210 C 
ATOM     17  N   UNL     1       6.541  -2.482  25.707  0.00  0.00    -0.305 N 
ATOM     18  H   UNL     1       6.781  -1.580  26.099  0.00  0.00    +0.149 HD
ATOM     19  O   UNL     1       5.222  -4.344  25.950  0.00  0.00    -0.276 OA
ENDBRANCH   1  17
BRANCH   4  20
ATOM     20  C   UNL     1       9.578  -0.183  22.016  0.00  0.00    +0.372 C 
ATOM     21  O   UNL     1      10.161   0.808  22.423  0.00  0.00    -0.242 OA
BRANCH  20  22
ATOM     22  O   UNL     1       9.523  -0.534  20.712  0.00  0.00    -0.475 OA
ATOM     23  H   UNL     1       9.535  -1.508  20.631  0.00  0.00    +0.296 HD
ENDBRANCH  20  22
ENDBRANCH   4  20
BRANCH   2  24
ATOM     24  C   UNL     1       6.562  -3.523  22.178  0.00  0.00    +0.187 C 
BRANCH  24  25
ATOM     25  O   UNL     1       5.358  -3.329  21.437  0.00  0.00    -0.385 OA
ATOM     26  H   UNL     1       4.722  -2.893  22.037  0.00  0.00    +0.210 HD
ENDBRANCH  24  25
BRANCH  24  27
ATOM     27  C   UNL     1       6.599  -4.954  22.751  0.00  0.00    +0.172 C 
BRANCH  27  28
ATOM     28  O   UNL     1       7.893  -5.526  22.437  0.00  0.00    -0.387 OA
ATOM     29  H   UNL     1       8.127  -6.130  23.164  0.00  0.00    +0.210 HD
ENDBRANCH  27  28
BRANCH  27  30
ATOM     30  C   UNL     1       5.545  -5.912  22.192  0.00  0.00    +0.189 C 
BRANCH  30  31
ATOM     31  O   UNL     1       5.054  -6.736  23.252  0.00  0.00    -0.392 OA
ATOM     32  H   UNL     1       4.198  -7.077  22.927  0.00  0.00    +0.210 HD
ENDBRANCH  30  31
ENDBRANCH  27  30
ENDBRANCH  24  27
ENDBRANCH   2  24
TORSDOF 10
ENDMDL
MODEL 7
REMARK VINA RESULT:      -5.4      2.838      5.804
REMARK  Name = 
REMARK  11 active torsions:
REMARK  status: ('A' for Active; 'I' for Inactive)
REMARK    1  A    between atoms: C_1  and  C_2
REMARK    2  A    between atoms: N_4  and  C_5
REMARK    3  A    between atoms: C_7  and  N_25
REMARK    4  A    between atoms: C_10  and  C_22
REMARK    5  A    between atoms: C_12  and  C_14
REMARK    6  A    between atoms: C_14  and  C_16
REMARK    7  A    between atoms: C_14  and  O_21
REMARK    8  A    between atoms: C_16  and  C_18
REMARK    9  A    between atoms: C_16  and  O_20
REMARK   10  A    between atoms: C_18  and  O_19
REMARK   11  A    between atoms: C_22  and  O_24
REMARK                            x       y       z     vdW  Elec       q    Type
REMARK                         _______ _______ _______ _____ _____    ______ ____
ROOT
ATOM      1  C   UNL     1       7.846  -1.033  24.614  0.00  0.00    +0.160 C 
ATOM      2  C   UNL     1       7.985  -2.566  24.819  0.00  0.00    +0.229 C 
ATOM      3  O   UNL     1       7.182  -3.405  23.978  0.00  0.00    -0.477 OA
ATOM      4  C   UNL     1       6.920  -2.973  22.698  0.00  0.00    +0.204 C 
ATOM      5  C   UNL     1       7.056  -1.709  22.287  0.00  0.00    +0.071 C 
ATOM      6  C   UNL     1       7.478  -0.592  23.173  0.00  0.00    +0.238 C 
ENDROOT
BRANCH   6   7
ATOM      7  N   UNL     1       8.645   0.060  22.567  0.00  0.00    -0.104 NA
ATOM      8  C   UNL     1       8.539   1.224  22.044  0.00  0.00    +0.377 C 
ATOM      9  N   UNL     1       9.606   1.750  21.413  0.00  0.00    -0.289 N 
ATOM     10  H   UNL     1       9.733   2.750  21.407  0.00  0.00    +0.255 HD
ATOM     11  H   UNL     1      10.454   1.213  21.542  0.00  0.00    +0.255 HD
ATOM     12  N   UNL     1       7.468   2.040  21.956  0.00  0.00    -0.289 N 
ATOM     13  H   UNL     1       7.628   3.032  21.891  0.00  0.00    +0.255 HD
ATOM     14  H   UNL     1       6.631   1.793  22.464  0.00  0.00    +0.255 HD
ENDBRANCH   6   7
BRANCH   1  17
ATOM     15  C   UNL     1       6.246   0.426  27.765  0.00  0.00    +0.109 C 
ATOM     16  C   UNL     1       7.328  -0.214  26.939  0.00  0.00    +0.210 C 
ATOM     17  N   UNL     1       6.952  -0.442  25.638  0.00  0.00    -0.305 N 
ATOM     18  H   UNL     1       6.033  -0.142  25.337  0.00  0.00    +0.149 HD
ATOM     19  O   UNL     1       8.431  -0.488  27.391  0.00  0.00    -0.276 OA
ENDBRANCH   1  17
BRANCH   4  20
ATOM     20  C   UNL     1       6.379  -3.973  21.721  0.00  0.00    +0.372 C 
ATOM     21  O   UNL     1       5.591  -3.738  20.821  0.00  0.00    -0.242 OA
BRANCH  20  22
ATOM     22  O   UNL     1       6.876  -5.204  21.976  0.00  0.00    -0.475 OA
ATOM     23  H   UNL     1       6.280  -5.682  22.587  0.00  0.00    +0.296 HD
ENDBRANCH  20  22
ENDBRANCH   4  20
BRANCH   2  24
ATOM     24  C   UNL     1       9.474  -3.002  24.845  0.00  0.00    +0.187 C 
BRANCH  24  25
ATOM     25  O   UNL     1      10.127  -2.733  23.606  0.00  0.00    -0.385 OA
ATOM     26  H   UNL     1      11.087  -2.725  23.786  0.00  0.00    +0.210 HD
ENDBRANCH  24  25
BRANCH  24  27
ATOM     27  C   UNL     1       9.712  -4.470  25.255  0.00  0.00    +0.172 C 
BRANCH  27  28
ATOM     28  O   UNL     1       9.070  -5.317  24.270  0.00  0.00    -0.387 OA
ATOM     29  H   UNL     1       9.401  -6.223  24.406  0.00  0.00    +0.210 HD
ENDBRANCH  27  28
BRANCH  27  30
ATOM     30  C   UNL     1       9.146  -4.871  26.618  0.00  0.00    +0.189 C 
BRANCH  30  31
ATOM     31  O   UNL     1       8.201  -5.929  26.438  0.00  0.00    -0.392 OA
ATOM     32  H   UNL     1       8.527  -6.654  27.007  0.00  0.00    +0.210 HD
ENDBRANCH  30  31
ENDBRANCH  27  30
ENDBRANCH  24  27
ENDBRANCH   2  24
TORSDOF 10
ENDMDL
MODEL 8
REMARK VINA RESULT:      -5.4      3.897      6.560
REMARK  Name = 
REMARK  11 active torsions:
REMARK  status: ('A' for Active; 'I' for Inactive)
REMARK    1  A    between atoms: C_1  and  C_2
REMARK    2  A    between atoms: N_4  and  C_5
REMARK    3  A    between atoms: C_7  and  N_25
REMARK    4  A    between atoms: C_10  and  C_22
REMARK    5  A    between atoms: C_12  and  C_14
REMARK    6  A    between atoms: C_14  and  C_16
REMARK    7  A    between atoms: C_14  and  O_21
REMARK    8  A    between atoms: C_16  and  C_18
REMARK    9  A    between atoms: C_16  and  O_20
REMARK   10  A    between atoms: C_18  and  O_19
REMARK   11  A    between atoms: C_22  and  O_24
REMARK                            x       y       z     vdW  Elec       q    Type
REMARK                         _______ _______ _______ _____ _____    ______ ____
ROOT
ATOM      1  C   UNL     1       8.948   2.595  23.671  0.00  0.00    +0.160 C 
ATOM      2  C   UNL     1      10.018   1.470  23.671  0.00  0.00    +0.229 C 
ATOM      3  O   UNL     1      10.067   0.625  24.829  0.00  0.00    -0.477 OA
ATOM      4  C   UNL     1       8.885   0.356  25.480  0.00  0.00    +0.204 C 
ATOM      5  C   UNL     1       7.767   1.072  25.338  0.00  0.00    +0.071 C 
ATOM      6  C   UNL     1       7.662   2.281  24.478  0.00  0.00    +0.238 C 
ENDROOT
BRANCH   6   7
ATOM      7  N   UNL     1       6.552   2.081  23.538  0.00  0.00    -0.104 NA
ATOM      8  C   UNL     1       5.628   2.960  23.430  0.00  0.00    +0.377 C 
ATOM      9  N   UNL     1       4.577   2.701  22.628  0.00  0.00    -0.289 N 
ATOM     10  H   UNL     1       4.109   3.462  22.165  0.00  0.00    +0.255 HD
ATOM     11  H   UNL     1       4.697   1.867  22.066  0.00  0.00    +0.255 HD
ATOM     12  N   UNL     1       5.481   4.145  24.058  0.00  0.00    -0.289 N 
ATOM     13  H   UNL     1       4.957   4.870  23.594  0.00  0.00    +0.255 HD
ATOM     14  H   UNL     1       6.246   4.490  24.621  0.00  0.00    +0.255 HD
ENDBRANCH   6   7
BRANCH   1  17
ATOM     15  C   UNL     1       9.844   6.280  24.158  0.00  0.00    +0.109 C 
ATOM     16  C   UNL     1       9.074   5.111  23.609  0.00  0.00    +0.210 C 
ATOM     17  N   UNL     1       9.551   3.897  24.043  0.00  0.00    -0.305 N 
ATOM     18  H   UNL     1      10.322   3.883  24.698  0.00  0.00    +0.149 HD
ATOM     19  O   UNL     1       8.115   5.241  22.861  0.00  0.00    -0.276 OA
ENDBRANCH   1  17
BRANCH   4  20
ATOM     20  C   UNL     1       8.875  -0.772  26.468  0.00  0.00    +0.372 C 
ATOM     21  O   UNL     1       8.640  -1.941  26.214  0.00  0.00    -0.242 OA
BRANCH  20  22
ATOM     22  O   UNL     1       9.155  -0.319  27.710  0.00  0.00    -0.475 OA
ATOM     23  H   UNL     1      10.124  -0.249  27.826  0.00  0.00    +0.296 HD
ENDBRANCH  20  22
ENDBRANCH   4  20
BRANCH   2  24
ATOM     24  C   UNL     1       9.990   0.661  22.346  0.00  0.00    +0.187 C 
BRANCH  24  25
ATOM     25  O   UNL     1       9.099   1.237  21.393  0.00  0.00    -0.385 OA
ATOM     26  H   UNL     1       8.215   1.263  21.809  0.00  0.00    +0.210 HD
ENDBRANCH  24  25
BRANCH  24  27
ATOM     27  C   UNL     1       9.682  -0.841  22.510  0.00  0.00    +0.172 C 
BRANCH  27  28
ATOM     28  O   UNL     1      10.407  -1.559  21.481  0.00  0.00    -0.387 OA
ATOM     29  H   UNL     1       9.751  -1.910  20.853  0.00  0.00    +0.210 HD
ENDBRANCH  27  28
BRANCH  27  30
ATOM     30  C   UNL     1       8.209  -1.229  22.363  0.00  0.00    +0.189 C 
BRANCH  30  31
ATOM     31  O   UNL     1       7.891  -2.228  23.336  0.00  0.00    -0.392 OA
ATOM     32  H   UNL     1       7.689  -1.727  24.151  0.00  0.00    +0.210 HD
ENDBRANCH  30  31
ENDBRANCH  27  30
ENDBRANCH  24  27
ENDBRANCH   2  24
TORSDOF 10
ENDMDL
MODEL 9
REMARK VINA RESULT:      -5.3      2.955      3.910
REMARK  Name = 
REMARK  11 active torsions:
REMARK  status: ('A' for Active; 'I' for Inactive)
REMARK    1  A    between atoms: C_1  and  C_2
REMARK    2  A    between atoms: N_4  and  C_5
REMARK    3  A    between atoms: C_7  and  N_25
REMARK    4  A    between atoms: C_10  and  C_22
REMARK    5  A    between atoms: C_12  and  C_14
REMARK    6  A    between atoms: C_14  and  C_16
REMARK    7  A    between atoms: C_14  and  O_21
REMARK    8  A    between atoms: C_16  and  C_18
REMARK    9  A    between atoms: C_16  and  O_20
REMARK   10  A    between atoms: C_18  and  O_19
REMARK   11  A    between atoms: C_22  and  O_24
REMARK                            x       y       z     vdW  Elec       q    Type
REMARK                         _______ _______ _______ _____ _____    ______ ____
ROOT
ATOM      1  C   UNL     1       7.335   0.231  23.408  0.00  0.00    +0.160 C 
ATOM      2  C   UNL     1       7.954   0.983  22.198  0.00  0.00    +0.229 C 
ATOM      3  O   UNL     1       7.353   2.235  21.841  0.00  0.00    -0.477 OA
ATOM      4  C   UNL     1       6.829   3.010  22.850  0.00  0.00    +0.204 C 
ATOM      5  C   UNL     1       6.528   2.556  24.070  0.00  0.00    +0.071 C 
ATOM      6  C   UNL     1       6.690   1.138  24.488  0.00  0.00    +0.238 C 
ENDROOT
BRANCH   6   7
ATOM      7  N   UNL     1       7.529   1.106  25.692  0.00  0.00    -0.104 NA
ATOM      8  C   UNL     1       7.327   0.226  26.599  0.00  0.00    +0.377 C 
ATOM      9  N   UNL     1       8.053   0.285  27.733  0.00  0.00    -0.289 N 
ATOM     10  H   UNL     1       8.269  -0.566  28.226  0.00  0.00    +0.255 HD
ATOM     11  H   UNL     1       8.806   0.960  27.692  0.00  0.00    +0.255 HD
ATOM     12  N   UNL     1       6.423  -0.775  26.651  0.00  0.00    -0.289 N 
ATOM     13  H   UNL     1       6.643  -1.590  27.201  0.00  0.00    +0.255 HD
ATOM     14  H   UNL     1       5.878  -0.974  25.824  0.00  0.00    +0.255 HD
ENDBRANCH   6   7
BRANCH   1  17
ATOM     15  C   UNL     1       5.454  -3.038  22.784  0.00  0.00    +0.109 C 
ATOM     16  C   UNL     1       6.517  -2.152  23.372  0.00  0.00    +0.210 C 
ATOM     17  N   UNL     1       6.426  -0.847  22.950  0.00  0.00    -0.305 N 
ATOM     18  H   UNL     1       5.664  -0.585  22.337  0.00  0.00    +0.149 HD
ATOM     19  O   UNL     1       7.364  -2.561  24.153  0.00  0.00    -0.276 OA
ENDBRANCH   1  17
BRANCH   4  20
ATOM     20  C   UNL     1       6.509   4.441  22.536  0.00  0.00    +0.372 C 
ATOM     21  O   UNL     1       5.466   5.014  22.800  0.00  0.00    -0.242 OA
BRANCH  20  22
ATOM     22  O   UNL     1       7.544   5.030  21.896  0.00  0.00    -0.475 OA
ATOM     23  H   UNL     1       7.262   5.897  21.541  0.00  0.00    +0.296 HD
ENDBRANCH  20  22
ENDBRANCH   4  20
BRANCH   2  24
ATOM     24  C   UNL     1       9.498   1.079  22.319  0.00  0.00    +0.187 C 
BRANCH  24  25
ATOM     25  O   UNL     1      10.026   2.144  21.529  0.00  0.00    -0.385 OA
ATOM     26  H   UNL     1      10.880   2.398  21.930  0.00  0.00    +0.210 HD
ENDBRANCH  24  25
BRANCH  24  27
ATOM     27  C   UNL     1      10.255  -0.228  22.007  0.00  0.00    +0.172 C 
BRANCH  27  28
ATOM     28  O   UNL     1       9.490  -0.960  21.018  0.00  0.00    -0.387 OA
ATOM     29  H   UNL     1       9.441  -1.887  21.316  0.00  0.00    +0.210 HD
ENDBRANCH  27  28
BRANCH  27  30
ATOM     30  C   UNL     1      10.455  -1.170  23.196  0.00  0.00    +0.189 C 
BRANCH  30  31
ATOM     31  O   UNL     1      10.086  -2.496  22.809  0.00  0.00    -0.392 OA
ATOM     32  H   UNL     1       9.536  -2.378  22.009  0.00  0.00    +0.210 HD
ENDBRANCH  30  31
ENDBRANCH  27  30
ENDBRANCH  24  27
ENDBRANCH   2  24
TORSDOF 10
ENDMDL
