MODEL 1
REMARK VINA RESULT:      -6.5      0.000      0.000
REMARK  Name = 
REMARK  5 active torsions:
REMARK  status: ('A' for Active; 'I' for Inactive)
REMARK    1  A    between atoms: C5M_1  and  C5_2
REMARK    2  A    between atoms: N1_4  and  C1*_10
REMARK    3  A    between atoms: C3*_12  and  O3*_17
REMARK    4  A    between atoms: C4*_13  and  C5*_15
REMARK    5  A    between atoms: C5*_15  and  O5*_16
REMARK                            x       y       z     vdW  Elec       q    Type
REMARK                         _______ _______ _______ _____ _____    ______ ____
ROOT
ATOM      1  C5M   T A   1       5.665  -3.661  27.394  0.00  0.00    +0.051 C 
ATOM      2  C5    T A   1       6.960  -3.938  26.704  0.00  0.00    +0.030 A 
ATOM      3  C4    T A   1       7.681  -5.175  27.088  0.00  0.00    +0.257 A 
ATOM      4  O4    T A   1       7.230  -5.960  27.915  0.00  0.00    -0.267 OA
ATOM      5  N3    T A   1       8.867  -5.395  26.453  0.00  0.00    -0.275 N 
ATOM      6  H3    T A   1       9.358  -6.243  26.684  0.00  0.00    +0.173 HD
ATOM      7  C2    T A   1       9.395  -4.631  25.450  0.00  0.00    +0.331 A 
ATOM      8  O2    T A   1      10.415  -4.994  24.867  0.00  0.00    -0.246 OA
ATOM      9  N1    T A   1       8.703  -3.465  25.147  0.00  0.00    -0.274 N 
ATOM     10  C6    T A   1       7.509  -3.154  25.766  0.00  0.00    +0.101 A 
ENDROOT
BRANCH   9  11
ATOM     11  C1*   T A   1       9.258  -2.638  24.089  0.00  0.00    +0.226 C 
ATOM     12  O4*   T A   1       9.396  -1.265  24.494  0.00  0.00    -0.348 OA
ATOM     13  C4*   T A   1       9.101  -0.422  23.355  0.00  0.00    +0.175 C 
ATOM     14  C3*   T A   1       8.879  -1.352  22.158  0.00  0.00    +0.150 C 
ATOM     15  C2*   T A   1       8.418  -2.630  22.819  0.00  0.00    +0.088 C 
BRANCH  14  16
ATOM     16  O3*   T A   1      10.057  -1.588  21.392  0.00  0.00    -0.389 OA
ATOM     17  H3*   T A   1      10.726  -2.041  21.934  0.00  0.00    +0.210 HD
ENDBRANCH  14  16
BRANCH  13  18
ATOM     18  C5*   T A   1      10.216   0.608  23.154  0.00  0.00    +0.190 C 
BRANCH  18  19
ATOM     19  O5*   T A   1      10.114   1.270  21.893  0.00  0.00    -0.392 OA
ATOM     20  H5*   T A   1      10.323   0.630  21.193  0.00  0.00    +0.210 HD
ENDBRANCH  18  19
ENDBRANCH  13  18
ENDBRANCH   9  11
TORSDOF 4
ENDMDL
MODEL 2
REMARK VINA RESULT:      -5.8      2.425      3.185
REMARK  Name = 
REMARK  5 active torsions:
REMARK  status: ('A' for Active; 'I' for Inactive)
REMARK    1  A    between atoms: C5M_1  and  C5_2
REMARK    2  A    between atoms: N1_4  and  C1*_10
REMARK    3  A    between atoms: C3*_12  and  O3*_17
REMARK    4  A    between atoms: C4*_13  and  C5*_15
REMARK    5  A    between atoms: C5*_15  and  O5*_16
REMARK                            x       y       z     vdW  Elec       q    Type
REMARK                         _______ _______ _______ _____ _____    ______ ____
ROOT
ATOM      1  C5M   T A   1       6.498  -5.643  21.339  0.00  0.00    +0.051 C 
ATOM      2  C5    T A   1       6.741  -4.732  22.497  0.00  0.00    +0.030 A 
ATOM      3  C4    T A   1       6.172  -5.133  23.805  0.00  0.00    +0.257 A 
ATOM      4  O4    T A   1       5.553  -6.181  23.951  0.00  0.00    -0.267 OA
ATOM      5  N3    T A   1       6.397  -4.275  24.841  0.00  0.00    -0.275 N 
ATOM      6  H3    T A   1       6.038  -4.544  25.743  0.00  0.00    +0.173 HD
ATOM      7  C2    T A   1       7.159  -3.141  24.794  0.00  0.00    +0.331 A 
ATOM      8  O2    T A   1       7.390  -2.508  25.823  0.00  0.00    -0.246 OA
ATOM      9  N1    T A   1       7.642  -2.787  23.541  0.00  0.00    -0.274 N 
ATOM     10  C6    T A   1       7.434  -3.586  22.435  0.00  0.00    +0.101 A 
ENDROOT
BRANCH   9  11
ATOM     11  C1*   T A   1       8.447  -1.578  23.474  0.00  0.00    +0.226 C 
ATOM     12  O4*   T A   1       7.958  -0.659  22.483  0.00  0.00    -0.348 OA
ATOM     13  C4*   T A   1       9.094  -0.011  21.863  0.00  0.00    +0.175 C 
ATOM     14  C3*   T A   1      10.342  -0.491  22.609  0.00  0.00    +0.150 C 
ATOM     15  C2*   T A   1       9.909  -1.838  23.137  0.00  0.00    +0.088 C 
BRANCH  14  16
ATOM     16  O3*   T A   1      10.730   0.361  23.683  0.00  0.00    -0.389 OA
ATOM     17  H3*   T A   1      10.631   1.294  23.424  0.00  0.00    +0.210 HD
ENDBRANCH  14  16
BRANCH  13  18
ATOM     18  C5*   T A   1       8.904   1.509  21.866  0.00  0.00    +0.190 C 
BRANCH  18  19
ATOM     19  O5*   T A   1      10.094   2.199  21.485  0.00  0.00    -0.392 OA
ATOM     20  H5*   T A   1      10.294   2.864  22.163  0.00  0.00    +0.210 HD
ENDBRANCH  18  19
ENDBRANCH  13  18
ENDBRANCH   9  11
TORSDOF 4
ENDMDL
MODEL 3
REMARK VINA RESULT:      -5.6      2.978      5.612
REMARK  Name = 
REMARK  5 active torsions:
REMARK  status: ('A' for Active; 'I' for Inactive)
REMARK    1  A    between atoms: C5M_1  and  C5_2
REMARK    2  A    between atoms: N1_4  and  C1*_10
REMARK    3  A    between atoms: C3*_12  and  O3*_17
REMARK    4  A    between atoms: C4*_13  and  C5*_15
REMARK    5  A    between atoms: C5*_15  and  O5*_16
REMARK                            x       y       z     vdW  Elec       q    Type
REMARK                         _______ _______ _______ _____ _____    ______ ____
ROOT
ATOM      1  C5M   T A   1       9.818   1.316  21.860  0.00  0.00    +0.051 C 
ATOM      2  C5    T A   1       9.495   0.275  22.880  0.00  0.00    +0.030 A 
ATOM      3  C4    T A   1      10.170   0.384  24.196  0.00  0.00    +0.257 A 
ATOM      4  O4    T A   1      10.939   1.301  24.458  0.00  0.00    -0.267 OA
ATOM      5  N3    T A   1       9.868  -0.589  25.102  0.00  0.00    -0.275 N 
ATOM      6  H3    T A   1      10.298  -0.517  26.010  0.00  0.00    +0.173 HD
ATOM      7  C2    T A   1       8.950  -1.587  24.934  0.00  0.00    +0.331 A 
ATOM      8  O2    T A   1       8.673  -2.338  25.868  0.00  0.00    -0.246 OA
ATOM      9  N1    T A   1       8.369  -1.671  23.675  0.00  0.00    -0.274 N 
ATOM     10  C6    T A   1       8.643  -0.742  22.691  0.00  0.00    +0.101 A 
ENDROOT
BRANCH   9  11
ATOM     11  C1*   T A   1       7.397  -2.734  23.478  0.00  0.00    +0.226 C 
ATOM     12  O4*   T A   1       7.943  -3.830  22.726  0.00  0.00    -0.348 OA
ATOM     13  C4*   T A   1       6.903  -4.357  21.868  0.00  0.00    +0.175 C 
ATOM     14  C3*   T A   1       5.617  -3.597  22.209  0.00  0.00    +0.150 C 
ATOM     15  C2*   T A   1       6.145  -2.284  22.737  0.00  0.00    +0.088 C 
BRANCH  14  16
ATOM     16  O3*   T A   1       4.816  -4.242  23.195  0.00  0.00    -0.389 OA
ATOM     17  H3*   T A   1       4.487  -5.093  22.856  0.00  0.00    +0.210 HD
ENDBRANCH  14  16
BRANCH  13  18
ATOM     18  C5*   T A   1       6.799  -5.876  22.032  0.00  0.00    +0.190 C 
BRANCH  18  19
ATOM     19  O5*   T A   1       5.585  -6.392  21.485  0.00  0.00    -0.392 OA
ATOM     20  H5*   T A   1       5.235  -7.063  22.093  0.00  0.00    +0.210 HD
ENDBRANCH  18  19
ENDBRANCH  13  18
ENDBRANCH   9  11
TORSDOF 4
ENDMDL
MODEL 4
REMARK VINA RESULT:      -5.6      1.978      2.855
REMARK  Name = 
REMARK  5 active torsions:
REMARK  status: ('A' for Active; 'I' for Inactive)
REMARK    1  A    between atoms: C5M_1  and  C5_2
REMARK    2  A    between atoms: N1_4  and  C1*_10
REMARK    3  A    between atoms: C3*_12  and  O3*_17
REMARK    4  A    between atoms: C4*_13  and  C5*_15
REMARK    5  A    between atoms: C5*_15  and  O5*_16
REMARK                            x       y       z     vdW  Elec       q    Type
REMARK                         _______ _______ _______ _____ _____    ______ ____
ROOT
ATOM      1  C5M   T A   1       6.789  -2.661  26.723  0.00  0.00    +0.051 C 
ATOM      2  C5    T A   1       7.855  -2.476  25.694  0.00  0.00    +0.030 A 
ATOM      3  C4    T A   1       8.594  -3.685  25.260  0.00  0.00    +0.257 A 
ATOM      4  O4    T A   1       8.332  -4.800  25.698  0.00  0.00    -0.267 OA
ATOM      5  N3    T A   1       9.571  -3.484  24.331  0.00  0.00    -0.275 N 
ATOM      6  H3    T A   1      10.068  -4.298  24.007  0.00  0.00    +0.173 HD
ATOM      7  C2    T A   1       9.864  -2.299  23.715  0.00  0.00    +0.331 A 
ATOM      8  O2    T A   1      10.688  -2.262  22.803  0.00  0.00    -0.246 OA
ATOM      9  N1    T A   1       9.170  -1.189  24.178  0.00  0.00    -0.274 N 
ATOM     10  C6    T A   1       8.185  -1.302  25.138  0.00  0.00    +0.101 A 
ENDROOT
BRANCH   9  11
ATOM     11  C1*   T A   1       9.477   0.080  23.538  0.00  0.00    +0.226 C 
ATOM     12  O4*   T A   1       9.265   1.194  24.422  0.00  0.00    -0.348 OA
ATOM     13  C4*   T A   1       8.745   2.299  23.646  0.00  0.00    +0.175 C 
ATOM     14  C3*   T A   1       8.749   1.855  22.180  0.00  0.00    +0.150 C 
ATOM     15  C2*   T A   1       8.642   0.352  22.294  0.00  0.00    +0.088 C 
BRANCH  14  16
ATOM     16  O3*   T A   1       9.935   2.215  21.477  0.00  0.00    -0.389 OA
ATOM     17  H3*   T A   1       9.709   2.653  20.638  0.00  0.00    +0.210 HD
ENDBRANCH  14  16
BRANCH  13  18
ATOM     18  C5*   T A   1       9.555   3.569  23.922  0.00  0.00    +0.190 C 
BRANCH  18  19
ATOM     19  O5*   T A   1       9.256   4.609  22.990  0.00  0.00    -0.392 OA
ATOM     20  H5*   T A   1      10.063   4.816  22.490  0.00  0.00    +0.210 HD
ENDBRANCH  18  19
ENDBRANCH  13  18
ENDBRANCH   9  11
TORSDOF 4
ENDMDL
MODEL 5
REMARK VINA RESULT:      -5.6      2.874      6.024
REMARK  Name = 
REMARK  5 active torsions:
REMARK  status: ('A' for Active; 'I' for Inactive)
REMARK    1  A    between atoms: C5M_1  and  C5_2
REMARK    2  A    between atoms: N1_4  and  C1*_10
REMARK    3  A    between atoms: C3*_12  and  O3*_17
REMARK    4  A    between atoms: C4*_13  and  C5*_15
REMARK    5  A    between atoms: C5*_15  and  O5*_16
REMARK                            x       y       z     vdW  Elec       q    Type
REMARK                         _______ _______ _______ _____ _____    ______ ____
ROOT
ATOM      1  C5M   T A   1       7.346   1.926  22.122  0.00  0.00    +0.051 C 
ATOM      2  C5    T A   1       8.151   0.685  22.327  0.00  0.00    +0.030 A 
ATOM      3  C4    T A   1       9.622   0.801  22.186  0.00  0.00    +0.257 A 
ATOM      4  O4    T A   1      10.169   1.871  21.942  0.00  0.00    -0.267 OA
ATOM      5  N3    T A   1      10.330  -0.350  22.363  0.00  0.00    -0.275 N 
ATOM      6  H3    T A   1      11.332  -0.285  22.295  0.00  0.00    +0.173 HD
ATOM      7  C2    T A   1       9.815  -1.561  22.736  0.00  0.00    +0.331 A 
ATOM      8  O2    T A   1      10.566  -2.503  22.983  0.00  0.00    -0.246 OA
ATOM      9  N1    T A   1       8.431  -1.630  22.822  0.00  0.00    -0.274 N 
ATOM     10  C6    T A   1       7.639  -0.516  22.629  0.00  0.00    +0.101 A 
ENDROOT
BRANCH   9  11
ATOM     11  C1*   T A   1       7.869  -2.914  23.209  0.00  0.00    +0.226 C 
ATOM     12  O4*   T A   1       7.564  -3.734  22.068  0.00  0.00    -0.348 OA
ATOM     13  C4*   T A   1       6.352  -4.474  22.350  0.00  0.00    +0.175 C 
ATOM     14  C3*   T A   1       5.965  -4.159  23.799  0.00  0.00    +0.150 C 
ATOM     15  C2*   T A   1       6.580  -2.796  24.013  0.00  0.00    +0.088 C 
BRANCH  14  16
ATOM     16  O3*   T A   1       6.484  -5.091  24.744  0.00  0.00    -0.389 OA
ATOM     17  H3*   T A   1       7.077  -4.640  25.370  0.00  0.00    +0.210 HD
ENDBRANCH  14  16
BRANCH  13  18
ATOM     18  C5*   T A   1       6.560  -5.963  22.063  0.00  0.00    +0.190 C 
BRANCH  18  19
ATOM     19  O5*   T A   1       5.519  -6.767  22.618  0.00  0.00    -0.392 OA
ATOM     20  H5*   T A   1       5.321  -7.486  21.996  0.00  0.00    +0.210 HD
ENDBRANCH  18  19
ENDBRANCH  13  18
ENDBRANCH   9  11
TORSDOF 4
ENDMDL
MODEL 6
REMARK VINA RESULT:      -5.5      1.832      1.846
REMARK  Name = 
REMARK  5 active torsions:
REMARK  status: ('A' for Active; 'I' for Inactive)
REMARK    1  A    between atoms: C5M_1  and  C5_2
REMARK    2  A    between atoms: N1_4  and  C1*_10
REMARK    3  A    between atoms: C3*_12  and  O3*_17
REMARK    4  A    between atoms: C4*_13  and  C5*_15
REMARK    5  A    between atoms: C5*_15  and  O5*_16
REMARK                            x       y       z     vdW  Elec       q    Type
REMARK                         _______ _______ _______ _____ _____    ______ ____
ROOT
ATOM      1  C5M   T A   1       4.431  -5.716  24.321  0.00  0.00    +0.051 C 
ATOM      2  C5    T A   1       5.739  -5.350  24.942  0.00  0.00    +0.030 A 
ATOM      3  C4    T A   1       6.093  -6.015  26.218  0.00  0.00    +0.257 A 
ATOM      4  O4    T A   1       5.365  -6.854  26.737  0.00  0.00    -0.267 OA
ATOM      5  N3    T A   1       7.285  -5.651  26.769  0.00  0.00    -0.275 N 
ATOM      6  H3    T A   1       7.553  -6.111  27.624  0.00  0.00    +0.173 HD
ATOM      7  C2    T A   1       8.202  -4.804  26.213  0.00  0.00    +0.331 A 
ATOM      8  O2    T A   1       9.299  -4.643  26.745  0.00  0.00    -0.246 OA
ATOM      9  N1    T A   1       7.814  -4.178  25.035  0.00  0.00    -0.274 N 
ATOM     10  C6    T A   1       6.609  -4.470  24.427  0.00  0.00    +0.101 A 
ENDROOT
BRANCH   9  11
ATOM     11  C1*   T A   1       8.776  -3.268  24.436  0.00  0.00    +0.226 C 
ATOM     12  O4*   T A   1       8.859  -2.024  25.153  0.00  0.00    -0.348 OA
ATOM     13  C4*   T A   1       9.062  -0.959  24.194  0.00  0.00    +0.175 C 
ATOM     14  C3*   T A   1       9.222  -1.620  22.821  0.00  0.00    +0.150 C 
ATOM     15  C2*   T A   1       8.458  -2.912  22.990  0.00  0.00    +0.088 C 
BRANCH  14  16
ATOM     16  O3*   T A   1      10.577  -1.887  22.470  0.00  0.00    -0.389 OA
ATOM     17  H3*   T A   1      10.642  -2.108  21.524  0.00  0.00    +0.210 HD
ENDBRANCH  14  16
BRANCH  13  18
ATOM     18  C5*   T A   1      10.247  -0.085  24.614  0.00  0.00    +0.190 C 
BRANCH  18  19
ATOM     19  O5*   T A   1      10.635   0.824  23.585  0.00  0.00    -0.392 OA
ATOM     20  H5*   T A   1      10.786   1.696  23.985  0.00  0.00    +0.210 HD
ENDBRANCH  18  19
ENDBRANCH  13  18
ENDBRANCH   9  11
TORSDOF 4
ENDMDL
MODEL 7
REMARK VINA RESULT:      -5.5      3.234      6.380
REMARK  Name = 
REMARK  5 active torsions:
REMARK  status: ('A' for Active; 'I' for Inactive)
REMARK    1  A    between atoms: C5M_1  and  C5_2
REMARK    2  A    between atoms: N1_4  and  C1*_10
REMARK    3  A    between atoms: C3*_12  and  O3*_17
REMARK    4  A    between atoms: C4*_13  and  C5*_15
REMARK    5  A    between atoms: C5*_15  and  O5*_16
REMARK                            x       y       z     vdW  Elec       q    Type
REMARK                         _______ _______ _______ _____ _____    ______ ____
ROOT
ATOM      1  C5M   T A   1       5.183   2.762  23.402  0.00  0.00    +0.051 C 
ATOM      2  C5    T A   1       6.495   2.231  22.924  0.00  0.00    +0.030 A 
ATOM      3  C4    T A   1       7.385   3.173  22.206  0.00  0.00    +0.257 A 
ATOM      4  O4    T A   1       7.083   4.348  22.031  0.00  0.00    -0.267 OA
ATOM      5  N3    T A   1       8.569   2.657  21.767  0.00  0.00    -0.275 N 
ATOM      6  H3    T A   1       9.197   3.290  21.299  0.00  0.00    +0.173 HD
ATOM      7  C2    T A   1       9.031   1.393  22.004  0.00  0.00    +0.331 A 
ATOM      8  O2    T A   1      10.169   1.075  21.662  0.00  0.00    -0.246 OA
ATOM      9  N1    T A   1       8.149   0.536  22.650  0.00  0.00    -0.274 N 
ATOM     10  C6    T A   1       6.919   0.972  23.100  0.00  0.00    +0.101 A 
ENDROOT
BRANCH   9  11
ATOM     11  C1*   T A   1       8.624  -0.815  22.900  0.00  0.00    +0.226 C 
ATOM     12  O4*   T A   1       7.585  -1.793  22.723  0.00  0.00    -0.348 OA
ATOM     13  C4*   T A   1       7.765  -2.834  23.712  0.00  0.00    +0.175 C 
ATOM     14  C3*   T A   1       9.062  -2.516  24.462  0.00  0.00    +0.150 C 
ATOM     15  C2*   T A   1       9.170  -1.017  24.308  0.00  0.00    +0.088 C 
BRANCH  14  16
ATOM     16  O3*   T A   1      10.211  -3.155  23.912  0.00  0.00    -0.389 OA
ATOM     17  H3*   T A   1      10.925  -2.506  23.778  0.00  0.00    +0.210 HD
ENDBRANCH  14  16
BRANCH  13  18
ATOM     18  C5*   T A   1       7.745  -4.211  23.044  0.00  0.00    +0.190 C 
BRANCH  18  19
ATOM     19  O5*   T A   1       8.422  -5.196  23.824  0.00  0.00    -0.392 OA
ATOM     20  H5*   T A   1       7.858  -5.983  23.883  0.00  0.00    +0.210 HD
ENDBRANCH  18  19
ENDBRANCH  13  18
ENDBRANCH   9  11
TORSDOF 4
ENDMDL
MODEL 8
REMARK VINA RESULT:      -5.5      2.042      5.901
REMARK  Name = 
REMARK  5 active torsions:
REMARK  status: ('A' for Active; 'I' for Inactive)
REMARK    1  A    between atoms: C5M_1  and  C5_2
REMARK    2  A    between atoms: N1_4  and  C1*_10
REMARK    3  A    between atoms: C3*_12  and  O3*_17
REMARK    4  A    between atoms: C4*_13  and  C5*_15
REMARK    5  A    between atoms: C5*_15  and  O5*_16
REMARK                            x       y       z     vdW  Elec       q    Type
REMARK                         _______ _______ _______ _____ _____    ______ ____
ROOT
ATOM      1  C5M   T A   1       8.671   2.412  24.761  0.00  0.00    +0.051 C 
ATOM      2  C5    T A   1       9.083   1.075  24.240  0.00  0.00    +0.030 A 
ATOM      3  C4    T A   1       9.911   1.054  23.011  0.00  0.00    +0.257 A 
ATOM      4  O4    T A   1      10.273   2.083  22.453  0.00  0.00    -0.267 OA
ATOM      5  N3    T A   1      10.261  -0.181  22.549  0.00  0.00    -0.275 N 
ATOM      6  H3    T A   1      10.843  -0.213  21.728  0.00  0.00    +0.173 HD
ATOM      7  C2    T A   1       9.989  -1.373  23.159  0.00  0.00    +0.331 A 
ATOM      8  O2    T A   1      10.459  -2.419  22.713  0.00  0.00    -0.246 OA
ATOM      9  N1    T A   1       9.183  -1.307  24.288  0.00  0.00    -0.274 N 
ATOM     10  C6    T A   1       8.762  -0.098  24.804  0.00  0.00    +0.101 A 
ENDROOT
BRANCH   9  11
ATOM     11  C1*   T A   1       8.878  -2.569  24.943  0.00  0.00    +0.226 C 
ATOM     12  O4*   T A   1       7.731  -3.213  24.364  0.00  0.00    -0.348 OA
ATOM     13  C4*   T A   1       6.990  -3.863  25.424  0.00  0.00    +0.175 C 
ATOM     14  C3*   T A   1       7.806  -3.690  26.709  0.00  0.00    +0.150 C 
ATOM     15  C2*   T A   1       8.588  -2.427  26.432  0.00  0.00    +0.088 C 
BRANCH  14  16
ATOM     16  O3*   T A   1       8.693  -4.774  26.973  0.00  0.00    -0.389 OA
ATOM     17  H3*   T A   1       9.617  -4.482  26.881  0.00  0.00    +0.210 HD
ENDBRANCH  14  16
BRANCH  13  18
ATOM     18  C5*   T A   1       6.700  -5.320  25.053  0.00  0.00    +0.190 C 
BRANCH  18  19
ATOM     19  O5*   T A   1       6.286  -6.089  26.183  0.00  0.00    -0.392 OA
ATOM     20  H5*   T A   1       5.358  -5.875  26.376  0.00  0.00    +0.210 HD
ENDBRANCH  18  19
ENDBRANCH  13  18
ENDBRANCH   9  11
TORSDOF 4
ENDMDL
MODEL 9
REMARK VINA RESULT:      -5.4      2.941      4.780
REMARK  Name = 
REMARK  5 active torsions:
REMARK  status: ('A' for Active; 'I' for Inactive)
REMARK    1  A    between atoms: C5M_1  and  C5_2
REMARK    2  A    between atoms: N1_4  and  C1*_10
REMARK    3  A    between atoms: C3*_12  and  O3*_17
REMARK    4  A    between atoms: C4*_13  and  C5*_15
REMARK    5  A    between atoms: C5*_15  and  O5*_16
REMARK                            x       y       z     vdW  Elec       q    Type
REMARK                         _______ _______ _______ _____ _____    ______ ____
ROOT
ATOM      1  C5M   T A   1       8.679  -1.989  26.375  0.00  0.00    +0.051 C 
ATOM      2  C5    T A   1       9.039  -1.366  25.067  0.00  0.00    +0.030 A 
ATOM      3  C4    T A   1       9.594  -2.259  24.022  0.00  0.00    +0.257 A 
ATOM      4  O4    T A   1       9.729  -3.464  24.202  0.00  0.00    -0.267 OA
ATOM      5  N3    T A   1       9.928  -1.661  22.844  0.00  0.00    -0.275 N 
ATOM      6  H3    T A   1      10.284  -2.256  22.114  0.00  0.00    +0.173 HD
ATOM      7  C2    T A   1       9.720  -0.349  22.521  0.00  0.00    +0.331 A 
ATOM      8  O2    T A   1       9.952   0.053  21.382  0.00  0.00    -0.246 OA
ATOM      9  N1    T A   1       9.230   0.456  23.541  0.00  0.00    -0.274 N 
ATOM     10  C6    T A   1       8.894  -0.066  24.774  0.00  0.00    +0.101 A 
ENDROOT
BRANCH   9  11
ATOM     11  C1*   T A   1       9.012   1.856  23.215  0.00  0.00    +0.226 C 
ATOM     12  O4*   T A   1       9.649   2.735  24.157  0.00  0.00    -0.348 OA
ATOM     13  C4*   T A   1       8.798   3.890  24.350  0.00  0.00    +0.175 C 
ATOM     14  C3*   T A   1       7.625   3.747  23.376  0.00  0.00    +0.150 C 
ATOM     15  C2*   T A   1       7.541   2.251  23.183  0.00  0.00    +0.088 C 
BRANCH  14  16
ATOM     16  O3*   T A   1       7.839   4.396  22.125  0.00  0.00    -0.389 OA
ATOM     17  H3*   T A   1       8.174   3.760  21.469  0.00  0.00    +0.210 HD
ENDBRANCH  14  16
BRANCH  13  18
ATOM     18  C5*   T A   1       9.607   5.179  24.179  0.00  0.00    +0.190 C 
BRANCH  18  19
ATOM     19  O5*   T A   1      10.639   5.038  23.203  0.00  0.00    -0.392 OA
ATOM     20  H5*   T A   1      10.249   5.161  22.322  0.00  0.00    +0.210 HD
ENDBRANCH  18  19
ENDBRANCH  13  18
ENDBRANCH   9  11
TORSDOF 4
ENDMDL
