MODEL 1
REMARK VINA RESULT:      -6.1      0.000      0.000
REMARK  Name = 
REMARK  7 active torsions:
REMARK  status: ('A' for Active; 'I' for Inactive)
REMARK    1  A    between atoms: C_1  and  C_2
REMARK    2  A    between atoms: C_4  and  C_25
REMARK    3  A    between atoms: C_6  and  C_24
REMARK    4  A    between atoms: C_7  and  N_8
REMARK    5  A    between atoms: N_15  and  C_16
REMARK    6  A    between atoms: C_19  and  C_22
REMARK    7  A    between atoms: C_26  and  C_27
REMARK                            x       y       z     vdW  Elec       q    Type
REMARK                         _______ _______ _______ _____ _____    ______ ____
ROOT
ATOM      1  N   UNL     1       8.470   5.984  24.153  0.00  0.00    -0.299 N 
ATOM      2  H   UNL     1       8.566   6.692  24.870  0.00  0.00    +0.154 HD
ATOM      3  C   UNL     1       9.706   5.338  23.926  0.00  0.00    +0.128 A 
ATOM      4  C   UNL     1      10.839   6.110  23.770  0.00  0.00    +0.063 A 
ATOM      5  C   UNL     1      12.008   5.438  23.507  0.00  0.00    +0.118 A 
ATOM      6  N   UNL     1      12.089   4.099  23.399  0.00  0.00    -0.223 NA
ATOM      7  C   UNL     1      10.948   3.415  23.559  0.00  0.00    +0.221 A 
ATOM      8  N   UNL     1      11.028   2.029  23.412  0.00  0.00    -0.284 N 
ATOM      9  H   UNL     1      11.982   1.758  23.226  0.00  0.00    +0.155 HD
ATOM     10  N   UNL     1       9.776   4.007  23.832  0.00  0.00    -0.199 NA
ENDROOT
BRANCH   1  13
ATOM     11  C   UNL     1       7.144   4.334  26.327  0.00  0.00    +0.046 C 
ATOM     12  C   UNL     1       6.535   4.677  24.995  0.00  0.00    -0.028 A 
ATOM     13  C   UNL     1       7.137   5.509  24.027  0.00  0.00    +0.038 A 
ATOM     14  C   UNL     1       6.391   5.807  22.849  0.00  0.00    -0.028 A 
ATOM     15  C   UNL     1       6.851   6.849  21.858  0.00  0.00    +0.046 C 
ATOM     16  C   UNL     1       5.169   5.140  22.583  0.00  0.00    +0.013 A 
ATOM     17  C   UNL     1       4.643   4.213  23.483  0.00  0.00    -0.024 A 
ATOM     18  C   UNL     1       5.323   4.020  24.687  0.00  0.00    +0.013 A 
BRANCH  17  19
ATOM     19  C   UNL     1       3.458   3.377  23.239  0.00  0.00    +0.019 C 
ATOM     20  C   UNL     1       2.505   3.584  22.318  0.00  0.00    +0.089 C 
BRANCH  20  21
ATOM     21  C   UNL     1       1.363   2.723  22.227  0.00  0.00    +0.091 C 
ATOM     22  N   UNL     1       0.443   2.029  22.151  0.00  0.00    -0.191 NA
ENDBRANCH  20  21
ENDBRANCH  17  19
ENDBRANCH   1  13
BRANCH   8  23
ATOM     23  C   UNL     1      10.032   1.051  23.285  0.00  0.00    +0.034 A 
ATOM     24  C   UNL     1       9.797   0.456  22.035  0.00  0.00    +0.024 A 
ATOM     25  C   UNL     1       8.773  -0.487  21.861  0.00  0.00    +0.020 A 
ATOM     26  C   UNL     1       7.962  -0.855  22.937  0.00  0.00    +0.052 A 
ATOM     27  C   UNL     1       8.206  -0.306  24.190  0.00  0.00    +0.020 A 
ATOM     28  C   UNL     1       9.237   0.621  24.355  0.00  0.00    +0.024 A 
BRANCH  26  29
ATOM     29  C   UNL     1       6.878  -1.775  22.764  0.00  0.00    +0.099 C 
ATOM     30  N   UNL     1       6.013  -2.532  22.611  0.00  0.00    -0.191 NA
ENDBRANCH  26  29
ENDBRANCH   8  23
TORSDOF 5
ENDMDL
MODEL 2
REMARK VINA RESULT:      -6.0      4.506      8.426
REMARK  Name = 
REMARK  7 active torsions:
REMARK  status: ('A' for Active; 'I' for Inactive)
REMARK    1  A    between atoms: C_1  and  C_2
REMARK    2  A    between atoms: C_4  and  C_25
REMARK    3  A    between atoms: C_6  and  C_24
REMARK    4  A    between atoms: C_7  and  N_8
REMARK    5  A    between atoms: N_15  and  C_16
REMARK    6  A    between atoms: C_19  and  C_22
REMARK    7  A    between atoms: C_26  and  C_27
REMARK                            x       y       z     vdW  Elec       q    Type
REMARK                         _______ _______ _______ _____ _____    ______ ____
ROOT
ATOM      1  N   UNL     1       8.286  -3.318  22.645  0.00  0.00    -0.299 N 
ATOM      2  H   UNL     1       8.184  -3.626  21.686  0.00  0.00    +0.154 HD
ATOM      3  C   UNL     1       8.549  -1.931  22.695  0.00  0.00    +0.128 A 
ATOM      4  C   UNL     1       9.512  -1.408  21.857  0.00  0.00    +0.063 A 
ATOM      5  C   UNL     1       9.762  -0.061  21.975  0.00  0.00    +0.118 A 
ATOM      6  N   UNL     1       9.124   0.741  22.847  0.00  0.00    -0.223 NA
ATOM      7  C   UNL     1       8.204   0.162  23.631  0.00  0.00    +0.221 A 
ATOM      8  N   UNL     1       7.569   0.990  24.559  0.00  0.00    -0.284 N 
ATOM      9  H   UNL     1       7.906   1.936  24.462  0.00  0.00    +0.155 HD
ATOM     10  N   UNL     1       7.901  -1.142  23.557  0.00  0.00    -0.199 NA
ENDROOT
BRANCH   1  13
ATOM     11  C   UNL     1       5.410  -4.197  22.238  0.00  0.00    +0.046 C 
ATOM     12  C   UNL     1       6.265  -4.526  23.432  0.00  0.00    -0.028 A 
ATOM     13  C   UNL     1       7.625  -4.172  23.568  0.00  0.00    +0.038 A 
ATOM     14  C   UNL     1       8.320  -4.635  24.723  0.00  0.00    -0.028 A 
ATOM     15  C   UNL     1       9.817  -4.495  24.861  0.00  0.00    +0.046 C 
ATOM     16  C   UNL     1       7.618  -5.267  25.781  0.00  0.00    +0.013 A 
ATOM     17  C   UNL     1       6.244  -5.494  25.700  0.00  0.00    -0.024 A 
ATOM     18  C   UNL     1       5.598  -5.144  24.512  0.00  0.00    +0.013 A 
BRANCH  17  19
ATOM     19  C   UNL     1       5.409  -6.019  26.790  0.00  0.00    +0.019 C 
ATOM     20  C   UNL     1       5.720  -6.056  28.094  0.00  0.00    +0.089 C 
BRANCH  20  21
ATOM     21  C   UNL     1       4.838  -6.656  29.049  0.00  0.00    +0.091 C 
ATOM     22  N   UNL     1       4.129  -7.142  29.822  0.00  0.00    -0.191 NA
ENDBRANCH  20  21
ENDBRANCH  17  19
ENDBRANCH   1  13
BRANCH   8  23
ATOM     23  C   UNL     1       6.751   0.694  25.658  0.00  0.00    +0.034 A 
ATOM     24  C   UNL     1       7.289   0.728  26.953  0.00  0.00    +0.024 A 
ATOM     25  C   UNL     1       6.513   0.385  28.071  0.00  0.00    +0.020 A 
ATOM     26  C   UNL     1       5.179   0.002  27.914  0.00  0.00    +0.052 A 
ATOM     27  C   UNL     1       4.618   0.002  26.642  0.00  0.00    +0.020 A 
ATOM     28  C   UNL     1       5.396   0.358  25.538  0.00  0.00    +0.024 A 
BRANCH  26  29
ATOM     29  C   UNL     1       4.389  -0.403  29.038  0.00  0.00    +0.099 C 
ATOM     30  N   UNL     1       3.740  -0.712  29.948  0.00  0.00    -0.191 NA
ENDBRANCH  26  29
ENDBRANCH   8  23
TORSDOF 5
ENDMDL
MODEL 3
REMARK VINA RESULT:      -5.9      2.505      4.146
REMARK  Name = 
REMARK  7 active torsions:
REMARK  status: ('A' for Active; 'I' for Inactive)
REMARK    1  A    between atoms: C_1  and  C_2
REMARK    2  A    between atoms: C_4  and  C_25
REMARK    3  A    between atoms: C_6  and  C_24
REMARK    4  A    between atoms: C_7  and  N_8
REMARK    5  A    between atoms: N_15  and  C_16
REMARK    6  A    between atoms: C_19  and  C_22
REMARK    7  A    between atoms: C_26  and  C_27
REMARK                            x       y       z     vdW  Elec       q    Type
REMARK                         _______ _______ _______ _____ _____    ______ ____
ROOT
ATOM      1  N   UNL     1       6.501   4.892  25.919  0.00  0.00    -0.299 N 
ATOM      2  H   UNL     1       6.409   5.515  26.711  0.00  0.00    +0.154 HD
ATOM      3  C   UNL     1       7.546   5.322  25.070  0.00  0.00    +0.128 A 
ATOM      4  C   UNL     1       7.608   6.654  24.717  0.00  0.00    +0.063 A 
ATOM      5  C   UNL     1       8.616   7.014  23.854  0.00  0.00    +0.118 A 
ATOM      6  N   UNL     1       9.515   6.145  23.356  0.00  0.00    -0.223 NA
ATOM      7  C   UNL     1       9.390   4.868  23.741  0.00  0.00    +0.221 A 
ATOM      8  N   UNL     1      10.303   3.962  23.196  0.00  0.00    -0.284 N 
ATOM      9  H   UNL     1      10.952   4.449  22.595  0.00  0.00    +0.155 HD
ATOM     10  N   UNL     1       8.440   4.452  24.591  0.00  0.00    -0.199 NA
ENDROOT
BRANCH   1  13
ATOM     11  C   UNL     1       6.899   3.528  28.600  0.00  0.00    +0.046 C 
ATOM     12  C   UNL     1       6.236   2.915  27.396  0.00  0.00    -0.028 A 
ATOM     13  C   UNL     1       5.993   3.592  26.182  0.00  0.00    +0.038 A 
ATOM     14  C   UNL     1       5.276   2.896  25.165  0.00  0.00    -0.028 A 
ATOM     15  C   UNL     1       4.781   3.593  23.921  0.00  0.00    +0.046 C 
ATOM     16  C   UNL     1       4.986   1.515  25.305  0.00  0.00    +0.013 A 
ATOM     17  C   UNL     1       5.350   0.815  26.455  0.00  0.00    -0.024 A 
ATOM     18  C   UNL     1       5.944   1.537  27.493  0.00  0.00    +0.013 A 
BRANCH  17  19
ATOM     19  C   UNL     1       5.212  -0.637  26.640  0.00  0.00    +0.019 C 
ATOM     20  C   UNL     1       6.205  -1.525  26.795  0.00  0.00    +0.089 C 
BRANCH  20  21
ATOM     21  C   UNL     1       5.934  -2.928  26.902  0.00  0.00    +0.091 C 
ATOM     22  N   UNL     1       5.719  -4.060  26.990  0.00  0.00    -0.191 NA
ENDBRANCH  20  21
ENDBRANCH  17  19
ENDBRANCH   1  13
BRANCH   8  23
ATOM     23  C   UNL     1      10.329   2.561  23.191  0.00  0.00    +0.034 A 
ATOM     24  C   UNL     1       9.910   1.863  22.047  0.00  0.00    +0.024 A 
ATOM     25  C   UNL     1       9.872   0.460  22.026  0.00  0.00    +0.020 A 
ATOM     26  C   UNL     1      10.255  -0.273  23.152  0.00  0.00    +0.052 A 
ATOM     27  C   UNL     1      10.710   0.401  24.279  0.00  0.00    +0.020 A 
ATOM     28  C   UNL     1      10.756   1.797  24.284  0.00  0.00    +0.024 A 
BRANCH  26  29
ATOM     29  C   UNL     1      10.170  -1.703  23.166  0.00  0.00    +0.099 C 
ATOM     30  N   UNL     1      10.118  -2.861  23.191  0.00  0.00    -0.191 NA
ENDBRANCH  26  29
ENDBRANCH   8  23
TORSDOF 5
ENDMDL
MODEL 4
REMARK VINA RESULT:      -5.8      4.334      9.269
REMARK  Name = 
REMARK  7 active torsions:
REMARK  status: ('A' for Active; 'I' for Inactive)
REMARK    1  A    between atoms: C_1  and  C_2
REMARK    2  A    between atoms: C_4  and  C_25
REMARK    3  A    between atoms: C_6  and  C_24
REMARK    4  A    between atoms: C_7  and  N_8
REMARK    5  A    between atoms: N_15  and  C_16
REMARK    6  A    between atoms: C_19  and  C_22
REMARK    7  A    between atoms: C_26  and  C_27
REMARK                            x       y       z     vdW  Elec       q    Type
REMARK                         _______ _______ _______ _____ _____    ______ ____
ROOT
ATOM      1  N   UNL     1       6.985  -5.242  24.121  0.00  0.00    -0.299 N 
ATOM      2  H   UNL     1       7.466  -6.132  24.111  0.00  0.00    +0.154 HD
ATOM      3  C   UNL     1       5.883  -5.285  25.004  0.00  0.00    +0.128 A 
ATOM      4  C   UNL     1       5.022  -6.361  24.938  0.00  0.00    +0.063 A 
ATOM      5  C   UNL     1       3.941  -6.335  25.787  0.00  0.00    +0.118 A 
ATOM      6  N   UNL     1       3.697  -5.333  26.651  0.00  0.00    -0.223 NA
ATOM      7  C   UNL     1       4.575  -4.320  26.657  0.00  0.00    +0.221 A 
ATOM      8  N   UNL     1       4.301  -3.265  27.531  0.00  0.00    -0.284 N 
ATOM      9  H   UNL     1       3.462  -3.464  28.055  0.00  0.00    +0.155 HD
ATOM     10  N   UNL     1       5.657  -4.290  25.867  0.00  0.00    -0.199 NA
ENDROOT
BRANCH   1  13
ATOM     11  C   UNL     1       9.688  -4.763  25.414  0.00  0.00    +0.046 C 
ATOM     12  C   UNL     1       9.046  -3.883  24.376  0.00  0.00    -0.028 A 
ATOM     13  C   UNL     1       7.822  -4.162  23.732  0.00  0.00    +0.038 A 
ATOM     14  C   UNL     1       7.390  -3.270  22.707  0.00  0.00    -0.028 A 
ATOM     15  C   UNL     1       6.214  -3.590  21.816  0.00  0.00    +0.046 C 
ATOM     16  C   UNL     1       8.076  -2.050  22.480  0.00  0.00    +0.013 A 
ATOM     17  C   UNL     1       9.211  -1.713  23.217  0.00  0.00    -0.024 A 
ATOM     18  C   UNL     1       9.692  -2.651  24.132  0.00  0.00    +0.013 A 
BRANCH  17  19
ATOM     19  C   UNL     1       9.911  -0.421  23.147  0.00  0.00    +0.019 C 
ATOM     20  C   UNL     1       9.689   0.654  23.916  0.00  0.00    +0.089 C 
BRANCH  20  21
ATOM     21  C   UNL     1      10.401   1.879  23.701  0.00  0.00    +0.091 C 
ATOM     22  N   UNL     1      10.975   2.866  23.524  0.00  0.00    -0.191 NA
ENDBRANCH  20  21
ENDBRANCH  17  19
ENDBRANCH   1  13
BRANCH   8  23
ATOM     23  C   UNL     1       4.852  -1.981  27.634  0.00  0.00    +0.034 A 
ATOM     24  C   UNL     1       5.986  -1.648  26.877  0.00  0.00    +0.024 A 
ATOM     25  C   UNL     1       6.596  -0.390  26.997  0.00  0.00    +0.020 A 
ATOM     26  C   UNL     1       6.079   0.564  27.877  0.00  0.00    +0.052 A 
ATOM     27  C   UNL     1       4.933   0.266  28.605  0.00  0.00    +0.020 A 
ATOM     28  C   UNL     1       4.327  -0.985  28.468  0.00  0.00    +0.024 A 
BRANCH  26  29
ATOM     29  C   UNL     1       6.720   1.832  28.051  0.00  0.00    +0.099 C 
ATOM     30  N   UNL     1       7.222   2.870  28.185  0.00  0.00    -0.191 NA
ENDBRANCH  26  29
ENDBRANCH   8  23
TORSDOF 5
ENDMDL
MODEL 5
REMARK VINA RESULT:      -5.8      2.592      5.734
REMARK  Name = 
REMARK  7 active torsions:
REMARK  status: ('A' for Active; 'I' for Inactive)
REMARK    1  A    between atoms: C_1  and  C_2
REMARK    2  A    between atoms: C_4  and  C_25
REMARK    3  A    between atoms: C_6  and  C_24
REMARK    4  A    between atoms: C_7  and  N_8
REMARK    5  A    between atoms: N_15  and  C_16
REMARK    6  A    between atoms: C_19  and  C_22
REMARK    7  A    between atoms: C_26  and  C_27
REMARK                            x       y       z     vdW  Elec       q    Type
REMARK                         _______ _______ _______ _____ _____    ______ ____
ROOT
ATOM      1  N   UNL     1      10.268   2.596  22.932  0.00  0.00    -0.299 N 
ATOM      2  H   UNL     1      10.608   2.506  21.983  0.00  0.00    +0.154 HD
ATOM      3  C   UNL     1      10.524   3.893  23.430  0.00  0.00    +0.128 A 
ATOM      4  C   UNL     1      11.781   4.433  23.256  0.00  0.00    +0.063 A 
ATOM      5  C   UNL     1      11.993   5.679  23.797  0.00  0.00    +0.118 A 
ATOM      6  N   UNL     1      11.053   6.369  24.468  0.00  0.00    -0.223 NA
ATOM      7  C   UNL     1       9.857   5.779  24.601  0.00  0.00    +0.221 A 
ATOM      8  N   UNL     1       8.894   6.482  25.327  0.00  0.00    -0.284 N 
ATOM      9  H   UNL     1       9.269   7.371  25.623  0.00  0.00    +0.155 HD
ATOM     10  N   UNL     1       9.579   4.573  24.084  0.00  0.00    -0.199 NA
ENDROOT
BRANCH   1  13
ATOM     11  C   UNL     1      10.640   0.360  24.949  0.00  0.00    +0.046 C 
ATOM     12  C   UNL     1       9.412   0.584  24.109  0.00  0.00    -0.028 A 
ATOM     13  C   UNL     1       9.229   1.674  23.230  0.00  0.00    +0.038 A 
ATOM     14  C   UNL     1       7.971   1.791  22.570  0.00  0.00    -0.028 A 
ATOM     15  C   UNL     1       7.597   3.023  21.782  0.00  0.00    +0.046 C 
ATOM     16  C   UNL     1       7.015   0.747  22.652  0.00  0.00    +0.013 A 
ATOM     17  C   UNL     1       7.259  -0.395  23.415  0.00  0.00    -0.024 A 
ATOM     18  C   UNL     1       8.443  -0.441  24.153  0.00  0.00    +0.013 A 
BRANCH  17  19
ATOM     19  C   UNL     1       6.392  -1.582  23.458  0.00  0.00    +0.019 C 
ATOM     20  C   UNL     1       6.194  -2.468  22.471  0.00  0.00    +0.089 C 
BRANCH  20  21
ATOM     21  C   UNL     1       5.269  -3.552  22.623  0.00  0.00    +0.091 C 
ATOM     22  N   UNL     1       4.525  -4.427  22.748  0.00  0.00    -0.191 NA
ENDBRANCH  20  21
ENDBRANCH  17  19
ENDBRANCH   1  13
BRANCH   8  23
ATOM     23  C   UNL     1       7.653   6.088  25.846  0.00  0.00    +0.034 A 
ATOM     24  C   UNL     1       7.575   5.590  27.156  0.00  0.00    +0.024 A 
ATOM     25  C   UNL     1       6.358   5.137  27.689  0.00  0.00    +0.020 A 
ATOM     26  C   UNL     1       5.193   5.173  26.919  0.00  0.00    +0.052 A 
ATOM     27  C   UNL     1       5.245   5.700  25.633  0.00  0.00    +0.020 A 
ATOM     28  C   UNL     1       6.458   6.161  25.118  0.00  0.00    +0.024 A 
BRANCH  26  29
ATOM     29  C   UNL     1       3.955   4.664  27.428  0.00  0.00    +0.099 C 
ATOM     30  N   UNL     1       2.950   4.241  27.822  0.00  0.00    -0.191 NA
ENDBRANCH  26  29
ENDBRANCH   8  23
TORSDOF 5
ENDMDL
MODEL 6
REMARK VINA RESULT:      -5.8      3.844      5.709
REMARK  Name = 
REMARK  7 active torsions:
REMARK  status: ('A' for Active; 'I' for Inactive)
REMARK    1  A    between atoms: C_1  and  C_2
REMARK    2  A    between atoms: C_4  and  C_25
REMARK    3  A    between atoms: C_6  and  C_24
REMARK    4  A    between atoms: C_7  and  N_8
REMARK    5  A    between atoms: N_15  and  C_16
REMARK    6  A    between atoms: C_19  and  C_22
REMARK    7  A    between atoms: C_26  and  C_27
REMARK                            x       y       z     vdW  Elec       q    Type
REMARK                         _______ _______ _______ _____ _____    ______ ____
ROOT
ATOM      1  N   UNL     1       8.150   1.427  25.082  0.00  0.00    -0.299 N 
ATOM      2  H   UNL     1       8.861   1.961  25.565  0.00  0.00    +0.154 HD
ATOM      3  C   UNL     1       8.663   0.891  23.880  0.00  0.00    +0.128 A 
ATOM      4  C   UNL     1       9.378   1.718  23.038  0.00  0.00    +0.063 A 
ATOM      5  C   UNL     1       9.818   1.162  21.860  0.00  0.00    +0.118 A 
ATOM      6  N   UNL     1       9.585  -0.116  21.507  0.00  0.00    -0.223 NA
ATOM      7  C   UNL     1       8.881  -0.857  22.373  0.00  0.00    +0.221 A 
ATOM      8  N   UNL     1       8.611  -2.173  21.990  0.00  0.00    -0.284 N 
ATOM      9  H   UNL     1       9.034  -2.362  21.093  0.00  0.00    +0.155 HD
ATOM     10  N   UNL     1       8.436  -0.382  23.545  0.00  0.00    -0.199 NA
ENDROOT
BRANCH   1  13
ATOM     11  C   UNL     1       8.692  -0.767  27.107  0.00  0.00    +0.046 C 
ATOM     12  C   UNL     1       7.356  -0.125  26.849  0.00  0.00    -0.028 A 
ATOM     13  C   UNL     1       7.139   0.946  25.956  0.00  0.00    +0.038 A 
ATOM     14  C   UNL     1       5.827   1.500  25.889  0.00  0.00    -0.028 A 
ATOM     15  C   UNL     1       5.539   2.775  25.133  0.00  0.00    +0.046 C 
ATOM     16  C   UNL     1       4.746   0.872  26.558  0.00  0.00    +0.013 A 
ATOM     17  C   UNL     1       4.943  -0.271  27.332  0.00  0.00    -0.024 A 
ATOM     18  C   UNL     1       6.251  -0.732  27.486  0.00  0.00    +0.013 A 
BRANCH  17  19
ATOM     19  C   UNL     1       3.872  -1.065  27.953  0.00  0.00    +0.019 C 
ATOM     20  C   UNL     1       3.978  -2.308  28.447  0.00  0.00    +0.089 C 
BRANCH  20  21
ATOM     21  C   UNL     1       2.836  -2.996  28.970  0.00  0.00    +0.091 C 
ATOM     22  N   UNL     1       1.914  -3.554  29.389  0.00  0.00    -0.191 NA
ENDBRANCH  20  21
ENDBRANCH  17  19
ENDBRANCH   1  13
BRANCH   8  23
ATOM     23  C   UNL     1       7.737  -3.132  22.519  0.00  0.00    +0.034 A 
ATOM     24  C   UNL     1       8.125  -3.883  23.639  0.00  0.00    +0.024 A 
ATOM     25  C   UNL     1       7.296  -4.888  24.162  0.00  0.00    +0.020 A 
ATOM     26  C   UNL     1       6.059  -5.160  23.573  0.00  0.00    +0.052 A 
ATOM     27  C   UNL     1       5.641  -4.399  22.488  0.00  0.00    +0.020 A 
ATOM     28  C   UNL     1       6.468  -3.392  21.984  0.00  0.00    +0.024 A 
BRANCH  26  29
ATOM     29  C   UNL     1       5.226  -6.218  24.060  0.00  0.00    +0.099 C 
ATOM     30  N   UNL     1       4.568  -7.088  24.455  0.00  0.00    -0.191 NA
ENDBRANCH  26  29
ENDBRANCH   8  23
TORSDOF 5
ENDMDL
MODEL 7
REMARK VINA RESULT:      -5.7      4.487      8.076
REMARK  Name = 
REMARK  7 active torsions:
REMARK  status: ('A' for Active; 'I' for Inactive)
REMARK    1  A    between atoms: C_1  and  C_2
REMARK    2  A    between atoms: C_4  and  C_25
REMARK    3  A    between atoms: C_6  and  C_24
REMARK    4  A    between atoms: C_7  and  N_8
REMARK    5  A    between atoms: N_15  and  C_16
REMARK    6  A    between atoms: C_19  and  C_22
REMARK    7  A    between atoms: C_26  and  C_27
REMARK                            x       y       z     vdW  Elec       q    Type
REMARK                         _______ _______ _______ _____ _____    ______ ____
ROOT
ATOM      1  N   UNL     1       8.519  -2.786  23.584  0.00  0.00    -0.299 N 
ATOM      2  H   UNL     1       8.720  -2.918  22.601  0.00  0.00    +0.154 HD
ATOM      3  C   UNL     1       8.938  -1.506  24.009  0.00  0.00    +0.128 A 
ATOM      4  C   UNL     1      10.199  -1.070  23.656  0.00  0.00    +0.063 A 
ATOM      5  C   UNL     1      10.577   0.163  24.130  0.00  0.00    +0.118 A 
ATOM      6  N   UNL     1       9.792   0.937  24.902  0.00  0.00    -0.223 NA
ATOM      7  C   UNL     1       8.583   0.446  25.208  0.00  0.00    +0.221 A 
ATOM      8  N   UNL     1       7.783   1.236  26.037  0.00  0.00    -0.284 N 
ATOM      9  H   UNL     1       8.262   2.097  26.256  0.00  0.00    +0.155 HD
ATOM     10  N   UNL     1       8.146  -0.741  24.765  0.00  0.00    -0.199 NA
ENDROOT
BRANCH   1  13
ATOM     11  C   UNL     1       8.757  -4.426  26.126  0.00  0.00    +0.046 C 
ATOM     12  C   UNL     1       7.587  -4.443  25.181  0.00  0.00    -0.028 A 
ATOM     13  C   UNL     1       7.461  -3.617  24.043  0.00  0.00    +0.038 A 
ATOM     14  C   UNL     1       6.250  -3.692  23.296  0.00  0.00    -0.028 A 
ATOM     15  C   UNL     1       5.929  -2.709  22.198  0.00  0.00    +0.046 C 
ATOM     16  C   UNL     1       5.289  -4.696  23.583  0.00  0.00    +0.013 A 
ATOM     17  C   UNL     1       5.482  -5.601  24.627  0.00  0.00    -0.024 A 
ATOM     18  C   UNL     1       6.616  -5.438  25.425  0.00  0.00    +0.013 A 
BRANCH  17  19
ATOM     19  C   UNL     1       4.613  -6.751  24.918  0.00  0.00    +0.019 C 
ATOM     20  C   UNL     1       3.486  -7.090  24.276  0.00  0.00    +0.089 C 
BRANCH  20  21
ATOM     21  C   UNL     1       2.696  -8.205  24.703  0.00  0.00    +0.091 C 
ATOM     22  N   UNL     1       2.056  -9.104  25.047  0.00  0.00    -0.191 NA
ENDBRANCH  20  21
ENDBRANCH  17  19
ENDBRANCH   1  13
BRANCH   8  23
ATOM     23  C   UNL     1       6.597   0.950  26.726  0.00  0.00    +0.034 A 
ATOM     24  C   UNL     1       6.636   0.723  28.110  0.00  0.00    +0.024 A 
ATOM     25  C   UNL     1       5.476   0.381  28.823  0.00  0.00    +0.020 A 
ATOM     26  C   UNL     1       4.251   0.262  28.162  0.00  0.00    +0.052 A 
ATOM     27  C   UNL     1       4.186   0.523  26.799  0.00  0.00    +0.020 A 
ATOM     28  C   UNL     1       5.345   0.875  26.102  0.00  0.00    +0.024 A 
BRANCH  26  29
ATOM     29  C   UNL     1       3.069  -0.138  28.865  0.00  0.00    +0.099 C 
ATOM     30  N   UNL     1       2.107  -0.476  29.419  0.00  0.00    -0.191 NA
ENDBRANCH  26  29
ENDBRANCH   8  23
TORSDOF 5
ENDMDL
MODEL 8
REMARK VINA RESULT:      -5.7      2.633      5.952
REMARK  Name = 
REMARK  7 active torsions:
REMARK  status: ('A' for Active; 'I' for Inactive)
REMARK    1  A    between atoms: C_1  and  C_2
REMARK    2  A    between atoms: C_4  and  C_25
REMARK    3  A    between atoms: C_6  and  C_24
REMARK    4  A    between atoms: C_7  and  N_8
REMARK    5  A    between atoms: N_15  and  C_16
REMARK    6  A    between atoms: C_19  and  C_22
REMARK    7  A    between atoms: C_26  and  C_27
REMARK                            x       y       z     vdW  Elec       q    Type
REMARK                         _______ _______ _______ _____ _____    ______ ____
ROOT
ATOM      1  N   UNL     1      10.199   2.829  22.989  0.00  0.00    -0.299 N 
ATOM      2  H   UNL     1      10.474   3.066  22.044  0.00  0.00    +0.154 HD
ATOM      3  C   UNL     1       9.948   3.999  23.741  0.00  0.00    +0.128 A 
ATOM      4  C   UNL     1      10.865   5.029  23.690  0.00  0.00    +0.063 A 
ATOM      5  C   UNL     1      10.597   6.127  24.473  0.00  0.00    +0.118 A 
ATOM      6  N   UNL     1       9.512   6.233  25.261  0.00  0.00    -0.223 NA
ATOM      7  C   UNL     1       8.668   5.192  25.262  0.00  0.00    +0.221 A 
ATOM      8  N   UNL     1       7.560   5.290  26.106  0.00  0.00    -0.284 N 
ATOM      9  H   UNL     1       7.567   6.181  26.579  0.00  0.00    +0.155 HD
ATOM     10  N   UNL     1       8.861   4.098  24.511  0.00  0.00    -0.199 NA
ENDROOT
BRANCH   1  13
ATOM     11  C   UNL     1      11.356   0.731  24.851  0.00  0.00    +0.046 C 
ATOM     12  C   UNL     1      10.217   0.517  23.891  0.00  0.00    -0.028 A 
ATOM     13  C   UNL     1       9.644   1.525  23.087  0.00  0.00    +0.038 A 
ATOM     14  C   UNL     1       8.513   1.179  22.292  0.00  0.00    -0.028 A 
ATOM     15  C   UNL     1       7.699   2.224  21.567  0.00  0.00    +0.046 C 
ATOM     16  C   UNL     1       8.101  -0.173  22.176  0.00  0.00    +0.013 A 
ATOM     17  C   UNL     1       8.759  -1.189  22.869  0.00  0.00    -0.024 A 
ATOM     18  C   UNL     1       9.789  -0.820  23.737  0.00  0.00    +0.013 A 
BRANCH  17  19
ATOM     19  C   UNL     1       8.494  -2.627  22.714  0.00  0.00    +0.019 C 
ATOM     20  C   UNL     1       7.343  -3.193  22.324  0.00  0.00    +0.089 C 
BRANCH  20  21
ATOM     21  C   UNL     1       7.197  -4.617  22.275  0.00  0.00    +0.091 C 
ATOM     22  N   UNL     1       7.077  -5.766  22.233  0.00  0.00    -0.191 NA
ENDBRANCH  20  21
ENDBRANCH  17  19
ENDBRANCH   1  13
BRANCH   8  23
ATOM     23  C   UNL     1       6.626   4.332  26.524  0.00  0.00    +0.034 A 
ATOM     24  C   UNL     1       6.818   3.659  27.740  0.00  0.00    +0.024 A 
ATOM     25  C   UNL     1       5.931   2.657  28.164  0.00  0.00    +0.020 A 
ATOM     26  C   UNL     1       4.830   2.310  27.376  0.00  0.00    +0.052 A 
ATOM     27  C   UNL     1       4.602   2.995  26.188  0.00  0.00    +0.020 A 
ATOM     28  C   UNL     1       5.484   3.999  25.784  0.00  0.00    +0.024 A 
BRANCH  26  29
ATOM     29  C   UNL     1       3.947   1.253  27.767  0.00  0.00    +0.099 C 
ATOM     30  N   UNL     1       3.247   0.386  28.090  0.00  0.00    -0.191 NA
ENDBRANCH  26  29
ENDBRANCH   8  23
TORSDOF 5
ENDMDL
MODEL 9
REMARK VINA RESULT:      -5.6      3.253      6.593
REMARK  Name = 
REMARK  7 active torsions:
REMARK  status: ('A' for Active; 'I' for Inactive)
REMARK    1  A    between atoms: C_1  and  C_2
REMARK    2  A    between atoms: C_4  and  C_25
REMARK    3  A    between atoms: C_6  and  C_24
REMARK    4  A    between atoms: C_7  and  N_8
REMARK    5  A    between atoms: N_15  and  C_16
REMARK    6  A    between atoms: C_19  and  C_22
REMARK    7  A    between atoms: C_26  and  C_27
REMARK                            x       y       z     vdW  Elec       q    Type
REMARK                         _______ _______ _______ _____ _____    ______ ____
ROOT
ATOM      1  N   UNL     1       9.392   2.483  23.459  0.00  0.00    -0.299 N 
ATOM      2  H   UNL     1       9.430   2.728  22.478  0.00  0.00    +0.154 HD
ATOM      3  C   UNL     1       9.082   3.616  24.243  0.00  0.00    +0.128 A 
ATOM      4  C   UNL     1       9.766   4.791  24.009  0.00  0.00    +0.063 A 
ATOM      5  C   UNL     1       9.459   5.853  24.827  0.00  0.00    +0.118 A 
ATOM      6  N   UNL     1       8.547   5.793  25.815  0.00  0.00    -0.223 NA
ATOM      7  C   UNL     1       7.926   4.618  25.985  0.00  0.00    +0.221 A 
ATOM      8  N   UNL     1       7.005   4.548  27.033  0.00  0.00    -0.284 N 
ATOM      9  H   UNL     1       6.940   5.444  27.492  0.00  0.00    +0.155 HD
ATOM     10  N   UNL     1       8.166   3.548  25.213  0.00  0.00    -0.199 NA
ENDROOT
BRANCH   1  13
ATOM     11  C   UNL     1       6.763   1.228  22.610  0.00  0.00    +0.046 C 
ATOM     12  C   UNL     1       7.869   0.525  23.348  0.00  0.00    -0.028 A 
ATOM     13  C   UNL     1       9.116   1.105  23.669  0.00  0.00    +0.038 A 
ATOM     14  C   UNL     1      10.093   0.278  24.296  0.00  0.00    -0.028 A 
ATOM     15  C   UNL     1      11.519   0.733  24.485  0.00  0.00    +0.046 C 
ATOM     16  C   UNL     1       9.751  -1.023  24.747  0.00  0.00    +0.013 A 
ATOM     17  C   UNL     1       8.472  -1.542  24.549  0.00  0.00    -0.024 A 
ATOM     18  C   UNL     1       7.563  -0.767  23.827  0.00  0.00    +0.013 A 
BRANCH  17  19
ATOM     19  C   UNL     1       7.985  -2.819  25.092  0.00  0.00    +0.019 C 
ATOM     20  C   UNL     1       8.367  -3.402  26.238  0.00  0.00    +0.089 C 
BRANCH  20  21
ATOM     21  C   UNL     1       7.858  -4.685  26.622  0.00  0.00    +0.091 C 
ATOM     22  N   UNL     1       7.445  -5.719  26.930  0.00  0.00    -0.191 NA
ENDBRANCH  20  21
ENDBRANCH  17  19
ENDBRANCH   1  13
BRANCH   8  23
ATOM     23  C   UNL     1       6.362   3.455  27.630  0.00  0.00    +0.034 A 
ATOM     24  C   UNL     1       7.006   2.745  28.655  0.00  0.00    +0.024 A 
ATOM     25  C   UNL     1       6.414   1.614  29.239  0.00  0.00    +0.020 A 
ATOM     26  C   UNL     1       5.161   1.172  28.807  0.00  0.00    +0.052 A 
ATOM     27  C   UNL     1       4.491   1.886  27.821  0.00  0.00    +0.020 A 
ATOM     28  C   UNL     1       5.084   3.018  27.257  0.00  0.00    +0.024 A 
BRANCH  26  29
ATOM     29  C   UNL     1       4.568  -0.011  29.353  0.00  0.00    +0.099 C 
ATOM     30  N   UNL     1       4.086  -0.960  29.815  0.00  0.00    -0.191 NA
ENDBRANCH  26  29
ENDBRANCH   8  23
TORSDOF 5
ENDMDL
