MODEL 1
REMARK VINA RESULT:      -7.0      0.000      0.000
REMARK  Name = 
REMARK  5 active torsions:
REMARK  status: ('A' for Active; 'I' for Inactive)
REMARK    1  A    between atoms: C_3  and  N_10
REMARK    2  A    between atoms: C_6  and  C_8
REMARK    3  A    between atoms: C_8  and  O_9
REMARK    4  A    between atoms: C_14  and  N_20
REMARK    5  A    between atoms: N_20  and  C_21
REMARK                            x       y       z     vdW  Elec       q    Type
REMARK                         _______ _______ _______ _____ _____    ______ ____
ROOT
ATOM      1  N   UNL     1       8.666  -1.727  23.209  0.00  0.00    -0.312 N 
ATOM      2  C   UNL     1       8.650  -2.892  23.937  0.00  0.00    +0.167 A 
ATOM      3  C   UNL     1       7.312  -3.211  24.085  0.00  0.00    +0.148 A 
ATOM      4  C   UNL     1       7.017  -4.398  24.777  0.00  0.00    +0.152 A 
ATOM      5  N   UNL     1       8.064  -5.122  25.261  0.00  0.00    -0.198 NA
ATOM      6  C   UNL     1       9.320  -4.687  25.063  0.00  0.00    +0.216 A 
ATOM      7  N   UNL     1      10.330  -5.502  25.543  0.00  0.00    -0.327 N 
ATOM      8  H   UNL     1      11.161  -5.375  24.982  0.00  0.00    +0.145 HD
ATOM      9  H   UNL     1       9.972  -6.444  25.625  0.00  0.00    +0.145 HD
ATOM     10  N   UNL     1       6.515  -2.256  23.494  0.00  0.00    -0.231 NA
ATOM     11  N   UNL     1       9.701  -3.590  24.392  0.00  0.00    -0.195 NA
ATOM     12  C   UNL     1       7.359  -1.379  22.988  0.00  0.00    +0.202 A 
ENDROOT
BRANCH   1  16
ATOM     13  C   UNL     1       9.418   1.189  21.983  0.00  0.00    +0.008 C 
ATOM     14  C   UNL     1      10.134   1.304  23.335  0.00  0.00    +0.016 C 
ATOM     15  C   UNL     1      10.503  -0.125  23.759  0.00  0.00    +0.031 C 
ATOM     16  C   UNL     1       9.873  -1.074  22.733  0.00  0.00    +0.090 C 
ATOM     17  C   UNL     1       9.722  -0.215  21.476  0.00  0.00    +0.025 C 
BRANCH  14  18
ATOM     18  C   UNL     1       9.297   2.027  24.390  0.00  0.00    +0.159 C 
BRANCH  18  19
ATOM     19  O   UNL     1       9.013   1.156  25.475  0.00  0.00    -0.395 OA
ATOM     20  H   UNL     1       8.966   0.250  25.124  0.00  0.00    +0.209 HD
ENDBRANCH  18  19
ENDBRANCH  14  18
ENDBRANCH   1  16
BRANCH   4  21
ATOM     21  N   UNL     1       5.689  -4.842  24.935  0.00  0.00    -0.324 N 
ATOM     22  H   UNL     1       5.434  -4.830  25.921  0.00  0.00    +0.148 HD
BRANCH  21  23
ATOM     23  C   UNL     1       5.188  -5.911  24.080  0.00  0.00    +0.072 C 
ATOM     24  C   UNL     1       5.466  -5.908  22.602  0.00  0.00    +0.024 C 
ATOM     25  C   UNL     1       4.074  -5.655  23.102  0.00  0.00    +0.024 C 
ENDBRANCH  21  23
ENDBRANCH   4  21
TORSDOF 5
ENDMDL
MODEL 2
REMARK VINA RESULT:      -6.4      1.972      2.696
REMARK  Name = 
REMARK  5 active torsions:
REMARK  status: ('A' for Active; 'I' for Inactive)
REMARK    1  A    between atoms: C_3  and  N_10
REMARK    2  A    between atoms: C_6  and  C_8
REMARK    3  A    between atoms: C_8  and  O_9
REMARK    4  A    between atoms: C_14  and  N_20
REMARK    5  A    between atoms: N_20  and  C_21
REMARK                            x       y       z     vdW  Elec       q    Type
REMARK                         _______ _______ _______ _____ _____    ______ ____
ROOT
ATOM      1  N   UNL     1       9.500  -1.046  24.320  0.00  0.00    -0.312 N 
ATOM      2  C   UNL     1       8.577  -1.965  24.754  0.00  0.00    +0.167 A 
ATOM      3  C   UNL     1       8.677  -3.027  23.873  0.00  0.00    +0.148 A 
ATOM      4  C   UNL     1       7.847  -4.134  24.117  0.00  0.00    +0.152 A 
ATOM      5  N   UNL     1       7.002  -4.065  25.183  0.00  0.00    -0.198 NA
ATOM      6  C   UNL     1       6.991  -2.962  25.951  0.00  0.00    +0.216 A 
ATOM      7  N   UNL     1       6.140  -2.987  27.041  0.00  0.00    -0.327 N 
ATOM      8  H   UNL     1       6.511  -2.396  27.772  0.00  0.00    +0.145 HD
ATOM      9  H   UNL     1       5.955  -3.952  27.283  0.00  0.00    +0.145 HD
ATOM     10  N   UNL     1       9.613  -2.764  22.897  0.00  0.00    -0.231 NA
ATOM     11  N   UNL     1       7.764  -1.874  25.817  0.00  0.00    -0.195 NA
ATOM     12  C   UNL     1      10.079  -1.566  23.192  0.00  0.00    +0.202 A 
ENDROOT
BRANCH   1  16
ATOM     13  C   UNL     1      10.810   1.818  23.509  0.00  0.00    +0.008 C 
ATOM     14  C   UNL     1       9.367   2.275  23.761  0.00  0.00    +0.016 C 
ATOM     15  C   UNL     1       8.769   1.298  24.785  0.00  0.00    +0.031 C 
ATOM     16  C   UNL     1       9.809   0.194  25.011  0.00  0.00    +0.090 C 
ATOM     17  C   UNL     1      11.139   0.856  24.643  0.00  0.00    +0.025 C 
BRANCH  14  18
ATOM     18  C   UNL     1       8.537   2.356  22.481  0.00  0.00    +0.159 C 
BRANCH  18  19
ATOM     19  O   UNL     1       9.343   2.061  21.350  0.00  0.00    -0.395 OA
ATOM     20  H   UNL     1       8.763   1.700  20.658  0.00  0.00    +0.209 HD
ENDBRANCH  18  19
ENDBRANCH  14  18
ENDBRANCH   1  16
BRANCH   4  21
ATOM     21  N   UNL     1       7.910  -5.288  23.312  0.00  0.00    -0.324 N 
ATOM     22  H   UNL     1       8.790  -5.777  23.473  0.00  0.00    +0.148 HD
BRANCH  21  23
ATOM     23  C   UNL     1       7.349  -5.252  21.967  0.00  0.00    +0.072 C 
ATOM     24  C   UNL     1       6.035  -4.571  21.701  0.00  0.00    +0.024 C 
ATOM     25  C   UNL     1       6.133  -6.067  21.619  0.00  0.00    +0.024 C 
ENDBRANCH  21  23
ENDBRANCH   4  21
TORSDOF 5
ENDMDL
MODEL 3
REMARK VINA RESULT:      -6.3      2.774      7.045
REMARK  Name = 
REMARK  5 active torsions:
REMARK  status: ('A' for Active; 'I' for Inactive)
REMARK    1  A    between atoms: C_3  and  N_10
REMARK    2  A    between atoms: C_6  and  C_8
REMARK    3  A    between atoms: C_8  and  O_9
REMARK    4  A    between atoms: C_14  and  N_20
REMARK    5  A    between atoms: N_20  and  C_21
REMARK                            x       y       z     vdW  Elec       q    Type
REMARK                         _______ _______ _______ _____ _____    ______ ____
ROOT
ATOM      1  N   UNL     1       8.158  -1.527  23.776  0.00  0.00    -0.312 N 
ATOM      2  C   UNL     1       7.857  -0.244  23.391  0.00  0.00    +0.167 A 
ATOM      3  C   UNL     1       9.079   0.371  23.183  0.00  0.00    +0.148 A 
ATOM      4  C   UNL     1       9.050   1.704  22.743  0.00  0.00    +0.152 A 
ATOM      5  N   UNL     1       7.831   2.288  22.579  0.00  0.00    -0.198 NA
ATOM      6  C   UNL     1       6.717   1.582  22.837  0.00  0.00    +0.216 A 
ATOM      7  N   UNL     1       5.517   2.229  22.601  0.00  0.00    -0.327 N 
ATOM      8  H   UNL     1       4.808   1.549  22.365  0.00  0.00    +0.145 HD
ATOM      9  H   UNL     1       5.678   2.973  21.934  0.00  0.00    +0.145 HD
ATOM     10  N   UNL     1      10.114  -0.495  23.461  0.00  0.00    -0.231 NA
ATOM     11  N   UNL     1       6.643   0.301  23.228  0.00  0.00    -0.195 NA
ATOM     12  C   UNL     1       9.525  -1.619  23.821  0.00  0.00    +0.202 A 
ENDROOT
BRANCH   1  16
ATOM     13  C   UNL     1       8.108  -4.776  23.644  0.00  0.00    +0.008 C 
ATOM     14  C   UNL     1       7.974  -4.594  25.161  0.00  0.00    +0.016 C 
ATOM     15  C   UNL     1       7.294  -3.235  25.383  0.00  0.00    +0.031 C 
ATOM     16  C   UNL     1       7.170  -2.567  24.008  0.00  0.00    +0.090 C 
ATOM     17  C   UNL     1       7.182  -3.737  23.023  0.00  0.00    +0.025 C 
BRANCH  14  18
ATOM     18  C   UNL     1       9.312  -4.702  25.892  0.00  0.00    +0.159 C 
BRANCH  18  19
ATOM     19  O   UNL     1      10.303  -5.241  25.030  0.00  0.00    -0.395 OA
ATOM     20  H   UNL     1      11.137  -4.772  25.207  0.00  0.00    +0.209 HD
ENDBRANCH  18  19
ENDBRANCH  14  18
ENDBRANCH   1  16
BRANCH   4  21
ATOM     21  N   UNL     1      10.238   2.404  22.448  0.00  0.00    -0.324 N 
ATOM     22  H   UNL     1      10.804   1.867  21.794  0.00  0.00    +0.148 HD
BRANCH  21  23
ATOM     23  C   UNL     1      10.896   3.169  23.501  0.00  0.00    +0.072 C 
ATOM     24  C   UNL     1      10.516   4.601  23.760  0.00  0.00    +0.024 C 
ATOM     25  C   UNL     1      11.854   4.277  23.160  0.00  0.00    +0.024 C 
ENDBRANCH  21  23
ENDBRANCH   4  21
TORSDOF 5
ENDMDL
MODEL 4
REMARK VINA RESULT:      -6.1      2.738      6.065
REMARK  Name = 
REMARK  5 active torsions:
REMARK  status: ('A' for Active; 'I' for Inactive)
REMARK    1  A    between atoms: C_3  and  N_10
REMARK    2  A    between atoms: C_6  and  C_8
REMARK    3  A    between atoms: C_8  and  O_9
REMARK    4  A    between atoms: C_14  and  N_20
REMARK    5  A    between atoms: N_20  and  C_21
REMARK                            x       y       z     vdW  Elec       q    Type
REMARK                         _______ _______ _______ _____ _____    ______ ____
ROOT
ATOM      1  N   UNL     1       8.064  -3.063  23.588  0.00  0.00    -0.312 N 
ATOM      2  C   UNL     1       8.425  -1.989  24.363  0.00  0.00    +0.167 A 
ATOM      3  C   UNL     1       8.590  -0.939  23.478  0.00  0.00    +0.148 A 
ATOM      4  C   UNL     1       8.934   0.306  24.029  0.00  0.00    +0.152 A 
ATOM      5  N   UNL     1       9.098   0.374  25.380  0.00  0.00    -0.198 NA
ATOM      6  C   UNL     1       8.926  -0.731  26.126  0.00  0.00    +0.216 A 
ATOM      7  N   UNL     1       9.063  -0.570  27.493  0.00  0.00    -0.327 N 
ATOM      8  H   UNL     1       8.493  -1.254  27.971  0.00  0.00    +0.145 HD
ATOM      9  H   UNL     1       8.901   0.402  27.721  0.00  0.00    +0.145 HD
ATOM     10  N   UNL     1       8.369  -1.354  22.183  0.00  0.00    -0.231 NA
ATOM     11  N   UNL     1       8.568  -1.950  25.696  0.00  0.00    -0.195 NA
ATOM     12  C   UNL     1       8.065  -2.633  22.287  0.00  0.00    +0.202 A 
ENDROOT
BRANCH   1  16
ATOM     13  C   UNL     1       5.434  -4.971  23.463  0.00  0.00    +0.008 C 
ATOM     14  C   UNL     1       6.384  -5.815  22.604  0.00  0.00    +0.016 C 
ATOM     15  C   UNL     1       7.809  -5.498  23.085  0.00  0.00    +0.031 C 
ATOM     16  C   UNL     1       7.693  -4.366  24.113  0.00  0.00    +0.090 C 
ATOM     17  C   UNL     1       6.265  -4.494  24.647  0.00  0.00    +0.025 C 
BRANCH  14  18
ATOM     18  C   UNL     1       6.207  -5.569  21.107  0.00  0.00    +0.159 C 
BRANCH  18  19
ATOM     19  O   UNL     1       5.631  -4.292  20.880  0.00  0.00    -0.395 OA
ATOM     20  H   UNL     1       6.285  -3.621  21.143  0.00  0.00    +0.209 HD
ENDBRANCH  18  19
ENDBRANCH  14  18
ENDBRANCH   1  16
BRANCH   4  21
ATOM     21  N   UNL     1       9.072   1.452  23.221  0.00  0.00    -0.324 N 
ATOM     22  H   UNL     1      10.042   1.762  23.219  0.00  0.00    +0.148 HD
BRANCH  21  23
ATOM     23  C   UNL     1       8.005   2.446  23.203  0.00  0.00    +0.072 C 
ATOM     24  C   UNL     1       6.649   2.106  22.649  0.00  0.00    +0.024 C 
ATOM     25  C   UNL     1       7.545   3.056  21.907  0.00  0.00    +0.024 C 
ENDBRANCH  21  23
ENDBRANCH   4  21
TORSDOF 5
ENDMDL
MODEL 5
REMARK VINA RESULT:      -6.0      2.040      6.106
REMARK  Name = 
REMARK  5 active torsions:
REMARK  status: ('A' for Active; 'I' for Inactive)
REMARK    1  A    between atoms: C_3  and  N_10
REMARK    2  A    between atoms: C_6  and  C_8
REMARK    3  A    between atoms: C_8  and  O_9
REMARK    4  A    between atoms: C_14  and  N_20
REMARK    5  A    between atoms: N_20  and  C_21
REMARK                            x       y       z     vdW  Elec       q    Type
REMARK                         _______ _______ _______ _____ _____    ______ ____
ROOT
ATOM      1  N   UNL     1       6.074  -4.544  23.386  0.00  0.00    -0.312 N 
ATOM      2  C   UNL     1       7.362  -4.391  23.836  0.00  0.00    +0.167 A 
ATOM      3  C   UNL     1       7.727  -3.107  23.469  0.00  0.00    +0.148 A 
ATOM      4  C   UNL     1       9.011  -2.681  23.846  0.00  0.00    +0.152 A 
ATOM      5  N   UNL     1       9.797  -3.568  24.518  0.00  0.00    -0.198 NA
ATOM      6  C   UNL     1       9.326  -4.796  24.795  0.00  0.00    +0.216 A 
ATOM      7  N   UNL     1      10.166  -5.620  25.521  0.00  0.00    -0.327 N 
ATOM      8  H   UNL     1       9.614  -6.272  26.062  0.00  0.00    +0.145 HD
ATOM      9  H   UNL     1      10.822  -5.043  26.032  0.00  0.00    +0.145 HD
ATOM     10  N   UNL     1       6.705  -2.488  22.783  0.00  0.00    -0.231 NA
ATOM     11  N   UNL     1       8.109  -5.280  24.506  0.00  0.00    -0.195 NA
ATOM     12  C   UNL     1       5.735  -3.381  22.745  0.00  0.00    +0.202 A 
ENDROOT
BRANCH   1  16
ATOM     13  C   UNL     1       4.059  -5.521  25.744  0.00  0.00    +0.008 C 
ATOM     14  C   UNL     1       3.031  -5.292  24.629  0.00  0.00    +0.016 C 
ATOM     15  C   UNL     1       3.770  -5.508  23.299  0.00  0.00    +0.031 C 
ATOM     16  C   UNL     1       5.251  -5.715  23.638  0.00  0.00    +0.090 C 
ATOM     17  C   UNL     1       5.234  -6.227  25.080  0.00  0.00    +0.025 C 
BRANCH  14  18
ATOM     18  C   UNL     1       2.366  -3.918  24.707  0.00  0.00    +0.159 C 
BRANCH  18  19
ATOM     19  O   UNL     1       3.297  -2.944  25.155  0.00  0.00    -0.395 OA
ATOM     20  H   UNL     1       3.625  -3.225  26.026  0.00  0.00    +0.209 HD
ENDBRANCH  18  19
ENDBRANCH  14  18
ENDBRANCH   1  16
BRANCH   4  21
ATOM     21  N   UNL     1       9.459  -1.374  23.570  0.00  0.00    -0.324 N 
ATOM     22  H   UNL     1      10.037  -1.375  22.731  0.00  0.00    +0.148 HD
BRANCH  21  23
ATOM     23  C   UNL     1       9.806  -0.490  24.676  0.00  0.00    +0.072 C 
ATOM     24  C   UNL     1       9.430   0.966  24.642  0.00  0.00    +0.024 C 
ATOM     25  C   UNL     1      10.870   0.561  24.515  0.00  0.00    +0.024 C 
ENDBRANCH  21  23
ENDBRANCH   4  21
TORSDOF 5
ENDMDL
MODEL 6
REMARK VINA RESULT:      -6.0      1.935      2.953
REMARK  Name = 
REMARK  5 active torsions:
REMARK  status: ('A' for Active; 'I' for Inactive)
REMARK    1  A    between atoms: C_3  and  N_10
REMARK    2  A    between atoms: C_6  and  C_8
REMARK    3  A    between atoms: C_8  and  O_9
REMARK    4  A    between atoms: C_14  and  N_20
REMARK    5  A    between atoms: N_20  and  C_21
REMARK                            x       y       z     vdW  Elec       q    Type
REMARK                         _______ _______ _______ _____ _____    ______ ____
ROOT
ATOM      1  N   UNL     1       8.605  -2.970  23.794  0.00  0.00    -0.312 N 
ATOM      2  C   UNL     1       7.679  -3.983  23.739  0.00  0.00    +0.167 A 
ATOM      3  C   UNL     1       7.558  -4.439  25.039  0.00  0.00    +0.148 A 
ATOM      4  C   UNL     1       6.633  -5.471  25.265  0.00  0.00    +0.152 A 
ATOM      5  N   UNL     1       5.950  -5.952  24.190  0.00  0.00    -0.198 NA
ATOM      6  C   UNL     1       6.178  -5.431  22.971  0.00  0.00    +0.216 A 
ATOM      7  N   UNL     1       5.412  -5.941  21.938  0.00  0.00    -0.327 N 
ATOM      8  H   UNL     1       5.295  -5.234  21.226  0.00  0.00    +0.145 HD
ATOM      9  H   UNL     1       4.568  -6.339  22.330  0.00  0.00    +0.145 HD
ATOM     10  N   UNL     1       8.408  -3.750  25.878  0.00  0.00    -0.231 NA
ATOM     11  N   UNL     1       7.013  -4.429  22.663  0.00  0.00    -0.195 NA
ATOM     12  C   UNL     1       9.024  -2.885  25.096  0.00  0.00    +0.202 A 
ENDROOT
BRANCH   1  16
ATOM     13  C   UNL     1       8.650   0.220  23.164  0.00  0.00    +0.008 C 
ATOM     14  C   UNL     1      10.161  -0.039  23.205  0.00  0.00    +0.016 C 
ATOM     15  C   UNL     1      10.367  -1.506  22.796  0.00  0.00    +0.031 C 
ATOM     16  C   UNL     1       8.974  -2.134  22.665  0.00  0.00    +0.090 C 
ATOM     17  C   UNL     1       8.055  -0.943  22.381  0.00  0.00    +0.025 C 
BRANCH  14  18
ATOM     18  C   UNL     1      10.782   0.278  24.564  0.00  0.00    +0.159 C 
BRANCH  18  19
ATOM     19  O   UNL     1       9.767   0.550  25.519  0.00  0.00    -0.395 OA
ATOM     20  H   UNL     1      10.052   0.173  26.370  0.00  0.00    +0.209 HD
ENDBRANCH  18  19
ENDBRANCH  14  18
ENDBRANCH   1  16
BRANCH   4  21
ATOM     21  N   UNL     1       6.394  -5.969  26.561  0.00  0.00    -0.324 N 
ATOM     22  H   UNL     1       7.249  -6.371  26.943  0.00  0.00    +0.148 HD
BRANCH  21  23
ATOM     23  C   UNL     1       5.114  -6.600  26.859  0.00  0.00    +0.072 C 
ATOM     24  C   UNL     1       3.926  -5.773  27.267  0.00  0.00    +0.024 C 
ATOM     25  C   UNL     1       4.598  -6.665  28.271  0.00  0.00    +0.024 C 
ENDBRANCH  21  23
ENDBRANCH   4  21
TORSDOF 5
ENDMDL
MODEL 7
REMARK VINA RESULT:      -6.0      3.563      7.800
REMARK  Name = 
REMARK  5 active torsions:
REMARK  status: ('A' for Active; 'I' for Inactive)
REMARK    1  A    between atoms: C_3  and  N_10
REMARK    2  A    between atoms: C_6  and  C_8
REMARK    3  A    between atoms: C_8  and  O_9
REMARK    4  A    between atoms: C_14  and  N_20
REMARK    5  A    between atoms: N_20  and  C_21
REMARK                            x       y       z     vdW  Elec       q    Type
REMARK                         _______ _______ _______ _____ _____    ______ ____
ROOT
ATOM      1  N   UNL     1       9.183   0.637  23.093  0.00  0.00    -0.312 N 
ATOM      2  C   UNL     1       8.614   1.883  23.001  0.00  0.00    +0.167 A 
ATOM      3  C   UNL     1       9.470   2.727  23.686  0.00  0.00    +0.148 A 
ATOM      4  C   UNL     1       9.129   4.089  23.715  0.00  0.00    +0.152 A 
ATOM      5  N   UNL     1       7.979   4.464  23.088  0.00  0.00    -0.198 NA
ATOM      6  C   UNL     1       7.226   3.536  22.473  0.00  0.00    +0.216 A 
ATOM      7  N   UNL     1       6.099   4.003  21.820  0.00  0.00    -0.327 N 
ATOM      8  H   UNL     1       5.879   3.389  21.048  0.00  0.00    +0.145 HD
ATOM      9  H   UNL     1       6.235   4.982  21.602  0.00  0.00    +0.145 HD
ATOM     10  N   UNL     1      10.527   2.021  24.218  0.00  0.00    -0.231 NA
ATOM     11  N   UNL     1       7.484   2.225  22.366  0.00  0.00    -0.195 NA
ATOM     12  C   UNL     1      10.317   0.772  23.850  0.00  0.00    +0.202 A 
ENDROOT
BRANCH   1  16
ATOM     13  C   UNL     1       9.418  -2.576  23.539  0.00  0.00    +0.008 C 
ATOM     14  C   UNL     1       7.939  -2.389  23.903  0.00  0.00    +0.016 C 
ATOM     15  C   UNL     1       7.447  -1.160  23.125  0.00  0.00    +0.031 C 
ATOM     16  C   UNL     1       8.670  -0.550  22.430  0.00  0.00    +0.090 C 
ATOM     17  C   UNL     1       9.645  -1.722  22.298  0.00  0.00    +0.025 C 
BRANCH  14  18
ATOM     18  C   UNL     1       7.711  -2.254  25.408  0.00  0.00    +0.159 C 
BRANCH  18  19
ATOM     19  O   UNL     1       8.775  -1.527  26.006  0.00  0.00    -0.395 OA
ATOM     20  H   UNL     1       9.594  -2.033  25.867  0.00  0.00    +0.209 HD
ENDBRANCH  18  19
ENDBRANCH  14  18
ENDBRANCH   1  16
BRANCH   4  21
ATOM     21  N   UNL     1       9.961   5.039  24.339  0.00  0.00    -0.324 N 
ATOM     22  H   UNL     1       9.423   5.588  25.007  0.00  0.00    +0.148 HD
BRANCH  21  23
ATOM     23  C   UNL     1      11.011   5.689  23.562  0.00  0.00    +0.072 C 
ATOM     24  C   UNL     1      12.331   5.007  23.334  0.00  0.00    +0.024 C 
ATOM     25  C   UNL     1      12.253   6.208  24.232  0.00  0.00    +0.024 C 
ENDBRANCH  21  23
ENDBRANCH   4  21
TORSDOF 5
ENDMDL
MODEL 8
REMARK VINA RESULT:      -5.9      2.519      4.065
REMARK  Name = 
REMARK  5 active torsions:
REMARK  status: ('A' for Active; 'I' for Inactive)
REMARK    1  A    between atoms: C_3  and  N_10
REMARK    2  A    between atoms: C_6  and  C_8
REMARK    3  A    between atoms: C_8  and  O_9
REMARK    4  A    between atoms: C_14  and  N_20
REMARK    5  A    between atoms: N_20  and  C_21
REMARK                            x       y       z     vdW  Elec       q    Type
REMARK                         _______ _______ _______ _____ _____    ______ ____
ROOT
ATOM      1  N   UNL     1       6.184  -3.518  24.373  0.00  0.00    -0.312 N 
ATOM      2  C   UNL     1       5.595  -4.678  24.810  0.00  0.00    +0.167 A 
ATOM      3  C   UNL     1       4.783  -5.090  23.768  0.00  0.00    +0.148 A 
ATOM      4  C   UNL     1       4.079  -6.292  23.950  0.00  0.00    +0.152 A 
ATOM      5  N   UNL     1       4.235  -6.940  25.138  0.00  0.00    -0.198 NA
ATOM      6  C   UNL     1       5.043  -6.419  26.077  0.00  0.00    +0.216 A 
ATOM      7  N   UNL     1       5.185  -7.160  27.237  0.00  0.00    -0.327 N 
ATOM      8  H   UNL     1       6.092  -6.977  27.644  0.00  0.00    +0.145 HD
ATOM      9  H   UNL     1       4.961  -8.125  27.032  0.00  0.00    +0.145 HD
ATOM     10  N   UNL     1       4.841  -4.194  22.723  0.00  0.00    -0.231 NA
ATOM     11  N   UNL     1       5.776  -5.300  25.984  0.00  0.00    -0.195 NA
ATOM     12  C   UNL     1       5.682  -3.262  23.124  0.00  0.00    +0.202 A 
ENDROOT
BRANCH   1  16
ATOM     13  C   UNL     1       9.414  -3.177  24.205  0.00  0.00    +0.008 C 
ATOM     14  C   UNL     1       9.000  -1.766  23.770  0.00  0.00    +0.016 C 
ATOM     15  C   UNL     1       7.638  -1.486  24.425  0.00  0.00    +0.031 C 
ATOM     16  C   UNL     1       7.197  -2.784  25.112  0.00  0.00    +0.090 C 
ATOM     17  C   UNL     1       8.508  -3.528  25.378  0.00  0.00    +0.025 C 
BRANCH  14  18
ATOM     18  C   UNL     1       8.960  -1.599  22.252  0.00  0.00    +0.159 C 
BRANCH  18  19
ATOM     19  O   UNL     1      10.275  -1.636  21.717  0.00  0.00    -0.395 OA
ATOM     20  H   UNL     1      10.239  -2.127  20.877  0.00  0.00    +0.209 HD
ENDBRANCH  18  19
ENDBRANCH  14  18
ENDBRANCH   1  16
BRANCH   4  21
ATOM     21  N   UNL     1       3.269  -6.827  22.929  0.00  0.00    -0.324 N 
ATOM     22  H   UNL     1       3.521  -6.414  22.033  0.00  0.00    +0.148 HD
BRANCH  21  23
ATOM     23  C   UNL     1       1.870  -7.125  23.211  0.00  0.00    +0.072 C 
ATOM     24  C   UNL     1       1.068  -7.995  22.282  0.00  0.00    +0.024 C 
ATOM     25  C   UNL     1       0.773  -6.525  22.374  0.00  0.00    +0.024 C 
ENDBRANCH  21  23
ENDBRANCH   4  21
TORSDOF 5
ENDMDL
MODEL 9
REMARK VINA RESULT:      -5.7      1.885      2.198
REMARK  Name = 
REMARK  5 active torsions:
REMARK  status: ('A' for Active; 'I' for Inactive)
REMARK    1  A    between atoms: C_3  and  N_10
REMARK    2  A    between atoms: C_6  and  C_8
REMARK    3  A    between atoms: C_8  and  O_9
REMARK    4  A    between atoms: C_14  and  N_20
REMARK    5  A    between atoms: N_20  and  C_21
REMARK                            x       y       z     vdW  Elec       q    Type
REMARK                         _______ _______ _______ _____ _____    ______ ____
ROOT
ATOM      1  N   UNL     1       8.101  -1.603  23.463  0.00  0.00    -0.312 N 
ATOM      2  C   UNL     1       7.413  -2.769  23.234  0.00  0.00    +0.167 A 
ATOM      3  C   UNL     1       6.187  -2.598  23.853  0.00  0.00    +0.148 A 
ATOM      4  C   UNL     1       5.267  -3.652  23.738  0.00  0.00    +0.152 A 
ATOM      5  N   UNL     1       5.660  -4.760  23.051  0.00  0.00    -0.198 NA
ATOM      6  C   UNL     1       6.891  -4.806  22.513  0.00  0.00    +0.216 A 
ATOM      7  N   UNL     1       7.198  -5.945  21.791  0.00  0.00    -0.327 N 
ATOM      8  H   UNL     1       7.878  -5.718  21.078  0.00  0.00    +0.145 HD
ATOM      9  H   UNL     1       6.335  -6.372  21.480  0.00  0.00    +0.145 HD
ATOM     10  N   UNL     1       6.125  -1.371  24.477  0.00  0.00    -0.231 NA
ATOM     11  N   UNL     1       7.823  -3.842  22.542  0.00  0.00    -0.195 NA
ATOM     12  C   UNL     1       7.290  -0.807  24.230  0.00  0.00    +0.202 A 
ENDROOT
BRANCH   1  16
ATOM     13  C   UNL     1       9.370   0.754  21.617  0.00  0.00    +0.008 C 
ATOM     14  C   UNL     1      10.081   1.073  22.938  0.00  0.00    +0.016 C 
ATOM     15  C   UNL     1      10.187  -0.250  23.711  0.00  0.00    +0.031 C 
ATOM     16  C   UNL     1       9.410  -1.301  22.909  0.00  0.00    +0.090 C 
ATOM     17  C   UNL     1       9.426  -0.762  21.477  0.00  0.00    +0.025 C 
BRANCH  14  18
ATOM     18  C   UNL     1       9.375   2.163  23.744  0.00  0.00    +0.159 C 
BRANCH  18  19
ATOM     19  O   UNL     1       9.350   1.819  25.122  0.00  0.00    -0.395 OA
ATOM     20  H   UNL     1       8.931   0.945  25.202  0.00  0.00    +0.209 HD
ENDBRANCH  18  19
ENDBRANCH  14  18
ENDBRANCH   1  16
BRANCH   4  21
ATOM     21  N   UNL     1       3.971  -3.556  24.284  0.00  0.00    -0.324 N 
ATOM     22  H   UNL     1       3.942  -2.811  24.979  0.00  0.00    +0.148 HD
BRANCH  21  23
ATOM     23  C   UNL     1       3.197  -4.771  24.506  0.00  0.00    +0.072 C 
ATOM     24  C   UNL     1       2.164  -5.216  23.509  0.00  0.00    +0.024 C 
ATOM     25  C   UNL     1       1.735  -4.699  24.852  0.00  0.00    +0.024 C 
ENDBRANCH  21  23
ENDBRANCH   4  21
TORSDOF 5
ENDMDL
