MODEL 1
REMARK VINA RESULT:      -8.0      0.000      0.000
REMARK  Name = 
REMARK  13 active torsions:
REMARK  status: ('A' for Active; 'I' for Inactive)
REMARK    1  A    between atoms: C_1  and  C_2
REMARK    2  A    between atoms: C_3  and  O_54
REMARK    3  A    between atoms: C_9  and  C_46
REMARK    4  A    between atoms: C_11  and  O_12
REMARK    5  A    between atoms: O_12  and  C_13
REMARK    6  A    between atoms: C_23  and  C_37
REMARK    7  A    between atoms: N_33  and  C_36
REMARK    8  A    between atoms: N_39  and  S_40
REMARK    9  A    between atoms: S_40  and  C_43
REMARK   10  A    between atoms: C_48  and  C_51
REMARK   11  A    between atoms: C_51  and  C_52
REMARK   12  A    between atoms: C_51  and  C_53
REMARK   13  A    between atoms: O_54  and  C_55
REMARK                            x       y       z     vdW  Elec       q    Type
REMARK                         _______ _______ _______ _____ _____    ______ ____
ROOT
ATOM      1  C   UNL     1       5.780   0.232  26.981  0.00  0.00    +0.175 C 
ATOM      2  C   UNL     1       4.822  -0.202  25.874  0.00  0.00    +0.058 C 
ATOM      3  C   UNL     1       4.456  -1.652  26.178  0.00  0.00    +0.090 C 
ATOM      4  C   UNL     1       5.058  -2.734  25.314  0.00  0.00    +0.218 C 
ATOM      5  O   UNL     1       5.388  -3.805  25.829  0.00  0.00    -0.275 OA
ATOM      6  N   UNL     1       5.306  -2.522  23.966  0.00  0.00    -0.301 N 
ATOM      7  H   UNL     1       4.817  -1.814  23.429  0.00  0.00    +0.150 HD
ATOM      8  C   UNL     1       5.962  -3.661  23.264  0.00  0.00    +0.119 C 
ATOM      9  C   UNL     1       4.872  -4.691  22.894  0.00  0.00    +0.046 C 
ATOM     10  C   UNL     1       4.871  -5.927  23.679  0.00  0.00    -0.025 C 
ATOM     11  C   UNL     1       3.716  -6.501  24.057  0.00  0.00    -0.031 C 
ATOM     12  C   UNL     1       3.529  -7.535  25.124  0.00  0.00    +0.027 C 
ATOM     13  C   UNL     1       2.725  -6.938  26.300  0.00  0.00    +0.006 C 
ATOM     14  C   UNL     1       3.623  -6.186  27.293  0.00  0.00    +0.019 C 
ATOM     15  C   UNL     1       3.019  -4.882  27.838  0.00  0.00    +0.107 C 
ATOM     16  N   UNL     1       4.052  -4.017  28.415  0.00  0.00    -0.304 N 
ATOM     17  C   UNL     1       4.763  -4.498  29.585  0.00  0.00    +0.132 C 
ATOM     18  C   UNL     1       3.827  -2.640  28.371  0.00  0.00    +0.219 C 
ATOM     19  O   UNL     1       2.760  -2.108  28.658  0.00  0.00    -0.275 OA
ATOM     20  C   UNL     1       5.782  -4.205  21.846  0.00  0.00    +0.046 C 
ATOM     21  C   UNL     1       4.940  -1.901  27.648  0.00  0.00    +0.091 C 
ATOM     22  C   UNL     1       5.287  -0.530  28.207  0.00  0.00    +0.058 C 
ENDROOT
BRANCH   8  23
ATOM     23  C   UNL     1       7.356  -4.020  23.835  0.00  0.00    +0.256 C 
ATOM     24  N   UNL     1       7.921  -2.964  24.595  0.00  0.00    -0.188 N 
ATOM     25  H   UNL     1       7.337  -2.145  24.481  0.00  0.00    +0.176 HD
ATOM     26  O   UNL     1       7.947  -5.046  23.543  0.00  0.00    -0.272 OA
BRANCH  24  27
ATOM     27  S   UNL     1       9.413  -2.441  24.172  0.00  0.00    +0.048 S 
ATOM     28  O   UNL     1      10.150  -3.677  24.331  0.00  0.00    -0.155 OA
ATOM     29  O   UNL     1       9.739  -1.210  24.847  0.00  0.00    -0.155 OA
BRANCH  27  30
ATOM     30  C   UNL     1       9.403  -2.107  22.373  0.00  0.00    +0.151 C 
ATOM     31  C   UNL     1      10.120  -0.858  21.928  0.00  0.00    +0.030 C 
ATOM     32  C   UNL     1       8.622  -0.886  21.957  0.00  0.00    +0.030 C 
ENDBRANCH  27  30
ENDBRANCH  24  27
ENDBRANCH   8  23
BRANCH   1  33
ATOM     33  O   UNL     1       5.735   1.629  27.233  0.00  0.00    -0.488 OA
BRANCH  33  40
ATOM     34  C   UNL     1       4.868   6.067  23.086  0.00  0.00    +0.050 C 
ATOM     35  C   UNL     1       4.498   5.161  24.240  0.00  0.00    +0.017 A 
ATOM     36  C   UNL     1       5.484   4.284  24.734  0.00  0.00    +0.082 A 
ATOM     37  N   UNL     1       6.740   4.315  24.229  0.00  0.00    -0.244 NA
ATOM     38  C   UNL     1       7.697   3.503  24.738  0.00  0.00    +0.100 A 
ATOM     39  C   UNL     1       7.414   2.569  25.724  0.00  0.00    +0.076 A 
ATOM     40  C   UNL     1       6.125   2.501  26.241  0.00  0.00    +0.132 A 
ATOM     41  C   UNL     1       5.132   3.398  25.761  0.00  0.00    +0.043 A 
ATOM     42  C   UNL     1       3.832   3.425  26.303  0.00  0.00    +0.017 A 
ATOM     43  C   UNL     1       2.877   4.320  25.829  0.00  0.00    +0.047 A 
ATOM     44  C   UNL     1       3.199   5.188  24.793  0.00  0.00    +0.125 A 
BRANCH  38  45
ATOM     45  C   UNL     1       9.088   3.681  24.260  0.00  0.00    +0.127 A 
ATOM     46  S   UNL     1      10.010   2.330  23.720  0.00  0.00    -0.074 S 
ATOM     47  C   UNL     1      11.325   3.367  23.360  0.00  0.00    +0.070 A 
ATOM     48  C   UNL     1      11.002   4.680  23.642  0.00  0.00    +0.052 A 
ATOM     49  N   UNL     1       9.733   4.839  24.207  0.00  0.00    -0.242 NA
BRANCH  48  50
ATOM     50  C   UNL     1      11.900   5.876  23.398  0.00  0.00    +0.032 C 
ATOM     51  C   UNL     1      13.184   5.482  22.705  0.00  0.00    +0.014 C 
ATOM     52  C   UNL     1      12.296   6.581  24.702  0.00  0.00    +0.014 C 
ENDBRANCH  48  50
ENDBRANCH  38  45
BRANCH  44  53
ATOM     53  O   UNL     1       2.327   6.105  24.260  0.00  0.00    -0.495 OA
ATOM     54  C   UNL     1       1.231   5.619  23.497  0.00  0.00    +0.277 C 
ENDBRANCH  44  53
ENDBRANCH  33  40
ENDBRANCH   1  33
TORSDOF 8
ENDMDL
MODEL 2
REMARK VINA RESULT:      -7.6      2.809      6.730
REMARK  Name = 
REMARK  13 active torsions:
REMARK  status: ('A' for Active; 'I' for Inactive)
REMARK    1  A    between atoms: C_1  and  C_2
REMARK    2  A    between atoms: C_3  and  O_54
REMARK    3  A    between atoms: C_9  and  C_46
REMARK    4  A    between atoms: C_11  and  O_12
REMARK    5  A    between atoms: O_12  and  C_13
REMARK    6  A    between atoms: C_23  and  C_37
REMARK    7  A    between atoms: N_33  and  C_36
REMARK    8  A    between atoms: N_39  and  S_40
REMARK    9  A    between atoms: S_40  and  C_43
REMARK   10  A    between atoms: C_48  and  C_51
REMARK   11  A    between atoms: C_51  and  C_52
REMARK   12  A    between atoms: C_51  and  C_53
REMARK   13  A    between atoms: O_54  and  C_55
REMARK                            x       y       z     vdW  Elec       q    Type
REMARK                         _______ _______ _______ _____ _____    ______ ____
ROOT
ATOM      1  C   UNL     1       6.789  -0.398  23.912  0.00  0.00    +0.175 C 
ATOM      2  C   UNL     1       7.208  -0.839  25.313  0.00  0.00    +0.058 C 
ATOM      3  C   UNL     1       6.568  -2.206  25.535  0.00  0.00    +0.090 C 
ATOM      4  C   UNL     1       5.382  -2.295  26.466  0.00  0.00    +0.218 C 
ATOM      5  O   UNL     1       4.460  -3.068  26.199  0.00  0.00    -0.275 OA
ATOM      6  N   UNL     1       5.283  -1.477  27.583  0.00  0.00    -0.301 N 
ATOM      7  H   UNL     1       6.094  -1.047  28.015  0.00  0.00    +0.150 HD
ATOM      8  C   UNL     1       4.027  -1.638  28.366  0.00  0.00    +0.119 C 
ATOM      9  C   UNL     1       4.189  -2.865  29.290  0.00  0.00    +0.046 C 
ATOM     10  C   UNL     1       3.422  -4.053  28.909  0.00  0.00    -0.025 C 
ATOM     11  C   UNL     1       3.951  -5.282  29.035  0.00  0.00    -0.031 C 
ATOM     12  C   UNL     1       3.466  -6.545  28.389  0.00  0.00    +0.027 C 
ATOM     13  C   UNL     1       4.505  -7.040  27.359  0.00  0.00    +0.006 C 
ATOM     14  C   UNL     1       4.333  -6.364  25.991  0.00  0.00    +0.019 C 
ATOM     15  C   UNL     1       5.650  -5.995  25.292  0.00  0.00    +0.107 C 
ATOM     16  N   UNL     1       5.434  -4.998  24.239  0.00  0.00    -0.304 N 
ATOM     17  C   UNL     1       4.620  -5.381  23.100  0.00  0.00    +0.132 C 
ATOM     18  C   UNL     1       6.488  -4.128  23.959  0.00  0.00    +0.219 C 
ATOM     19  O   UNL     1       7.657  -4.479  23.838  0.00  0.00    -0.275 OA
ATOM     20  C   UNL     1       3.767  -1.582  29.873  0.00  0.00    +0.046 C 
ATOM     21  C   UNL     1       6.086  -2.671  24.117  0.00  0.00    +0.091 C 
ATOM     22  C   UNL     1       6.719  -1.706  23.128  0.00  0.00    +0.058 C 
ENDROOT
BRANCH   8  23
ATOM     23  C   UNL     1       2.748  -1.304  27.560  0.00  0.00    +0.256 C 
ATOM     24  N   UNL     1       2.852  -0.077  26.855  0.00  0.00    -0.188 N 
ATOM     25  H   UNL     1       3.705   0.384  27.149  0.00  0.00    +0.176 HD
ATOM     26  O   UNL     1       1.723  -1.963  27.639  0.00  0.00    -0.272 OA
BRANCH  24  27
ATOM     27  S   UNL     1       1.692   1.047  27.115  0.00  0.00    +0.048 S 
ATOM     28  O   UNL     1       1.643   1.006  28.561  0.00  0.00    -0.155 OA
ATOM     29  O   UNL     1       0.555   0.822  26.258  0.00  0.00    -0.155 OA
BRANCH  27  30
ATOM     30  C   UNL     1       2.391   2.686  26.697  0.00  0.00    +0.151 C 
ATOM     31  C   UNL     1       2.055   3.218  25.327  0.00  0.00    +0.030 C 
ATOM     32  C   UNL     1       3.425   2.674  25.598  0.00  0.00    +0.030 C 
ENDBRANCH  27  30
ENDBRANCH  24  27
ENDBRANCH   8  23
BRANCH   1  33
ATOM     33  O   UNL     1       7.729   0.476  23.305  0.00  0.00    -0.488 OA
BRANCH  33  40
ATOM     34  C   UNL     1       9.063   6.462  23.492  0.00  0.00    +0.050 C 
ATOM     35  C   UNL     1       9.361   4.978  23.477  0.00  0.00    +0.017 A 
ATOM     36  C   UNL     1       8.279   4.089  23.319  0.00  0.00    +0.082 A 
ATOM     37  N   UNL     1       7.028   4.565  23.116  0.00  0.00    -0.244 NA
ATOM     38  C   UNL     1       5.998   3.707  22.919  0.00  0.00    +0.100 A 
ATOM     39  C   UNL     1       6.168   2.332  22.995  0.00  0.00    +0.076 A 
ATOM     40  C   UNL     1       7.439   1.820  23.229  0.00  0.00    +0.132 A 
ATOM     41  C   UNL     1       8.538   2.712  23.366  0.00  0.00    +0.043 A 
ATOM     42  C   UNL     1       9.857   2.246  23.527  0.00  0.00    +0.017 A 
ATOM     43  C   UNL     1      10.921   3.135  23.647  0.00  0.00    +0.047 A 
ATOM     44  C   UNL     1      10.682   4.503  23.629  0.00  0.00    +0.125 A 
BRANCH  38  45
ATOM     45  C   UNL     1       4.681   4.274  22.548  0.00  0.00    +0.127 A 
ATOM     46  S   UNL     1       4.345   5.945  22.789  0.00  0.00    -0.074 S 
ATOM     47  C   UNL     1       2.785   5.733  22.115  0.00  0.00    +0.070 A 
ATOM     48  C   UNL     1       2.598   4.423  21.721  0.00  0.00    +0.052 A 
ATOM     49  N   UNL     1       3.675   3.584  22.023  0.00  0.00    -0.242 NA
BRANCH  48  50
ATOM     50  C   UNL     1       1.360   3.881  21.034  0.00  0.00    +0.032 C 
ATOM     51  C   UNL     1       0.863   2.614  21.691  0.00  0.00    +0.014 C 
ATOM     52  C   UNL     1       1.613   3.548  19.559  0.00  0.00    +0.014 C 
ENDBRANCH  48  50
ENDBRANCH  38  45
BRANCH  44  53
ATOM     53  O   UNL     1      11.664   5.456  23.740  0.00  0.00    -0.495 OA
ATOM     54  C   UNL     1      12.871   5.258  23.016  0.00  0.00    +0.277 C 
ENDBRANCH  44  53
ENDBRANCH  33  40
ENDBRANCH   1  33
TORSDOF 8
ENDMDL
MODEL 3
REMARK VINA RESULT:      -7.4      2.632      5.427
REMARK  Name = 
REMARK  13 active torsions:
REMARK  status: ('A' for Active; 'I' for Inactive)
REMARK    1  A    between atoms: C_1  and  C_2
REMARK    2  A    between atoms: C_3  and  O_54
REMARK    3  A    between atoms: C_9  and  C_46
REMARK    4  A    between atoms: C_11  and  O_12
REMARK    5  A    between atoms: O_12  and  C_13
REMARK    6  A    between atoms: C_23  and  C_37
REMARK    7  A    between atoms: N_33  and  C_36
REMARK    8  A    between atoms: N_39  and  S_40
REMARK    9  A    between atoms: S_40  and  C_43
REMARK   10  A    between atoms: C_48  and  C_51
REMARK   11  A    between atoms: C_51  and  C_52
REMARK   12  A    between atoms: C_51  and  C_53
REMARK   13  A    between atoms: O_54  and  C_55
REMARK                            x       y       z     vdW  Elec       q    Type
REMARK                         _______ _______ _______ _____ _____    ______ ____
ROOT
ATOM      1  C   UNL     1       7.215  -0.048  23.995  0.00  0.00    +0.175 C 
ATOM      2  C   UNL     1       5.999  -0.868  23.569  0.00  0.00    +0.058 C 
ATOM      3  C   UNL     1       5.248  -1.207  24.853  0.00  0.00    +0.090 C 
ATOM      4  C   UNL     1       5.326  -2.624  25.370  0.00  0.00    +0.218 C 
ATOM      5  O   UNL     1       5.379  -2.823  26.585  0.00  0.00    -0.275 OA
ATOM      6  N   UNL     1       5.401  -3.703  24.500  0.00  0.00    -0.301 N 
ATOM      7  H   UNL     1       5.080  -3.649  23.540  0.00  0.00    +0.150 HD
ATOM      8  C   UNL     1       5.537  -5.030  25.161  0.00  0.00    +0.119 C 
ATOM      9  C   UNL     1       4.132  -5.495  25.602  0.00  0.00    +0.046 C 
ATOM     10  C   UNL     1       3.870  -5.451  27.042  0.00  0.00    -0.025 C 
ATOM     11  C   UNL     1       2.672  -5.062  27.511  0.00  0.00    -0.031 C 
ATOM     12  C   UNL     1       2.345  -4.630  28.908  0.00  0.00    +0.027 C 
ATOM     13  C   UNL     1       1.978  -3.131  28.922  0.00  0.00    +0.006 C 
ATOM     14  C   UNL     1       3.219  -2.231  29.016  0.00  0.00    +0.019 C 
ATOM     15  C   UNL     1       3.158  -0.967  28.144  0.00  0.00    +0.107 C 
ATOM     16  N   UNL     1       4.492  -0.395  27.940  0.00  0.00    -0.304 N 
ATOM     17  C   UNL     1       5.197   0.111  29.103  0.00  0.00    +0.132 C 
ATOM     18  C   UNL     1       4.711   0.304  26.753  0.00  0.00    +0.219 C 
ATOM     19  O   UNL     1       3.930   1.126  26.284  0.00  0.00    -0.275 OA
ATOM     20  C   UNL     1       4.963  -6.400  24.793  0.00  0.00    +0.046 C 
ATOM     21  C   UNL     1       5.865  -0.274  25.952  0.00  0.00    +0.091 C 
ATOM     22  C   UNL     1       6.715   0.740  25.203  0.00  0.00    +0.058 C 
ENDROOT
BRANCH   8  23
ATOM     23  C   UNL     1       6.820  -5.167  26.017  0.00  0.00    +0.256 C 
ATOM     24  N   UNL     1       7.791  -4.180  25.707  0.00  0.00    -0.188 N 
ATOM     25  H   UNL     1       7.478  -3.679  24.884  0.00  0.00    +0.176 HD
ATOM     26  O   UNL     1       7.015  -6.104  26.774  0.00  0.00    -0.272 OA
BRANCH  24  27
ATOM     27  S   UNL     1       9.291  -4.694  25.304  0.00  0.00    +0.048 S 
ATOM     28  O   UNL     1       8.941  -5.701  24.324  0.00  0.00    -0.155 OA
ATOM     29  O   UNL     1      10.083  -4.948  26.482  0.00  0.00    -0.155 OA
BRANCH  27  30
ATOM     30  C   UNL     1      10.109  -3.358  24.358  0.00  0.00    +0.151 C 
ATOM     31  C   UNL     1       9.580  -1.966  24.589  0.00  0.00    +0.030 C 
ATOM     32  C   UNL     1       9.241  -2.690  23.321  0.00  0.00    +0.030 C 
ENDBRANCH  27  30
ENDBRANCH  24  27
ENDBRANCH   8  23
BRANCH   1  33
ATOM     33  O   UNL     1       7.656   0.849  22.986  0.00  0.00    -0.488 OA
BRANCH  33  40
ATOM     34  C   UNL     1       8.237   6.905  23.776  0.00  0.00    +0.050 C 
ATOM     35  C   UNL     1       8.714   5.475  23.653  0.00  0.00    +0.017 A 
ATOM     36  C   UNL     1       7.759   4.484  23.348  0.00  0.00    +0.082 A 
ATOM     37  N   UNL     1       6.473   4.828  23.104  0.00  0.00    -0.244 NA
ATOM     38  C   UNL     1       5.568   3.878  22.766  0.00  0.00    +0.100 A 
ATOM     39  C   UNL     1       5.899   2.531  22.735  0.00  0.00    +0.076 A 
ATOM     40  C   UNL     1       7.209   2.151  23.007  0.00  0.00    +0.132 A 
ATOM     41  C   UNL     1       8.181   3.149  23.293  0.00  0.00    +0.043 A 
ATOM     42  C   UNL     1       9.536   2.826  23.500  0.00  0.00    +0.017 A 
ATOM     43  C   UNL     1      10.476   3.819  23.766  0.00  0.00    +0.047 A 
ATOM     44  C   UNL     1      10.072   5.145  23.851  0.00  0.00    +0.125 A 
BRANCH  38  45
ATOM     45  C   UNL     1       4.213   4.320  22.360  0.00  0.00    +0.127 A 
ATOM     46  S   UNL     1       3.657   5.905  22.736  0.00  0.00    -0.074 S 
ATOM     47  C   UNL     1       2.178   5.580  21.936  0.00  0.00    +0.070 A 
ATOM     48  C   UNL     1       2.180   4.305  21.406  0.00  0.00    +0.052 A 
ATOM     49  N   UNL     1       3.334   3.574  21.702  0.00  0.00    -0.242 NA
BRANCH  48  50
ATOM     50  C   UNL     1       1.061   3.694  20.585  0.00  0.00    +0.032 C 
ATOM     51  C   UNL     1       0.835   2.242  20.937  0.00  0.00    +0.014 C 
ATOM     52  C   UNL     1       1.350   3.747  19.080  0.00  0.00    +0.014 C 
ENDBRANCH  48  50
ENDBRANCH  38  45
BRANCH  44  53
ATOM     53  O   UNL     1      10.923   6.191  24.108  0.00  0.00    -0.495 OA
ATOM     54  C   UNL     1      12.317   5.981  23.919  0.00  0.00    +0.277 C 
ENDBRANCH  44  53
ENDBRANCH  33  40
ENDBRANCH   1  33
TORSDOF 8
ENDMDL
MODEL 4
REMARK VINA RESULT:      -6.8      2.931     10.356
REMARK  Name = 
REMARK  13 active torsions:
REMARK  status: ('A' for Active; 'I' for Inactive)
REMARK    1  A    between atoms: C_1  and  C_2
REMARK    2  A    between atoms: C_3  and  O_54
REMARK    3  A    between atoms: C_9  and  C_46
REMARK    4  A    between atoms: C_11  and  O_12
REMARK    5  A    between atoms: O_12  and  C_13
REMARK    6  A    between atoms: C_23  and  C_37
REMARK    7  A    between atoms: N_33  and  C_36
REMARK    8  A    between atoms: N_39  and  S_40
REMARK    9  A    between atoms: S_40  and  C_43
REMARK   10  A    between atoms: C_48  and  C_51
REMARK   11  A    between atoms: C_51  and  C_52
REMARK   12  A    between atoms: C_51  and  C_53
REMARK   13  A    between atoms: O_54  and  C_55
REMARK                            x       y       z     vdW  Elec       q    Type
REMARK                         _______ _______ _______ _____ _____    ______ ____
ROOT
ATOM      1  C   UNL     1       8.210  -1.292  26.425  0.00  0.00    +0.175 C 
ATOM      2  C   UNL     1       6.893  -0.864  25.782  0.00  0.00    +0.058 C 
ATOM      3  C   UNL     1       7.197   0.419  25.012  0.00  0.00    +0.090 C 
ATOM      4  C   UNL     1       6.700   1.725  25.583  0.00  0.00    +0.218 C 
ATOM      5  O   UNL     1       7.399   2.736  25.478  0.00  0.00    -0.275 OA
ATOM      6  N   UNL     1       5.501   1.797  26.278  0.00  0.00    -0.301 N 
ATOM      7  H   UNL     1       4.763   1.111  26.159  0.00  0.00    +0.150 HD
ATOM      8  C   UNL     1       5.179   3.140  26.834  0.00  0.00    +0.119 C 
ATOM      9  C   UNL     1       4.565   3.995  25.703  0.00  0.00    +0.046 C 
ATOM     10  C   UNL     1       5.421   5.057  25.172  0.00  0.00    -0.025 C 
ATOM     11  C   UNL     1       5.440   5.331  23.856  0.00  0.00    -0.031 C 
ATOM     12  C   UNL     1       6.478   6.115  23.112  0.00  0.00    +0.027 C 
ATOM     13  C   UNL     1       7.246   5.186  22.146  0.00  0.00    +0.006 C 
ATOM     14  C   UNL     1       8.405   4.459  22.843  0.00  0.00    +0.019 C 
ATOM     15  C   UNL     1       8.582   2.992  22.422  0.00  0.00    +0.107 C 
ATOM     16  N   UNL     1       9.387   2.250  23.397  0.00  0.00    -0.304 N 
ATOM     17  C   UNL     1      10.770   2.650  23.578  0.00  0.00    +0.132 C 
ATOM     18  C   UNL     1       9.133   0.884  23.525  0.00  0.00    +0.219 C 
ATOM     19  O   UNL     1       8.987   0.120  22.576  0.00  0.00    -0.275 OA
ATOM     20  C   UNL     1       3.845   3.875  26.980  0.00  0.00    +0.046 C 
ATOM     21  C   UNL     1       8.761   0.500  24.946  0.00  0.00    +0.091 C 
ATOM     22  C   UNL     1       9.266  -0.855  25.413  0.00  0.00    +0.058 C 
ENDROOT
BRANCH   8  23
ATOM     23  C   UNL     1       6.221   3.652  27.859  0.00  0.00    +0.256 C 
ATOM     24  N   UNL     1       7.023   2.608  28.387  0.00  0.00    -0.188 N 
ATOM     25  H   UNL     1       6.640   1.725  28.073  0.00  0.00    +0.176 HD
ATOM     26  O   UNL     1       6.247   4.805  28.258  0.00  0.00    -0.272 OA
BRANCH  24  27
ATOM     27  S   UNL     1       7.084   2.450  30.015  0.00  0.00    +0.048 S 
ATOM     28  O   UNL     1       6.357   3.642  30.395  0.00  0.00    -0.155 OA
ATOM     29  O   UNL     1       8.422   2.141  30.454  0.00  0.00    -0.155 OA
BRANCH  27  30
ATOM     30  C   UNL     1       6.004   1.050  30.485  0.00  0.00    +0.151 C 
ATOM     31  C   UNL     1       5.287   0.359  29.353  0.00  0.00    +0.030 C 
ATOM     32  C   UNL     1       4.530   1.280  30.261  0.00  0.00    +0.030 C 
ENDBRANCH  27  30
ENDBRANCH  24  27
ENDBRANCH   8  23
BRANCH   1  33
ATOM     33  O   UNL     1       8.293  -2.695  26.631  0.00  0.00    -0.488 OA
BRANCH  33  40
ATOM     34  C   UNL     1       4.424  -6.460  23.716  0.00  0.00    +0.050 C 
ATOM     35  C   UNL     1       5.708  -5.687  23.924  0.00  0.00    +0.017 A 
ATOM     36  C   UNL     1       5.858  -4.967  25.126  0.00  0.00    +0.082 A 
ATOM     37  N   UNL     1       4.906  -5.034  26.085  0.00  0.00    -0.244 NA
ATOM     38  C   UNL     1       5.074  -4.378  27.258  0.00  0.00    +0.100 A 
ATOM     39  C   UNL     1       6.173  -3.562  27.487  0.00  0.00    +0.076 A 
ATOM     40  C   UNL     1       7.153  -3.457  26.506  0.00  0.00    +0.132 A 
ATOM     41  C   UNL     1       7.017  -4.199  25.300  0.00  0.00    +0.043 A 
ATOM     42  C   UNL     1       8.016  -4.189  24.307  0.00  0.00    +0.017 A 
ATOM     43  C   UNL     1       7.870  -4.933  23.139  0.00  0.00    +0.047 A 
ATOM     44  C   UNL     1       6.717  -5.680  22.936  0.00  0.00    +0.125 A 
BRANCH  38  45
ATOM     45  C   UNL     1       4.081  -4.605  28.333  0.00  0.00    +0.127 A 
ATOM     46  S   UNL     1       3.772  -3.390  29.513  0.00  0.00    -0.074 S 
ATOM     47  C   UNL     1       2.592  -4.393  30.243  0.00  0.00    +0.070 A 
ATOM     48  C   UNL     1       2.469  -5.584  29.553  0.00  0.00    +0.052 A 
ATOM     49  N   UNL     1       3.368  -5.714  28.490  0.00  0.00    -0.242 NA
BRANCH  48  50
ATOM     50  C   UNL     1       1.485  -6.690  29.879  0.00  0.00    +0.032 C 
ATOM     51  C   UNL     1       2.175  -7.904  30.456  0.00  0.00    +0.014 C 
ATOM     52  C   UNL     1       0.714  -7.164  28.641  0.00  0.00    +0.014 C 
ENDBRANCH  48  50
ENDBRANCH  38  45
BRANCH  44  53
ATOM     53  O   UNL     1       6.484  -6.444  21.819  0.00  0.00    -0.495 OA
ATOM     54  C   UNL     1       6.208  -5.772  20.597  0.00  0.00    +0.277 C 
ENDBRANCH  44  53
ENDBRANCH  33  40
ENDBRANCH   1  33
TORSDOF 8
ENDMDL
MODEL 5
REMARK VINA RESULT:      -6.6      2.468      6.485
REMARK  Name = 
REMARK  13 active torsions:
REMARK  status: ('A' for Active; 'I' for Inactive)
REMARK    1  A    between atoms: C_1  and  C_2
REMARK    2  A    between atoms: C_3  and  O_54
REMARK    3  A    between atoms: C_9  and  C_46
REMARK    4  A    between atoms: C_11  and  O_12
REMARK    5  A    between atoms: O_12  and  C_13
REMARK    6  A    between atoms: C_23  and  C_37
REMARK    7  A    between atoms: N_33  and  C_36
REMARK    8  A    between atoms: N_39  and  S_40
REMARK    9  A    between atoms: S_40  and  C_43
REMARK   10  A    between atoms: C_48  and  C_51
REMARK   11  A    between atoms: C_51  and  C_52
REMARK   12  A    between atoms: C_51  and  C_53
REMARK   13  A    between atoms: O_54  and  C_55
REMARK                            x       y       z     vdW  Elec       q    Type
REMARK                         _______ _______ _______ _____ _____    ______ ____
ROOT
ATOM      1  C   UNL     1       7.279  -0.170  25.492  0.00  0.00    +0.175 C 
ATOM      2  C   UNL     1       7.313  -1.282  26.537  0.00  0.00    +0.058 C 
ATOM      3  C   UNL     1       6.701  -2.510  25.868  0.00  0.00    +0.090 C 
ATOM      4  C   UNL     1       5.309  -2.925  26.281  0.00  0.00    +0.218 C 
ATOM      5  O   UNL     1       4.534  -3.370  25.432  0.00  0.00    -0.275 OA
ATOM      6  N   UNL     1       4.867  -2.758  27.585  0.00  0.00    -0.301 N 
ATOM      7  H   UNL     1       5.506  -2.681  28.370  0.00  0.00    +0.150 HD
ATOM      8  C   UNL     1       3.452  -3.157  27.822  0.00  0.00    +0.119 C 
ATOM      9  C   UNL     1       3.408  -4.689  28.012  0.00  0.00    +0.046 C 
ATOM     10  C   UNL     1       2.832  -5.451  26.902  0.00  0.00    -0.025 C 
ATOM     11  C   UNL     1       3.361  -6.629  26.530  0.00  0.00    -0.031 C 
ATOM     12  C   UNL     1       3.134  -7.354  25.238  0.00  0.00    +0.027 C 
ATOM     13  C   UNL     1       4.439  -7.380  24.413  0.00  0.00    +0.006 C 
ATOM     14  C   UNL     1       4.621  -6.104  23.577  0.00  0.00    +0.019 C 
ATOM     15  C   UNL     1       6.062  -5.573  23.531  0.00  0.00    +0.107 C 
ATOM     16  N   UNL     1       6.101  -4.171  23.104  0.00  0.00    -0.304 N 
ATOM     17  C   UNL     1       5.652  -3.860  21.759  0.00  0.00    +0.132 C 
ATOM     18  C   UNL     1       7.149  -3.387  23.585  0.00  0.00    +0.219 C 
ATOM     19  O   UNL     1       8.321  -3.749  23.616  0.00  0.00    -0.275 OA
ATOM     20  C   UNL     1       2.782  -3.825  29.025  0.00  0.00    +0.046 C 
ATOM     21  C   UNL     1       6.653  -2.165  24.339  0.00  0.00    +0.091 C 
ATOM     22  C   UNL     1       7.489  -0.907  24.172  0.00  0.00    +0.058 C 
ENDROOT
BRANCH   8  23
ATOM     23  C   UNL     1       2.432  -2.342  26.988  0.00  0.00    +0.256 C 
ATOM     24  N   UNL     1       2.697  -0.949  27.013  0.00  0.00    -0.188 N 
ATOM     25  H   UNL     1       3.428  -0.779  27.693  0.00  0.00    +0.176 HD
ATOM     26  O   UNL     1       1.439  -2.842  26.484  0.00  0.00    -0.272 OA
BRANCH  24  27
ATOM     27  S   UNL     1       1.485   0.044  27.485  0.00  0.00    +0.048 S 
ATOM     28  O   UNL     1       1.212  -0.521  28.790  0.00  0.00    -0.155 OA
ATOM     29  O   UNL     1       0.502   0.191  26.442  0.00  0.00    -0.155 OA
BRANCH  27  30
ATOM     30  C   UNL     1       2.206   1.695  27.811  0.00  0.00    +0.151 C 
ATOM     31  C   UNL     1       3.108   2.246  26.736  0.00  0.00    +0.030 C 
ATOM     32  C   UNL     1       3.702   1.710  28.004  0.00  0.00    +0.030 C 
ENDBRANCH  27  30
ENDBRANCH  24  27
ENDBRANCH   8  23
BRANCH   1  33
ATOM     33  O   UNL     1       8.309   0.791  25.675  0.00  0.00    -0.488 OA
BRANCH  33  40
ATOM     34  C   UNL     1       9.648   6.356  23.465  0.00  0.00    +0.050 C 
ATOM     35  C   UNL     1       9.862   4.878  23.715  0.00  0.00    +0.017 A 
ATOM     36  C   UNL     1       8.849   4.170  24.393  0.00  0.00    +0.082 A 
ATOM     37  N   UNL     1       7.696   4.789  24.738  0.00  0.00    -0.244 NA
ATOM     38  C   UNL     1       6.707   4.094  25.347  0.00  0.00    +0.100 A 
ATOM     39  C   UNL     1       6.864   2.763  25.707  0.00  0.00    +0.076 A 
ATOM     40  C   UNL     1       8.050   2.112  25.386  0.00  0.00    +0.132 A 
ATOM     41  C   UNL     1       9.066   2.816  24.683  0.00  0.00    +0.043 A 
ATOM     42  C   UNL     1      10.253   2.184  24.266  0.00  0.00    +0.017 A 
ATOM     43  C   UNL     1      11.231   2.888  23.567  0.00  0.00    +0.047 A 
ATOM     44  C   UNL     1      11.046   4.237  23.293  0.00  0.00    +0.125 A 
BRANCH  38  45
ATOM     45  C   UNL     1       5.409   4.774  25.566  0.00  0.00    +0.127 A 
ATOM     46  S   UNL     1       5.057   5.529  27.072  0.00  0.00    -0.074 S 
ATOM     47  C   UNL     1       3.535   6.032  26.469  0.00  0.00    +0.070 A 
ATOM     48  C   UNL     1       3.373   5.628  25.158  0.00  0.00    +0.052 A 
ATOM     49  N   UNL     1       4.435   4.861  24.669  0.00  0.00    -0.242 NA
BRANCH  48  50
ATOM     50  C   UNL     1       2.173   5.942  24.285  0.00  0.00    +0.032 C 
ATOM     51  C   UNL     1       1.573   4.692  23.685  0.00  0.00    +0.014 C 
ATOM     52  C   UNL     1       2.532   6.869  23.117  0.00  0.00    +0.014 C 
ENDBRANCH  48  50
ENDBRANCH  38  45
BRANCH  44  53
ATOM     53  O   UNL     1      11.951   5.013  22.610  0.00  0.00    -0.495 OA
ATOM     54  C   UNL     1      13.223   5.235  23.205  0.00  0.00    +0.277 C 
ENDBRANCH  44  53
ENDBRANCH  33  40
ENDBRANCH   1  33
TORSDOF 8
ENDMDL
MODEL 6
REMARK VINA RESULT:      -6.5      2.739      4.888
REMARK  Name = 
REMARK  13 active torsions:
REMARK  status: ('A' for Active; 'I' for Inactive)
REMARK    1  A    between atoms: C_1  and  C_2
REMARK    2  A    between atoms: C_3  and  O_54
REMARK    3  A    between atoms: C_9  and  C_46
REMARK    4  A    between atoms: C_11  and  O_12
REMARK    5  A    between atoms: O_12  and  C_13
REMARK    6  A    between atoms: C_23  and  C_37
REMARK    7  A    between atoms: N_33  and  C_36
REMARK    8  A    between atoms: N_39  and  S_40
REMARK    9  A    between atoms: S_40  and  C_43
REMARK   10  A    between atoms: C_48  and  C_51
REMARK   11  A    between atoms: C_51  and  C_52
REMARK   12  A    between atoms: C_51  and  C_53
REMARK   13  A    between atoms: O_54  and  C_55
REMARK                            x       y       z     vdW  Elec       q    Type
REMARK                         _______ _______ _______ _____ _____    ______ ____
ROOT
ATOM      1  C   UNL     1       4.855   1.694  24.584  0.00  0.00    +0.175 C 
ATOM      2  C   UNL     1       5.308   1.069  25.902  0.00  0.00    +0.058 C 
ATOM      3  C   UNL     1       6.354   0.020  25.534  0.00  0.00    +0.090 C 
ATOM      4  C   UNL     1       5.962  -1.436  25.621  0.00  0.00    +0.218 C 
ATOM      5  O   UNL     1       6.391  -2.228  24.779  0.00  0.00    -0.275 OA
ATOM      6  N   UNL     1       5.081  -1.886  26.593  0.00  0.00    -0.301 N 
ATOM      7  H   UNL     1       4.924  -1.382  27.459  0.00  0.00    +0.150 HD
ATOM      8  C   UNL     1       4.744  -3.334  26.509  0.00  0.00    +0.119 C 
ATOM      9  C   UNL     1       5.881  -4.133  27.182  0.00  0.00    +0.046 C 
ATOM     10  C   UNL     1       6.759  -4.876  26.276  0.00  0.00    -0.025 C 
ATOM     11  C   UNL     1       8.082  -4.943  26.502  0.00  0.00    -0.031 C 
ATOM     12  C   UNL     1       9.146  -5.345  25.527  0.00  0.00    +0.027 C 
ATOM     13  C   UNL     1      10.042  -4.131  25.197  0.00  0.00    +0.006 C 
ATOM     14  C   UNL     1       9.450  -3.263  24.076  0.00  0.00    +0.019 C 
ATOM     15  C   UNL     1       9.606  -1.749  24.292  0.00  0.00    +0.107 C 
ATOM     16  N   UNL     1       8.677  -0.992  23.450  0.00  0.00    -0.304 N 
ATOM     17  C   UNL     1       8.840  -1.079  22.011  0.00  0.00    +0.132 C 
ATOM     18  C   UNL     1       8.242   0.244  23.932  0.00  0.00    +0.219 C 
ATOM     19  O   UNL     1       8.980   1.083  24.437  0.00  0.00    -0.275 OA
ATOM     20  C   UNL     1       4.492  -4.373  27.603  0.00  0.00    +0.046 C 
ATOM     21  C   UNL     1       6.729   0.317  24.041  0.00  0.00    +0.091 C 
ATOM     22  C   UNL     1       6.114   1.670  23.720  0.00  0.00    +0.058 C 
ENDROOT
BRANCH   8  23
ATOM     23  C   UNL     1       4.052  -3.733  25.181  0.00  0.00    +0.256 C 
ATOM     24  N   UNL     1       3.672  -5.099  25.154  0.00  0.00    -0.188 N 
ATOM     25  H   UNL     1       4.066  -5.552  25.969  0.00  0.00    +0.176 HD
ATOM     26  O   UNL     1       3.972  -2.980  24.224  0.00  0.00    -0.272 OA
BRANCH  24  27
ATOM     27  S   UNL     1       4.208  -6.009  23.904  0.00  0.00    +0.048 S 
ATOM     28  O   UNL     1       3.248  -5.613  22.895  0.00  0.00    -0.155 OA
ATOM     29  O   UNL     1       4.436  -7.371  24.317  0.00  0.00    -0.155 OA
BRANCH  27  30
ATOM     30  C   UNL     1       5.809  -5.317  23.350  0.00  0.00    +0.151 C 
ATOM     31  C   UNL     1       5.869  -4.854  21.917  0.00  0.00    +0.030 C 
ATOM     32  C   UNL     1       6.532  -6.138  22.312  0.00  0.00    +0.030 C 
ENDBRANCH  27  30
ENDBRANCH  24  27
ENDBRANCH   8  23
BRANCH   1  33
ATOM     33  O   UNL     1       4.403   3.032  24.735  0.00  0.00    -0.488 OA
BRANCH  33  40
ATOM     34  C   UNL     1       5.786   6.842  29.341  0.00  0.00    +0.050 C 
ATOM     35  C   UNL     1       4.986   5.782  28.616  0.00  0.00    +0.017 A 
ATOM     36  C   UNL     1       5.474   5.318  27.378  0.00  0.00    +0.082 A 
ATOM     37  N   UNL     1       6.659   5.765  26.900  0.00  0.00    -0.244 NA
ATOM     38  C   UNL     1       7.147   5.282  25.732  0.00  0.00    +0.100 A 
ATOM     39  C   UNL     1       6.426   4.387  24.954  0.00  0.00    +0.076 A 
ATOM     40  C   UNL     1       5.194   3.933  25.412  0.00  0.00    +0.132 A 
ATOM     41  C   UNL     1       4.708   4.381  26.671  0.00  0.00    +0.043 A 
ATOM     42  C   UNL     1       3.504   3.895  27.216  0.00  0.00    +0.017 A 
ATOM     43  C   UNL     1       3.051   4.336  28.457  0.00  0.00    +0.047 A 
ATOM     44  C   UNL     1       3.783   5.284  29.161  0.00  0.00    +0.125 A 
BRANCH  38  45
ATOM     45  C   UNL     1       8.514   5.684  25.329  0.00  0.00    +0.127 A 
ATOM     46  S   UNL     1       9.330   6.963  26.144  0.00  0.00    -0.074 S 
ATOM     47  C   UNL     1      10.703   6.728  25.148  0.00  0.00    +0.070 A 
ATOM     48  C   UNL     1      10.492   5.686  24.265  0.00  0.00    +0.052 A 
ATOM     49  N   UNL     1       9.212   5.131  24.344  0.00  0.00    -0.242 NA
BRANCH  48  50
ATOM     50  C   UNL     1      11.508   5.160  23.271  0.00  0.00    +0.032 C 
ATOM     51  C   UNL     1      11.562   3.650  23.269  0.00  0.00    +0.014 C 
ATOM     52  C   UNL     1      12.928   5.655  23.574  0.00  0.00    +0.014 C 
ENDBRANCH  48  50
ENDBRANCH  38  45
BRANCH  44  53
ATOM     53  O   UNL     1       3.418   5.778  30.389  0.00  0.00    -0.495 OA
ATOM     54  C   UNL     1       2.214   6.528  30.477  0.00  0.00    +0.277 C 
ENDBRANCH  44  53
ENDBRANCH  33  40
ENDBRANCH   1  33
TORSDOF 8
ENDMDL
MODEL 7
REMARK VINA RESULT:      -6.5      2.693     10.093
REMARK  Name = 
REMARK  13 active torsions:
REMARK  status: ('A' for Active; 'I' for Inactive)
REMARK    1  A    between atoms: C_1  and  C_2
REMARK    2  A    between atoms: C_3  and  O_54
REMARK    3  A    between atoms: C_9  and  C_46
REMARK    4  A    between atoms: C_11  and  O_12
REMARK    5  A    between atoms: O_12  and  C_13
REMARK    6  A    between atoms: C_23  and  C_37
REMARK    7  A    between atoms: N_33  and  C_36
REMARK    8  A    between atoms: N_39  and  S_40
REMARK    9  A    between atoms: S_40  and  C_43
REMARK   10  A    between atoms: C_48  and  C_51
REMARK   11  A    between atoms: C_51  and  C_52
REMARK   12  A    between atoms: C_51  and  C_53
REMARK   13  A    between atoms: O_54  and  C_55
REMARK                            x       y       z     vdW  Elec       q    Type
REMARK                         _______ _______ _______ _____ _____    ______ ____
ROOT
ATOM      1  C   UNL     1       7.738  -0.179  25.647  0.00  0.00    +0.175 C 
ATOM      2  C   UNL     1       6.504   0.029  24.773  0.00  0.00    +0.058 C 
ATOM      3  C   UNL     1       6.571   1.474  24.285  0.00  0.00    +0.090 C 
ATOM      4  C   UNL     1       5.621   2.476  24.895  0.00  0.00    +0.218 C 
ATOM      5  O   UNL     1       6.009   3.628  25.102  0.00  0.00    -0.275 OA
ATOM      6  N   UNL     1       4.341   2.109  25.285  0.00  0.00    -0.301 N 
ATOM      7  H   UNL     1       3.867   1.300  24.898  0.00  0.00    +0.150 HD
ATOM      8  C   UNL     1       3.548   3.193  25.929  0.00  0.00    +0.119 C 
ATOM      9  C   UNL     1       2.946   4.076  24.814  0.00  0.00    +0.046 C 
ATOM     10  C   UNL     1       3.549   5.401  24.657  0.00  0.00    -0.025 C 
ATOM     11  C   UNL     1       3.743   5.928  23.436  0.00  0.00    -0.031 C 
ATOM     12  C   UNL     1       4.637   7.076  23.078  0.00  0.00    +0.027 C 
ATOM     13  C   UNL     1       5.809   6.577  22.206  0.00  0.00    +0.006 C 
ATOM     14  C   UNL     1       6.971   6.036  23.052  0.00  0.00    +0.019 C 
ATOM     15  C   UNL     1       7.637   4.772  22.486  0.00  0.00    +0.107 C 
ATOM     16  N   UNL     1       8.416   4.074  23.512  0.00  0.00    -0.304 N 
ATOM     17  C   UNL     1       9.565   4.759  24.074  0.00  0.00    +0.132 C 
ATOM     18  C   UNL     1       8.543   2.690  23.384  0.00  0.00    +0.219 C 
ATOM     19  O   UNL     1       8.808   2.118  22.332  0.00  0.00    -0.275 OA
ATOM     20  C   UNL     1       2.058   3.530  25.851  0.00  0.00    +0.046 C 
ATOM     21  C   UNL     1       8.029   1.951  24.608  0.00  0.00    +0.091 C 
ATOM     22  C   UNL     1       8.800   0.698  24.989  0.00  0.00    +0.058 C 
ENDROOT
BRANCH   8  23
ATOM     23  C   UNL     1       4.183   3.732  27.235  0.00  0.00    +0.256 C 
ATOM     24  N   UNL     1       5.024   2.780  27.865  0.00  0.00    -0.188 N 
ATOM     25  H   UNL     1       4.915   1.895  27.384  0.00  0.00    +0.176 HD
ATOM     26  O   UNL     1       3.877   4.807  27.725  0.00  0.00    -0.272 OA
BRANCH  24  27
ATOM     27  S   UNL     1       4.715   2.414  29.430  0.00  0.00    +0.048 S 
ATOM     28  O   UNL     1       3.500   1.647  29.258  0.00  0.00    -0.155 OA
ATOM     29  O   UNL     1       4.825   3.584  30.265  0.00  0.00    -0.155 OA
BRANCH  27  30
ATOM     30  C   UNL     1       5.976   1.210  29.986  0.00  0.00    +0.151 C 
ATOM     31  C   UNL     1       7.328   1.780  30.331  0.00  0.00    +0.030 C 
ATOM     32  C   UNL     1       7.142   1.030  29.047  0.00  0.00    +0.030 C 
ENDBRANCH  27  30
ENDBRANCH  24  27
ENDBRANCH   8  23
BRANCH   1  33
ATOM     33  O   UNL     1       8.177  -1.530  25.669  0.00  0.00    -0.488 OA
BRANCH  33  40
ATOM     34  C   UNL     1       5.013  -6.489  23.926  0.00  0.00    +0.050 C 
ATOM     35  C   UNL     1       6.090  -5.430  23.828  0.00  0.00    +0.017 A 
ATOM     36  C   UNL     1       6.200  -4.501  24.882  0.00  0.00    +0.082 A 
ATOM     37  N   UNL     1       5.408  -4.609  25.974  0.00  0.00    -0.244 NA
ATOM     38  C   UNL     1       5.548  -3.742  27.004  0.00  0.00    +0.100 A 
ATOM     39  C   UNL     1       6.439  -2.680  26.949  0.00  0.00    +0.076 A 
ATOM     40  C   UNL     1       7.246  -2.532  25.826  0.00  0.00    +0.132 A 
ATOM     41  C   UNL     1       7.154  -3.480  24.770  0.00  0.00    +0.043 A 
ATOM     42  C   UNL     1       8.000  -3.422  23.646  0.00  0.00    +0.017 A 
ATOM     43  C   UNL     1       7.903  -4.367  22.628  0.00  0.00    +0.047 A 
ATOM     44  C   UNL     1       6.947  -5.371  22.708  0.00  0.00    +0.125 A 
BRANCH  38  45
ATOM     45  C   UNL     1       4.768  -3.994  28.239  0.00  0.00    +0.127 A 
ATOM     46  S   UNL     1       5.271  -5.195  29.365  0.00  0.00    -0.074 S 
ATOM     47  C   UNL     1       3.949  -4.803  30.380  0.00  0.00    +0.070 A 
ATOM     48  C   UNL     1       3.206  -3.773  29.836  0.00  0.00    +0.052 A 
ATOM     49  N   UNL     1       3.657  -3.354  28.581  0.00  0.00    -0.242 NA
BRANCH  48  50
ATOM     50  C   UNL     1       1.996  -3.128  30.483  0.00  0.00    +0.032 C 
ATOM     51  C   UNL     1       0.704  -3.735  29.988  0.00  0.00    +0.014 C 
ATOM     52  C   UNL     1       1.919  -1.623  30.198  0.00  0.00    +0.014 C 
ENDBRANCH  48  50
ENDBRANCH  38  45
BRANCH  44  53
ATOM     53  O   UNL     1       6.776  -6.347  21.756  0.00  0.00    -0.495 OA
ATOM     54  C   UNL     1       6.068  -6.007  20.572  0.00  0.00    +0.277 C 
ENDBRANCH  44  53
ENDBRANCH  33  40
ENDBRANCH   1  33
TORSDOF 8
ENDMDL
MODEL 8
REMARK VINA RESULT:      -6.3      2.879      6.744
REMARK  Name = 
REMARK  13 active torsions:
REMARK  status: ('A' for Active; 'I' for Inactive)
REMARK    1  A    between atoms: C_1  and  C_2
REMARK    2  A    between atoms: C_3  and  O_54
REMARK    3  A    between atoms: C_9  and  C_46
REMARK    4  A    between atoms: C_11  and  O_12
REMARK    5  A    between atoms: O_12  and  C_13
REMARK    6  A    between atoms: C_23  and  C_37
REMARK    7  A    between atoms: N_33  and  C_36
REMARK    8  A    between atoms: N_39  and  S_40
REMARK    9  A    between atoms: S_40  and  C_43
REMARK   10  A    between atoms: C_48  and  C_51
REMARK   11  A    between atoms: C_51  and  C_52
REMARK   12  A    between atoms: C_51  and  C_53
REMARK   13  A    between atoms: O_54  and  C_55
REMARK                            x       y       z     vdW  Elec       q    Type
REMARK                         _______ _______ _______ _____ _____    ______ ____
ROOT
ATOM      1  C   UNL     1       7.049  -0.475  24.137  0.00  0.00    +0.175 C 
ATOM      2  C   UNL     1       7.336  -0.399  25.634  0.00  0.00    +0.058 C 
ATOM      3  C   UNL     1       6.972  -1.767  26.204  0.00  0.00    +0.090 C 
ATOM      4  C   UNL     1       5.705  -1.885  27.018  0.00  0.00    +0.218 C 
ATOM      5  O   UNL     1       5.017  -2.903  26.921  0.00  0.00    -0.275 OA
ATOM      6  N   UNL     1       5.270  -0.844  27.825  0.00  0.00    -0.301 N 
ATOM      7  H   UNL     1       5.899  -0.127  28.173  0.00  0.00    +0.150 HD
ATOM      8  C   UNL     1       3.973  -1.087  28.515  0.00  0.00    +0.119 C 
ATOM      9  C   UNL     1       4.249  -1.937  29.775  0.00  0.00    +0.046 C 
ATOM     10  C   UNL     1       3.815  -3.333  29.707  0.00  0.00    -0.025 C 
ATOM     11  C   UNL     1       4.565  -4.313  30.240  0.00  0.00    -0.031 C 
ATOM     12  C   UNL     1       4.459  -5.782  29.966  0.00  0.00    +0.027 C 
ATOM     13  C   UNL     1       5.721  -6.270  29.222  0.00  0.00    +0.006 C 
ATOM     14  C   UNL     1       5.618  -6.058  27.704  0.00  0.00    +0.019 C 
ATOM     15  C   UNL     1       6.918  -5.582  27.037  0.00  0.00    +0.107 C 
ATOM     16  N   UNL     1       6.657  -4.996  25.719  0.00  0.00    -0.304 N 
ATOM     17  C   UNL     1       6.122  -5.863  24.685  0.00  0.00    +0.132 C 
ATOM     18  C   UNL     1       7.534  -4.005  25.278  0.00  0.00    +0.219 C 
ATOM     19  O   UNL     1       8.755  -4.079  25.364  0.00  0.00    -0.275 OA
ATOM     20  C   UNL     1       3.485  -0.687  29.908  0.00  0.00    +0.046 C 
ATOM     21  C   UNL     1       6.816  -2.705  24.957  0.00  0.00    +0.091 C 
ATOM     22  C   UNL     1       7.373  -1.923  23.779  0.00  0.00    +0.058 C 
ENDROOT
BRANCH   8  23
ATOM     23  C   UNL     1       2.788  -1.309  27.543  0.00  0.00    +0.256 C 
ATOM     24  N   UNL     1       1.748  -2.083  28.120  0.00  0.00    -0.188 N 
ATOM     25  H   UNL     1       2.077  -2.439  29.009  0.00  0.00    +0.176 HD
ATOM     26  O   UNL     1       2.818  -0.967  26.372  0.00  0.00    -0.272 OA
BRANCH  24  27
ATOM     27  S   UNL     1       1.267  -3.424  27.315  0.00  0.00    +0.048 S 
ATOM     28  O   UNL     1       0.444  -2.805  26.297  0.00  0.00    -0.155 OA
ATOM     29  O   UNL     1       0.802  -4.436  28.230  0.00  0.00    -0.155 OA
BRANCH  27  30
ATOM     30  C   UNL     1       2.717  -4.097  26.425  0.00  0.00    +0.151 C 
ATOM     31  C   UNL     1       2.576  -4.223  24.930  0.00  0.00    +0.030 C 
ATOM     32  C   UNL     1       2.503  -5.448  25.790  0.00  0.00    +0.030 C 
ENDBRANCH  27  30
ENDBRANCH  24  27
ENDBRANCH   8  23
BRANCH   1  33
ATOM     33  O   UNL     1       7.864   0.403  23.374  0.00  0.00    -0.488 OA
BRANCH  33  40
ATOM     34  C   UNL     1       9.019   6.426  23.553  0.00  0.00    +0.050 C 
ATOM     35  C   UNL     1       9.362   4.952  23.526  0.00  0.00    +0.017 A 
ATOM     36  C   UNL     1       8.304   4.031  23.390  0.00  0.00    +0.082 A 
ATOM     37  N   UNL     1       7.035   4.469  23.218  0.00  0.00    -0.244 NA
ATOM     38  C   UNL     1       6.027   3.581  23.042  0.00  0.00    +0.100 A 
ATOM     39  C   UNL     1       6.240   2.212  23.109  0.00  0.00    +0.076 A 
ATOM     40  C   UNL     1       7.532   1.738  23.310  0.00  0.00    +0.132 A 
ATOM     41  C   UNL     1       8.606   2.663  23.425  0.00  0.00    +0.043 A 
ATOM     42  C   UNL     1       9.942   2.236  23.553  0.00  0.00    +0.017 A 
ATOM     43  C   UNL     1      10.981   3.157  23.652  0.00  0.00    +0.047 A 
ATOM     44  C   UNL     1      10.700   4.518  23.645  0.00  0.00    +0.125 A 
BRANCH  38  45
ATOM     45  C   UNL     1       4.684   4.109  22.705  0.00  0.00    +0.127 A 
ATOM     46  S   UNL     1       4.176   5.649  23.282  0.00  0.00    -0.074 S 
ATOM     47  C   UNL     1       2.685   5.470  22.459  0.00  0.00    +0.070 A 
ATOM     48  C   UNL     1       2.648   4.272  21.772  0.00  0.00    +0.052 A 
ATOM     49  N   UNL     1       3.782   3.477  21.965  0.00  0.00    -0.242 NA
BRANCH  48  50
ATOM     50  C   UNL     1       1.508   3.802  20.890  0.00  0.00    +0.032 C 
ATOM     51  C   UNL     1       1.473   2.295  20.775  0.00  0.00    +0.014 C 
ATOM     52  C   UNL     1       1.613   4.354  19.463  0.00  0.00    +0.014 C 
ENDBRANCH  48  50
ENDBRANCH  38  45
BRANCH  44  53
ATOM     53  O   UNL     1      11.655   5.500  23.736  0.00  0.00    -0.495 OA
ATOM     54  C   UNL     1      12.852   5.338  22.987  0.00  0.00    +0.277 C 
ENDBRANCH  44  53
ENDBRANCH  33  40
ENDBRANCH   1  33
TORSDOF 8
ENDMDL
MODEL 9
REMARK VINA RESULT:      -6.1      2.576      5.854
REMARK  Name = 
REMARK  13 active torsions:
REMARK  status: ('A' for Active; 'I' for Inactive)
REMARK    1  A    between atoms: C_1  and  C_2
REMARK    2  A    between atoms: C_3  and  O_54
REMARK    3  A    between atoms: C_9  and  C_46
REMARK    4  A    between atoms: C_11  and  O_12
REMARK    5  A    between atoms: O_12  and  C_13
REMARK    6  A    between atoms: C_23  and  C_37
REMARK    7  A    between atoms: N_33  and  C_36
REMARK    8  A    between atoms: N_39  and  S_40
REMARK    9  A    between atoms: S_40  and  C_43
REMARK   10  A    between atoms: C_48  and  C_51
REMARK   11  A    between atoms: C_51  and  C_52
REMARK   12  A    between atoms: C_51  and  C_53
REMARK   13  A    between atoms: O_54  and  C_55
REMARK                            x       y       z     vdW  Elec       q    Type
REMARK                         _______ _______ _______ _____ _____    ______ ____
ROOT
ATOM      1  C   UNL     1       6.939   0.075  25.286  0.00  0.00    +0.175 C 
ATOM      2  C   UNL     1       5.498  -0.228  24.883  0.00  0.00    +0.058 C 
ATOM      3  C   UNL     1       4.693  -0.249  26.179  0.00  0.00    +0.090 C 
ATOM      4  C   UNL     1       4.237  -1.587  26.712  0.00  0.00    +0.218 C 
ATOM      5  O   UNL     1       4.229  -1.781  27.929  0.00  0.00    -0.275 OA
ATOM      6  N   UNL     1       3.888  -2.620  25.855  0.00  0.00    -0.301 N 
ATOM      7  H   UNL     1       3.597  -2.457  24.897  0.00  0.00    +0.150 HD
ATOM      8  C   UNL     1       3.522  -3.896  26.531  0.00  0.00    +0.119 C 
ATOM      9  C   UNL     1       2.051  -3.792  26.992  0.00  0.00    +0.046 C 
ATOM     10  C   UNL     1       1.846  -3.641  28.434  0.00  0.00    -0.025 C 
ATOM     11  C   UNL     1       0.890  -2.825  28.910  0.00  0.00    -0.031 C 
ATOM     12  C   UNL     1       0.770  -2.292  30.305  0.00  0.00    +0.027 C 
ATOM     13  C   UNL     1       0.996  -0.764  30.305  0.00  0.00    +0.006 C 
ATOM     14  C   UNL     1       2.486  -0.399  30.375  0.00  0.00    +0.019 C 
ATOM     15  C   UNL     1       2.895   0.788  29.487  0.00  0.00    +0.107 C 
ATOM     16  N   UNL     1       4.343   0.812  29.263  0.00  0.00    -0.304 N 
ATOM     17  C   UNL     1       5.203   1.023  30.412  0.00  0.00    +0.132 C 
ATOM     18  C   UNL     1       4.793   1.368  28.065  0.00  0.00    +0.219 C 
ATOM     19  O   UNL     1       4.373   2.420  27.594  0.00  0.00    -0.275 OA
ATOM     20  C   UNL     1       2.468  -4.950  26.186  0.00  0.00    +0.046 C 
ATOM     21  C   UNL     1       5.632   0.391  27.259  0.00  0.00    +0.091 C 
ATOM     22  C   UNL     1       6.791   1.003  26.489  0.00  0.00    +0.058 C 
ENDROOT
BRANCH   8  23
ATOM     23  C   UNL     1       4.670  -4.500  27.376  0.00  0.00    +0.256 C 
ATOM     24  N   UNL     1       5.948  -4.043  26.965  0.00  0.00    -0.188 N 
ATOM     25  H   UNL     1       5.834  -3.517  26.107  0.00  0.00    +0.176 HD
ATOM     26  O   UNL     1       4.491  -5.374  28.209  0.00  0.00    -0.272 OA
BRANCH  24  27
ATOM     27  S   UNL     1       7.071  -5.171  26.586  0.00  0.00    +0.048 S 
ATOM     28  O   UNL     1       6.327  -5.921  25.596  0.00  0.00    -0.155 OA
ATOM     29  O   UNL     1       7.647  -5.746  27.775  0.00  0.00    -0.155 OA
BRANCH  27  30
ATOM     30  C   UNL     1       8.413  -4.340  25.659  0.00  0.00    +0.151 C 
ATOM     31  C   UNL     1       8.344  -4.448  24.157  0.00  0.00    +0.030 C 
ATOM     32  C   UNL     1       9.342  -5.268  24.917  0.00  0.00    +0.030 C 
ENDBRANCH  27  30
ENDBRANCH  24  27
ENDBRANCH   8  23
BRANCH   1  33
ATOM     33  O   UNL     1       7.672   0.731  24.261  0.00  0.00    -0.488 OA
BRANCH  33  40
ATOM     34  C   UNL     1       9.963   6.396  23.709  0.00  0.00    +0.050 C 
ATOM     35  C   UNL     1      10.004   4.884  23.734  0.00  0.00    +0.017 A 
ATOM     36  C   UNL     1       8.787   4.192  23.891  0.00  0.00    +0.082 A 
ATOM     37  N   UNL     1       7.617   4.872  23.943  0.00  0.00    -0.244 NA
ATOM     38  C   UNL     1       6.445   4.201  24.048  0.00  0.00    +0.100 A 
ATOM     39  C   UNL     1       6.403   2.820  24.182  0.00  0.00    +0.076 A 
ATOM     40  C   UNL     1       7.594   2.102  24.156  0.00  0.00    +0.132 A 
ATOM     41  C   UNL     1       8.823   2.794  23.976  0.00  0.00    +0.043 A 
ATOM     42  C   UNL     1      10.049   2.110  23.866  0.00  0.00    +0.017 A 
ATOM     43  C   UNL     1      11.242   2.804  23.677  0.00  0.00    +0.047 A 
ATOM     44  C   UNL     1      11.229   4.192  23.616  0.00  0.00    +0.125 A 
BRANCH  38  45
ATOM     45  C   UNL     1       5.187   4.976  23.946  0.00  0.00    +0.127 A 
ATOM     46  S   UNL     1       4.513   5.741  25.334  0.00  0.00    -0.074 S 
ATOM     47  C   UNL     1       3.238   6.364  24.376  0.00  0.00    +0.070 A 
ATOM     48  C   UNL     1       3.390   5.988  23.056  0.00  0.00    +0.052 A 
ATOM     49  N   UNL     1       4.485   5.147  22.833  0.00  0.00    -0.242 NA
BRANCH  48  50
ATOM     50  C   UNL     1       2.482   6.401  21.915  0.00  0.00    +0.032 C 
ATOM     51  C   UNL     1       1.786   5.213  21.293  0.00  0.00    +0.014 C 
ATOM     52  C   UNL     1       3.248   7.108  20.790  0.00  0.00    +0.014 C 
ENDBRANCH  48  50
ENDBRANCH  38  45
BRANCH  44  53
ATOM     53  O   UNL     1      12.351   4.962  23.431  0.00  0.00    -0.495 OA
ATOM     54  C   UNL     1      12.746   5.257  22.098  0.00  0.00    +0.277 C 
ENDBRANCH  44  53
ENDBRANCH  33  40
ENDBRANCH   1  33
TORSDOF 8
ENDMDL
