MODEL 1
REMARK VINA RESULT:      -7.8      0.000      0.000
REMARK  Name = 
REMARK  17 active torsions:
REMARK  status: ('A' for Active; 'I' for Inactive)
REMARK    1  A    between atoms: C_1  and  C_2
REMARK    2  A    between atoms: C_2  and  C_3
REMARK    3  A    between atoms: C_2  and  C_4
REMARK    4  A    between atoms: C_2  and  N_5
REMARK    5  A    between atoms: C_6  and  C_8
REMARK    6  A    between atoms: N_10  and  C_39
REMARK    7  A    between atoms: N_13  and  C_14
REMARK    8  A    between atoms: C_14  and  C_15
REMARK    9  A    between atoms: C_15  and  C_16
REMARK   10  A    between atoms: C_15  and  O_38
REMARK   11  A    between atoms: C_16  and  C_17
REMARK   12  A    between atoms: C_17  and  C_18
REMARK   13  A    between atoms: C_17  and  C_25
REMARK   14  A    between atoms: C_18  and  C_19
REMARK   15  A    between atoms: N_27  and  C_28
REMARK   16  A    between atoms: C_29  and  O_37
REMARK   17  A    between atoms: C_39  and  C_40
REMARK                            x       y       z     vdW  Elec       q    Type
REMARK                         _______ _______ _______ _____ _____    ______ ____
ROOT
ATOM      1  C   UNL     1       9.341  -1.118  22.346  0.00  0.00    +0.129 C 
ENDROOT
BRANCH   1   2
ATOM      2  O   UNL     1      10.626  -1.503  21.848  0.00  0.00    -0.391 OA
ATOM      3  H   UNL     1      10.714  -2.471  21.873  0.00  0.00    +0.210 HD
ENDBRANCH   1   2
BRANCH   1   4
ATOM      4  C   UNL     1       8.438  -2.378  22.575  0.00  0.00    +0.116 C 
BRANCH   4   6
ATOM      5  C   UNL     1       7.481  -3.567  24.524  0.00  0.00    +0.157 C 
ATOM      6  N   UNL     1       7.496  -2.295  23.717  0.00  0.00    -0.287 NA
ATOM      7  C   UNL     1       6.126  -2.012  23.247  0.00  0.00    +0.100 C 
ATOM      8  C   UNL     1       5.421  -3.201  22.549  0.00  0.00    +0.100 C 
ATOM      9  N   UNL     1       5.443  -4.453  23.337  0.00  0.00    -0.295 NA
ATOM     10  C   UNL     1       6.826  -4.758  23.784  0.00  0.00    +0.113 C 
BRANCH   5  13
ATOM     11  N   UNL     1       5.723  -4.096  26.247  0.00  0.00    -0.309 N 
ATOM     12  H   UNL     1       5.598  -4.919  25.659  0.00  0.00    +0.149 HD
ATOM     13  C   UNL     1       6.862  -3.363  25.956  0.00  0.00    +0.232 C 
ATOM     14  O   UNL     1       7.360  -2.567  26.754  0.00  0.00    -0.274 OA
BRANCH  11  16
ATOM     15  C   UNL     1       4.584  -2.543  27.847  0.00  0.00    +0.031 C 
ATOM     16  C   UNL     1       4.894  -4.004  27.469  0.00  0.00    +0.026 C 
ATOM     17  C   UNL     1       3.540  -4.697  27.197  0.00  0.00    +0.031 C 
ATOM     18  C   UNL     1       5.562  -4.709  28.659  0.00  0.00    +0.031 C 
ENDBRANCH  11  16
ENDBRANCH   5  13
BRANCH   9  19
ATOM     19  C   UNL     1       4.879  -5.563  22.550  0.00  0.00    +0.121 C 
BRANCH  19  20
ATOM     20  C   UNL     1       3.835  -6.343  23.304  0.00  0.00    -0.015 A 
ATOM     21  C   UNL     1       2.475  -6.231  22.993  0.00  0.00    +0.008 A 
ATOM     22  C   UNL     1       1.538  -6.970  23.713  0.00  0.00    +0.020 A 
ATOM     23  C   UNL     1       1.996  -7.799  24.716  0.00  0.00    +0.111 A 
ATOM     24  N   UNL     1       3.300  -7.942  25.043  0.00  0.00    -0.263 NA
ATOM     25  C   UNL     1       4.185  -7.209  24.334  0.00  0.00    +0.115 A 
ENDBRANCH  19  20
ENDBRANCH   9  19
ENDBRANCH   4   6
ENDBRANCH   1   4
BRANCH   1  26
ATOM     26  C   UNL     1       9.504  -0.313  23.645  0.00  0.00    +0.045 C 
BRANCH  26  27
ATOM     27  C   UNL     1       9.410   1.222  23.533  0.00  0.00    +0.082 C 
BRANCH  27  28
ATOM     28  C   UNL     1       8.212   1.662  22.677  0.00  0.00    +0.217 C 
ATOM     29  N   UNL     1       7.091   2.145  23.321  0.00  0.00    -0.306 N 
ATOM     30  H   UNL     1       7.092   2.281  24.322  0.00  0.00    +0.149 HD
ATOM     31  O   UNL     1       8.269   1.603  21.448  0.00  0.00    -0.275 OA
BRANCH  29  32
ATOM     32  C   UNL     1       6.037   2.802  22.544  0.00  0.00    +0.132 C 
ATOM     33  C   UNL     1       6.184   4.300  22.504  0.00  0.00    -0.022 A 
ATOM     34  C   UNL     1       5.049   4.949  22.993  0.00  0.00    -0.040 A 
ATOM     35  C   UNL     1       4.960   6.335  23.020  0.00  0.00    +0.004 A 
ATOM     36  C   UNL     1       6.025   7.081  22.516  0.00  0.00    +0.000 A 
ATOM     37  C   UNL     1       7.151   6.436  21.985  0.00  0.00    +0.000 A 
ATOM     38  C   UNL     1       3.978   3.987  23.394  0.00  0.00    +0.069 C 
ATOM     39  C   UNL     1       7.237   5.039  21.976  0.00  0.00    +0.006 A 
ATOM     40  C   UNL     1       4.597   2.601  23.128  0.00  0.00    +0.143 C 
BRANCH  40  41
ATOM     41  O   UNL     1       4.566   1.864  24.356  0.00  0.00    -0.389 OA
ATOM     42  H   UNL     1       4.020   1.076  24.192  0.00  0.00    +0.210 HD
ENDBRANCH  40  41
ENDBRANCH  29  32
ENDBRANCH  27  28
BRANCH  27  43
ATOM     43  C   UNL     1      10.678   2.079  23.296  0.00  0.00    +0.048 C 
BRANCH  43  44
ATOM     44  C   UNL     1      10.792   3.561  23.592  0.00  0.00    -0.047 A 
ATOM     45  C   UNL     1       9.769   4.352  24.112  0.00  0.00    +0.003 A 
ATOM     46  C   UNL     1       9.998   5.698  24.435  0.00  0.00    +0.000 A 
ATOM     47  C   UNL     1      11.241   6.283  24.204  0.00  0.00    +0.000 A 
ATOM     48  C   UNL     1      12.241   5.541  23.593  0.00  0.00    +0.000 A 
ATOM     49  C   UNL     1      12.014   4.198  23.278  0.00  0.00    +0.003 A 
ENDBRANCH  43  44
ENDBRANCH  27  43
ENDBRANCH  26  27
ENDBRANCH   1  26
TORSDOF 14
ENDMDL
MODEL 2
REMARK VINA RESULT:      -7.7      2.324      9.123
REMARK  Name = 
REMARK  17 active torsions:
REMARK  status: ('A' for Active; 'I' for Inactive)
REMARK    1  A    between atoms: C_1  and  C_2
REMARK    2  A    between atoms: C_2  and  C_3
REMARK    3  A    between atoms: C_2  and  C_4
REMARK    4  A    between atoms: C_2  and  N_5
REMARK    5  A    between atoms: C_6  and  C_8
REMARK    6  A    between atoms: N_10  and  C_39
REMARK    7  A    between atoms: N_13  and  C_14
REMARK    8  A    between atoms: C_14  and  C_15
REMARK    9  A    between atoms: C_15  and  C_16
REMARK   10  A    between atoms: C_15  and  O_38
REMARK   11  A    between atoms: C_16  and  C_17
REMARK   12  A    between atoms: C_17  and  C_18
REMARK   13  A    between atoms: C_17  and  C_25
REMARK   14  A    between atoms: C_18  and  C_19
REMARK   15  A    between atoms: N_27  and  C_28
REMARK   16  A    between atoms: C_29  and  O_37
REMARK   17  A    between atoms: C_39  and  C_40
REMARK                            x       y       z     vdW  Elec       q    Type
REMARK                         _______ _______ _______ _____ _____    ______ ____
ROOT
ATOM      1  C   UNL     1      10.175  -0.961  22.713  0.00  0.00    +0.129 C 
ENDROOT
BRANCH   1   2
ATOM      2  O   UNL     1      11.109  -1.621  21.854  0.00  0.00    -0.391 OA
ATOM      3  H   UNL     1      10.635  -2.200  21.232  0.00  0.00    +0.210 HD
ENDBRANCH   1   2
BRANCH   1   4
ATOM      4  C   UNL     1       9.172  -0.095  21.877  0.00  0.00    +0.116 C 
BRANCH   4   6
ATOM      5  C   UNL     1       9.667   1.727  23.476  0.00  0.00    +0.157 C 
ATOM      6  N   UNL     1       9.275   1.371  22.065  0.00  0.00    -0.287 NA
ATOM      7  C   UNL     1       7.997   2.033  21.743  0.00  0.00    +0.100 C 
ATOM      8  C   UNL     1       6.874   1.821  22.789  0.00  0.00    +0.100 C 
ATOM      9  N   UNL     1       7.282   2.142  24.174  0.00  0.00    -0.295 NA
ATOM     10  C   UNL     1       8.552   1.451  24.513  0.00  0.00    +0.113 C 
BRANCH   5  13
ATOM     11  N   UNL     1       9.354   4.138  24.136  0.00  0.00    -0.309 N 
ATOM     12  H   UNL     1       8.606   3.737  24.701  0.00  0.00    +0.149 HD
ATOM     13  C   UNL     1      10.216   3.197  23.594  0.00  0.00    +0.232 C 
ATOM     14  O   UNL     1      11.344   3.486  23.193  0.00  0.00    -0.274 OA
BRANCH  11  16
ATOM     15  C   UNL     1       8.788   6.391  23.205  0.00  0.00    +0.031 C 
ATOM     16  C   UNL     1       9.587   5.594  24.254  0.00  0.00    +0.026 C 
ATOM     17  C   UNL     1       9.096   6.058  25.643  0.00  0.00    +0.031 C 
ATOM     18  C   UNL     1      11.078   5.939  24.132  0.00  0.00    +0.031 C 
ENDBRANCH  11  16
ENDBRANCH   5  13
BRANCH   9  19
ATOM     19  C   UNL     1       6.210   1.783  25.119  0.00  0.00    +0.121 C 
BRANCH  19  20
ATOM     20  C   UNL     1       6.548   2.128  26.545  0.00  0.00    -0.015 A 
ATOM     21  C   UNL     1       6.570   1.151  27.545  0.00  0.00    +0.008 A 
ATOM     22  C   UNL     1       6.889   1.509  28.854  0.00  0.00    +0.020 A 
ATOM     23  C   UNL     1       7.180   2.832  29.114  0.00  0.00    +0.111 A 
ATOM     24  N   UNL     1       7.178   3.806  28.175  0.00  0.00    -0.263 NA
ATOM     25  C   UNL     1       6.858   3.432  26.917  0.00  0.00    +0.115 A 
ENDBRANCH  19  20
ENDBRANCH   9  19
ENDBRANCH   4   6
ENDBRANCH   1   4
BRANCH   1  26
ATOM     26  C   UNL     1       9.430  -1.997  23.568  0.00  0.00    +0.045 C 
BRANCH  26  27
ATOM     27  C   UNL     1       7.911  -1.797  23.743  0.00  0.00    +0.082 C 
BRANCH  27  28
ATOM     28  C   UNL     1       7.456  -2.086  25.182  0.00  0.00    +0.217 C 
ATOM     29  N   UNL     1       6.110  -1.994  25.472  0.00  0.00    -0.306 N 
ATOM     30  H   UNL     1       5.436  -1.822  24.738  0.00  0.00    +0.149 HD
ATOM     31  O   UNL     1       8.275  -2.411  26.042  0.00  0.00    -0.275 OA
BRANCH  29  32
ATOM     32  C   UNL     1       5.609  -2.498  26.753  0.00  0.00    +0.132 C 
ATOM     33  C   UNL     1       5.184  -3.942  26.689  0.00  0.00    -0.022 A 
ATOM     34  C   UNL     1       3.852  -4.110  27.073  0.00  0.00    -0.040 A 
ATOM     35  C   UNL     1       3.262  -5.367  27.115  0.00  0.00    +0.004 A 
ATOM     36  C   UNL     1       4.040  -6.479  26.793  0.00  0.00    +0.000 A 
ATOM     37  C   UNL     1       5.389  -6.322  26.447  0.00  0.00    +0.000 A 
ATOM     38  C   UNL     1       3.214  -2.821  27.476  0.00  0.00    +0.069 C 
ATOM     39  C   UNL     1       5.970  -5.050  26.393  0.00  0.00    +0.006 A 
ATOM     40  C   UNL     1       4.319  -1.769  27.264  0.00  0.00    +0.143 C 
BRANCH  40  41
ATOM     41  O   UNL     1       3.816  -0.779  26.361  0.00  0.00    -0.389 OA
ATOM     42  H   UNL     1       3.691  -1.222  25.504  0.00  0.00    +0.210 HD
ENDBRANCH  40  41
ENDBRANCH  29  32
ENDBRANCH  27  28
BRANCH  27  43
ATOM     43  C   UNL     1       6.915  -2.311  22.673  0.00  0.00    +0.048 C 
BRANCH  43  44
ATOM     44  C   UNL     1       6.329  -3.708  22.632  0.00  0.00    -0.047 A 
ATOM     45  C   UNL     1       7.026  -4.856  22.261  0.00  0.00    +0.003 A 
ATOM     46  C   UNL     1       6.421  -6.119  22.339  0.00  0.00    +0.000 A 
ATOM     47  C   UNL     1       5.096  -6.248  22.751  0.00  0.00    +0.000 A 
ATOM     48  C   UNL     1       4.354  -5.109  23.027  0.00  0.00    +0.000 A 
ATOM     49  C   UNL     1       4.961  -3.852  22.955  0.00  0.00    +0.003 A 
ENDBRANCH  43  44
ENDBRANCH  27  43
ENDBRANCH  26  27
ENDBRANCH   1  26
TORSDOF 14
ENDMDL
MODEL 3
REMARK VINA RESULT:      -7.7      1.880      3.962
REMARK  Name = 
REMARK  17 active torsions:
REMARK  status: ('A' for Active; 'I' for Inactive)
REMARK    1  A    between atoms: C_1  and  C_2
REMARK    2  A    between atoms: C_2  and  C_3
REMARK    3  A    between atoms: C_2  and  C_4
REMARK    4  A    between atoms: C_2  and  N_5
REMARK    5  A    between atoms: C_6  and  C_8
REMARK    6  A    between atoms: N_10  and  C_39
REMARK    7  A    between atoms: N_13  and  C_14
REMARK    8  A    between atoms: C_14  and  C_15
REMARK    9  A    between atoms: C_15  and  C_16
REMARK   10  A    between atoms: C_15  and  O_38
REMARK   11  A    between atoms: C_16  and  C_17
REMARK   12  A    between atoms: C_17  and  C_18
REMARK   13  A    between atoms: C_17  and  C_25
REMARK   14  A    between atoms: C_18  and  C_19
REMARK   15  A    between atoms: N_27  and  C_28
REMARK   16  A    between atoms: C_29  and  O_37
REMARK   17  A    between atoms: C_39  and  C_40
REMARK                            x       y       z     vdW  Elec       q    Type
REMARK                         _______ _______ _______ _____ _____    ______ ____
ROOT
ATOM      1  C   UNL     1       8.443  -1.460  22.578  0.00  0.00    +0.129 C 
ENDROOT
BRANCH   1   2
ATOM      2  O   UNL     1       8.298  -2.654  21.805  0.00  0.00    -0.391 OA
ATOM      3  H   UNL     1       7.530  -2.574  21.212  0.00  0.00    +0.210 HD
ENDBRANCH   1   2
BRANCH   1   4
ATOM      4  C   UNL     1       8.399  -1.784  24.110  0.00  0.00    +0.116 C 
BRANCH   4   6
ATOM      5  C   UNL     1       7.143  -1.914  26.239  0.00  0.00    +0.157 C 
ATOM      6  N   UNL     1       7.113  -1.501  24.791  0.00  0.00    -0.287 NA
ATOM      7  C   UNL     1       5.999  -2.199  24.119  0.00  0.00    +0.100 C 
ATOM      8  C   UNL     1       5.962  -3.730  24.345  0.00  0.00    +0.100 C 
ATOM      9  N   UNL     1       6.027  -4.124  25.769  0.00  0.00    -0.295 NA
ATOM     10  C   UNL     1       7.166  -3.449  26.441  0.00  0.00    +0.113 C 
BRANCH   5  13
ATOM     11  N   UNL     1       5.014  -2.076  27.574  0.00  0.00    -0.309 N 
ATOM     12  H   UNL     1       5.294  -3.054  27.635  0.00  0.00    +0.149 HD
ATOM     13  C   UNL     1       6.000  -1.236  27.082  0.00  0.00    +0.232 C 
ATOM     14  O   UNL     1       5.983  -0.018  27.260  0.00  0.00    -0.274 OA
BRANCH  11  16
ATOM     15  C   UNL     1       2.869  -0.794  27.427  0.00  0.00    +0.031 C 
ATOM     16  C   UNL     1       3.785  -1.677  28.295  0.00  0.00    +0.026 C 
ATOM     17  C   UNL     1       2.985  -2.953  28.641  0.00  0.00    +0.031 C 
ATOM     18  C   UNL     1       4.110  -0.945  29.604  0.00  0.00    +0.031 C 
ENDBRANCH  11  16
ENDBRANCH   5  13
BRANCH   9  19
ATOM     19  C   UNL     1       6.126  -5.589  25.891  0.00  0.00    +0.121 C 
BRANCH  19  20
ATOM     20  C   UNL     1       4.794  -6.277  25.765  0.00  0.00    -0.015 A 
ATOM     21  C   UNL     1       3.782  -6.088  26.712  0.00  0.00    +0.008 A 
ATOM     22  C   UNL     1       2.561  -6.743  26.560  0.00  0.00    +0.020 A 
ATOM     23  C   UNL     1       2.394  -7.559  25.461  0.00  0.00    +0.111 A 
ATOM     24  N   UNL     1       3.342  -7.763  24.518  0.00  0.00    -0.263 NA
ATOM     25  C   UNL     1       4.518  -7.122  24.695  0.00  0.00    +0.115 A 
ENDBRANCH  19  20
ENDBRANCH   9  19
ENDBRANCH   4   6
ENDBRANCH   1   4
BRANCH   1  26
ATOM     26  C   UNL     1       9.753  -0.751  22.202  0.00  0.00    +0.045 C 
BRANCH  26  27
ATOM     27  C   UNL     1       9.668   0.756  21.884  0.00  0.00    +0.082 C 
BRANCH  27  28
ATOM     28  C   UNL     1      10.304   1.612  22.989  0.00  0.00    +0.217 C 
ATOM     29  N   UNL     1      10.634   2.919  22.694  0.00  0.00    -0.306 N 
ATOM     30  H   UNL     1      10.387   3.323  21.801  0.00  0.00    +0.149 HD
ATOM     31  O   UNL     1      10.491   1.143  24.112  0.00  0.00    -0.275 OA
BRANCH  29  32
ATOM     32  C   UNL     1      11.007   3.834  23.775  0.00  0.00    +0.132 C 
ATOM     33  C   UNL     1       9.846   4.651  24.280  0.00  0.00    -0.022 A 
ATOM     34  C   UNL     1      10.093   6.022  24.185  0.00  0.00    -0.040 A 
ATOM     35  C   UNL     1       9.165   6.958  24.622  0.00  0.00    +0.004 A 
ATOM     36  C   UNL     1       7.977   6.503  25.193  0.00  0.00    +0.000 A 
ATOM     37  C   UNL     1       7.740   5.128  25.329  0.00  0.00    +0.000 A 
ATOM     38  C   UNL     1      11.454   6.314  23.641  0.00  0.00    +0.069 C 
ATOM     39  C   UNL     1       8.676   4.192  24.873  0.00  0.00    +0.006 A 
ATOM     40  C   UNL     1      12.053   4.923  23.357  0.00  0.00    +0.143 C 
BRANCH  40  41
ATOM     41  O   UNL     1      12.417   4.876  21.973  0.00  0.00    -0.389 OA
ATOM     42  H   UNL     1      11.604   5.042  21.466  0.00  0.00    +0.210 HD
ENDBRANCH  40  41
ENDBRANCH  29  32
ENDBRANCH  27  28
BRANCH  27  43
ATOM     43  C   UNL     1       8.369   1.372  21.306  0.00  0.00    +0.048 C 
BRANCH  43  44
ATOM     44  C   UNL     1       7.305   2.078  22.123  0.00  0.00    -0.047 A 
ATOM     45  C   UNL     1       6.827   3.362  21.872  0.00  0.00    +0.003 A 
ATOM     46  C   UNL     1       5.777   3.898  22.632  0.00  0.00    +0.000 A 
ATOM     47  C   UNL     1       5.217   3.172  23.681  0.00  0.00    +0.000 A 
ATOM     48  C   UNL     1       5.746   1.933  24.012  0.00  0.00    +0.000 A 
ATOM     49  C   UNL     1       6.788   1.398  23.249  0.00  0.00    +0.003 A 
ENDBRANCH  43  44
ENDBRANCH  27  43
ENDBRANCH  26  27
ENDBRANCH   1  26
TORSDOF 14
ENDMDL
MODEL 4
REMARK VINA RESULT:      -7.5      2.338      4.810
REMARK  Name = 
REMARK  17 active torsions:
REMARK  status: ('A' for Active; 'I' for Inactive)
REMARK    1  A    between atoms: C_1  and  C_2
REMARK    2  A    between atoms: C_2  and  C_3
REMARK    3  A    between atoms: C_2  and  C_4
REMARK    4  A    between atoms: C_2  and  N_5
REMARK    5  A    between atoms: C_6  and  C_8
REMARK    6  A    between atoms: N_10  and  C_39
REMARK    7  A    between atoms: N_13  and  C_14
REMARK    8  A    between atoms: C_14  and  C_15
REMARK    9  A    between atoms: C_15  and  C_16
REMARK   10  A    between atoms: C_15  and  O_38
REMARK   11  A    between atoms: C_16  and  C_17
REMARK   12  A    between atoms: C_17  and  C_18
REMARK   13  A    between atoms: C_17  and  C_25
REMARK   14  A    between atoms: C_18  and  C_19
REMARK   15  A    between atoms: N_27  and  C_28
REMARK   16  A    between atoms: C_29  and  O_37
REMARK   17  A    between atoms: C_39  and  C_40
REMARK                            x       y       z     vdW  Elec       q    Type
REMARK                         _______ _______ _______ _____ _____    ______ ____
ROOT
ATOM      1  C   UNL     1       9.325  -1.123  22.350  0.00  0.00    +0.129 C 
ENDROOT
BRANCH   1   2
ATOM      2  O   UNL     1       9.453  -1.812  21.103  0.00  0.00    -0.391 OA
ATOM      3  H   UNL     1      10.209  -1.456  20.604  0.00  0.00    +0.210 HD
ENDBRANCH   1   2
BRANCH   1   4
ATOM      4  C   UNL     1       9.585  -2.098  23.549  0.00  0.00    +0.116 C 
BRANCH   4   6
ATOM      5  C   UNL     1       7.174  -2.649  23.624  0.00  0.00    +0.157 C 
ATOM      6  N   UNL     1       8.582  -3.173  23.734  0.00  0.00    -0.287 NA
ATOM      7  C   UNL     1       8.747  -3.826  25.047  0.00  0.00    +0.100 C 
ATOM      8  C   UNL     1       8.288  -2.975  26.257  0.00  0.00    +0.100 C 
ATOM      9  N   UNL     1       6.916  -2.439  26.121  0.00  0.00    -0.295 NA
ATOM     10  C   UNL     1       6.756  -1.753  24.814  0.00  0.00    +0.113 C 
BRANCH   5  13
ATOM     11  N   UNL     1       5.264  -4.091  24.409  0.00  0.00    -0.309 N 
ATOM     12  H   UNL     1       5.165  -3.340  25.091  0.00  0.00    +0.149 HD
ATOM     13  C   UNL     1       6.125  -3.794  23.365  0.00  0.00    +0.232 C 
ATOM     14  O   UNL     1       6.105  -4.403  22.295  0.00  0.00    -0.274 OA
BRANCH  11  16
ATOM     15  C   UNL     1       3.563  -5.261  25.824  0.00  0.00    +0.031 C 
ATOM     16  C   UNL     1       4.270  -5.186  24.458  0.00  0.00    +0.026 C 
ATOM     17  C   UNL     1       3.179  -4.906  23.400  0.00  0.00    +0.031 C 
ATOM     18  C   UNL     1       4.911  -6.544  24.138  0.00  0.00    +0.031 C 
ENDBRANCH  11  16
ENDBRANCH   5  13
BRANCH   9  19
ATOM     19  C   UNL     1       6.609  -1.533  27.242  0.00  0.00    +0.121 C 
BRANCH  19  20
ATOM     20  C   UNL     1       5.206  -0.990  27.186  0.00  0.00    -0.015 A 
ATOM     21  C   UNL     1       4.947   0.378  27.316  0.00  0.00    +0.008 A 
ATOM     22  C   UNL     1       3.635   0.843  27.259  0.00  0.00    +0.020 A 
ATOM     23  C   UNL     1       2.627  -0.079  27.065  0.00  0.00    +0.111 A 
ATOM     24  N   UNL     1       2.834  -1.408  26.927  0.00  0.00    -0.263 NA
ATOM     25  C   UNL     1       4.115  -1.831  26.994  0.00  0.00    +0.115 A 
ENDBRANCH  19  20
ENDBRANCH   9  19
ENDBRANCH   4   6
ENDBRANCH   1   4
BRANCH   1  26
ATOM     26  C   UNL     1      10.292   0.070  22.390  0.00  0.00    +0.045 C 
BRANCH  26  27
ATOM     27  C   UNL     1       9.700   1.460  22.084  0.00  0.00    +0.082 C 
BRANCH  27  28
ATOM     28  C   UNL     1      10.012   2.475  23.195  0.00  0.00    +0.217 C 
ATOM     29  N   UNL     1       9.409   3.715  23.135  0.00  0.00    -0.306 N 
ATOM     30  H   UNL     1       8.719   3.917  22.425  0.00  0.00    +0.149 HD
ATOM     31  O   UNL     1      10.764   2.172  24.121  0.00  0.00    -0.275 OA
BRANCH  29  32
ATOM     32  C   UNL     1       9.480   4.611  24.292  0.00  0.00    +0.132 C 
ATOM     33  C   UNL     1       8.321   4.441  25.239  0.00  0.00    -0.022 A 
ATOM     34  C   UNL     1       7.626   5.636  25.431  0.00  0.00    -0.040 A 
ATOM     35  C   UNL     1       6.537   5.713  26.289  0.00  0.00    +0.004 A 
ATOM     36  C   UNL     1       6.161   4.568  26.991  0.00  0.00    +0.000 A 
ATOM     37  C   UNL     1       6.880   3.374  26.835  0.00  0.00    +0.000 A 
ATOM     38  C   UNL     1       8.236   6.772  24.674  0.00  0.00    +0.069 C 
ATOM     39  C   UNL     1       7.967   3.305  25.956  0.00  0.00    +0.006 A 
ATOM     40  C   UNL     1       9.420   6.133  23.923  0.00  0.00    +0.143 C 
BRANCH  40  41
ATOM     41  O   UNL     1       9.240   6.384  22.525  0.00  0.00    -0.389 OA
ATOM     42  H   UNL     1       9.573   5.599  22.057  0.00  0.00    +0.210 HD
ENDBRANCH  40  41
ENDBRANCH  29  32
ENDBRANCH  27  28
BRANCH  27  43
ATOM     43  C   UNL     1       8.267   1.604  21.510  0.00  0.00    +0.048 C 
BRANCH  43  44
ATOM     44  C   UNL     1       7.055   2.046  22.305  0.00  0.00    -0.047 A 
ATOM     45  C   UNL     1       6.413   1.280  23.276  0.00  0.00    +0.003 A 
ATOM     46  C   UNL     1       5.350   1.811  24.020  0.00  0.00    +0.000 A 
ATOM     47  C   UNL     1       4.886   3.102  23.777  0.00  0.00    +0.000 A 
ATOM     48  C   UNL     1       5.444   3.844  22.746  0.00  0.00    +0.000 A 
ATOM     49  C   UNL     1       6.508   3.316  22.009  0.00  0.00    +0.003 A 
ENDBRANCH  43  44
ENDBRANCH  27  43
ENDBRANCH  26  27
ENDBRANCH   1  26
TORSDOF 14
ENDMDL
MODEL 5
REMARK VINA RESULT:      -7.4      2.301      3.094
REMARK  Name = 
REMARK  17 active torsions:
REMARK  status: ('A' for Active; 'I' for Inactive)
REMARK    1  A    between atoms: C_1  and  C_2
REMARK    2  A    between atoms: C_2  and  C_3
REMARK    3  A    between atoms: C_2  and  C_4
REMARK    4  A    between atoms: C_2  and  N_5
REMARK    5  A    between atoms: C_6  and  C_8
REMARK    6  A    between atoms: N_10  and  C_39
REMARK    7  A    between atoms: N_13  and  C_14
REMARK    8  A    between atoms: C_14  and  C_15
REMARK    9  A    between atoms: C_15  and  C_16
REMARK   10  A    between atoms: C_15  and  O_38
REMARK   11  A    between atoms: C_16  and  C_17
REMARK   12  A    between atoms: C_17  and  C_18
REMARK   13  A    between atoms: C_17  and  C_25
REMARK   14  A    between atoms: C_18  and  C_19
REMARK   15  A    between atoms: N_27  and  C_28
REMARK   16  A    between atoms: C_29  and  O_37
REMARK   17  A    between atoms: C_39  and  C_40
REMARK                            x       y       z     vdW  Elec       q    Type
REMARK                         _______ _______ _______ _____ _____    ______ ____
ROOT
ATOM      1  C   UNL     1       9.387  -1.405  22.664  0.00  0.00    +0.129 C 
ENDROOT
BRANCH   1   2
ATOM      2  O   UNL     1      10.193  -1.452  21.484  0.00  0.00    -0.391 OA
ATOM      3  H   UNL     1       9.705  -1.894  20.767  0.00  0.00    +0.210 HD
ENDBRANCH   1   2
BRANCH   1   4
ATOM      4  C   UNL     1       8.973  -2.850  23.109  0.00  0.00    +0.116 C 
BRANCH   4   6
ATOM      5  C   UNL     1       7.900  -4.356  24.753  0.00  0.00    +0.157 C 
ATOM      6  N   UNL     1       8.119  -2.931  24.318  0.00  0.00    -0.287 NA
ATOM      7  C   UNL     1       6.808  -2.298  24.078  0.00  0.00    +0.100 C 
ATOM      8  C   UNL     1       5.856  -3.105  23.161  0.00  0.00    +0.100 C 
ATOM      9  N   UNL     1       5.676  -4.512  23.580  0.00  0.00    -0.295 NA
ATOM     10  C   UNL     1       6.994  -5.162  23.791  0.00  0.00    +0.113 C 
BRANCH   5  13
ATOM     11  N   UNL     1       6.276  -5.238  26.464  0.00  0.00    -0.309 N 
ATOM     12  H   UNL     1       6.092  -5.920  25.728  0.00  0.00    +0.149 HD
ATOM     13  C   UNL     1       7.400  -4.459  26.242  0.00  0.00    +0.232 C 
ATOM     14  O   UNL     1       7.972  -3.849  27.146  0.00  0.00    -0.274 OA
BRANCH  11  16
ATOM     15  C   UNL     1       6.443  -6.018  28.836  0.00  0.00    +0.031 C 
ATOM     16  C   UNL     1       5.548  -5.408  27.741  0.00  0.00    +0.026 C 
ATOM     17  C   UNL     1       5.108  -4.014  28.243  0.00  0.00    +0.031 C 
ATOM     18  C   UNL     1       4.292  -6.273  27.565  0.00  0.00    +0.031 C 
ENDBRANCH  11  16
ENDBRANCH   5  13
BRANCH   9  19
ATOM     19  C   UNL     1       4.873  -5.243  22.585  0.00  0.00    +0.121 C 
BRANCH  19  20
ATOM     20  C   UNL     1       3.760  -6.044  23.206  0.00  0.00    -0.015 A 
ATOM     21  C   UNL     1       2.417  -5.720  22.985  0.00  0.00    +0.008 A 
ATOM     22  C   UNL     1       1.415  -6.486  23.577  0.00  0.00    +0.020 A 
ATOM     23  C   UNL     1       1.792  -7.554  24.364  0.00  0.00    +0.111 A 
ATOM     24  N   UNL     1       3.077  -7.906  24.597  0.00  0.00    -0.263 NA
ATOM     25  C   UNL     1       4.028  -7.142  24.017  0.00  0.00    +0.115 A 
ENDBRANCH  19  20
ENDBRANCH   9  19
ENDBRANCH   4   6
ENDBRANCH   1   4
BRANCH   1  26
ATOM     26  C   UNL     1      10.145  -0.679  23.786  0.00  0.00    +0.045 C 
BRANCH  26  27
ATOM     27  C   UNL     1       9.771   0.795  24.043  0.00  0.00    +0.082 C 
BRANCH  27  28
ATOM     28  C   UNL     1       8.313   0.945  24.505  0.00  0.00    +0.217 C 
ATOM     29  N   UNL     1       8.044   0.853  25.856  0.00  0.00    -0.306 N 
ATOM     30  H   UNL     1       8.796   0.772  26.526  0.00  0.00    +0.149 HD
ATOM     31  O   UNL     1       7.419   1.163  23.688  0.00  0.00    -0.275 OA
BRANCH  29  32
ATOM     32  C   UNL     1       6.722   1.235  26.358  0.00  0.00    +0.132 C 
ATOM     33  C   UNL     1       6.766   2.424  27.282  0.00  0.00    -0.022 A 
ATOM     34  C   UNL     1       6.216   2.133  28.532  0.00  0.00    -0.040 A 
ATOM     35  C   UNL     1       6.130   3.097  29.529  0.00  0.00    +0.004 A 
ATOM     36  C   UNL     1       6.579   4.387  29.249  0.00  0.00    +0.000 A 
ATOM     37  C   UNL     1       7.094   4.697  27.983  0.00  0.00    +0.000 A 
ATOM     38  C   UNL     1       5.700   0.733  28.609  0.00  0.00    +0.069 C 
ATOM     39  C   UNL     1       7.191   3.715  26.990  0.00  0.00    +0.006 A 
ATOM     40  C   UNL     1       6.028   0.133  27.229  0.00  0.00    +0.143 C 
BRANCH  40  41
ATOM     41  O   UNL     1       6.832  -1.034  27.437  0.00  0.00    -0.389 OA
ATOM     42  H   UNL     1       7.710  -0.720  27.715  0.00  0.00    +0.210 HD
ENDBRANCH  40  41
ENDBRANCH  29  32
ENDBRANCH  27  28
BRANCH  27  43
ATOM     43  C   UNL     1      10.219   1.909  23.063  0.00  0.00    +0.048 C 
BRANCH  43  44
ATOM     44  C   UNL     1      10.464   3.354  23.447  0.00  0.00    -0.047 A 
ATOM     45  C   UNL     1      11.693   4.006  23.360  0.00  0.00    +0.003 A 
ATOM     46  C   UNL     1      11.802   5.372  23.656  0.00  0.00    +0.000 A 
ATOM     47  C   UNL     1      10.692   6.098  24.084  0.00  0.00    +0.000 A 
ATOM     48  C   UNL     1       9.483   5.446  24.274  0.00  0.00    +0.000 A 
ATOM     49  C   UNL     1       9.374   4.085  23.972  0.00  0.00    +0.003 A 
ENDBRANCH  43  44
ENDBRANCH  27  43
ENDBRANCH  26  27
ENDBRANCH   1  26
TORSDOF 14
ENDMDL
MODEL 6
REMARK VINA RESULT:      -7.4      2.071      9.438
REMARK  Name = 
REMARK  17 active torsions:
REMARK  status: ('A' for Active; 'I' for Inactive)
REMARK    1  A    between atoms: C_1  and  C_2
REMARK    2  A    between atoms: C_2  and  C_3
REMARK    3  A    between atoms: C_2  and  C_4
REMARK    4  A    between atoms: C_2  and  N_5
REMARK    5  A    between atoms: C_6  and  C_8
REMARK    6  A    between atoms: N_10  and  C_39
REMARK    7  A    between atoms: N_13  and  C_14
REMARK    8  A    between atoms: C_14  and  C_15
REMARK    9  A    between atoms: C_15  and  C_16
REMARK   10  A    between atoms: C_15  and  O_38
REMARK   11  A    between atoms: C_16  and  C_17
REMARK   12  A    between atoms: C_17  and  C_18
REMARK   13  A    between atoms: C_17  and  C_25
REMARK   14  A    between atoms: C_18  and  C_19
REMARK   15  A    between atoms: N_27  and  C_28
REMARK   16  A    between atoms: C_29  and  O_37
REMARK   17  A    between atoms: C_39  and  C_40
REMARK                            x       y       z     vdW  Elec       q    Type
REMARK                         _______ _______ _______ _____ _____    ______ ____
ROOT
ATOM      1  C   UNL     1       9.217  -4.267  24.796  0.00  0.00    +0.129 C 
ENDROOT
BRANCH   1   2
ATOM      2  O   UNL     1      10.540  -4.809  24.860  0.00  0.00    -0.391 OA
ATOM      3  H   UNL     1      11.168  -4.199  24.434  0.00  0.00    +0.210 HD
ENDBRANCH   1   2
BRANCH   1   4
ATOM      4  C   UNL     1       9.219  -2.891  24.046  0.00  0.00    +0.116 C 
BRANCH   4   6
ATOM      5  C   UNL     1       7.751  -0.949  23.601  0.00  0.00    +0.157 C 
ATOM      6  N   UNL     1       8.381  -1.829  24.650  0.00  0.00    -0.287 NA
ATOM      7  C   UNL     1       9.178  -0.987  25.563  0.00  0.00    +0.100 C 
ATOM      8  C   UNL     1      10.167  -0.024  24.860  0.00  0.00    +0.100 C 
ATOM      9  N   UNL     1       9.543   0.809  23.810  0.00  0.00    -0.295 NA
ATOM     10  C   UNL     1       8.766  -0.039  22.870  0.00  0.00    +0.113 C 
BRANCH   5  13
ATOM     11  N   UNL     1       6.707   1.246  24.262  0.00  0.00    -0.309 N 
ATOM     12  H   UNL     1       7.448   1.614  23.667  0.00  0.00    +0.149 HD
ATOM     13  C   UNL     1       6.532  -0.125  24.161  0.00  0.00    +0.232 C 
ATOM     14  O   UNL     1       5.496  -0.689  24.514  0.00  0.00    -0.274 OA
BRANCH  11  16
ATOM     15  C   UNL     1       4.596   1.527  25.577  0.00  0.00    +0.031 C 
ATOM     16  C   UNL     1       5.766   2.221  24.853  0.00  0.00    +0.026 C 
ATOM     17  C   UNL     1       6.522   3.053  25.913  0.00  0.00    +0.031 C 
ATOM     18  C   UNL     1       5.212   3.185  23.794  0.00  0.00    +0.031 C 
ENDBRANCH  11  16
ENDBRANCH   5  13
BRANCH   9  19
ATOM     19  C   UNL     1      10.570   1.591  23.099  0.00  0.00    +0.121 C 
BRANCH  19  20
ATOM     20  C   UNL     1      10.466   3.069  23.363  0.00  0.00    -0.015 A 
ATOM     21  C   UNL     1       9.234   3.677  23.630  0.00  0.00    +0.008 A 
ATOM     22  C   UNL     1       9.178   5.049  23.870  0.00  0.00    +0.020 A 
ATOM     23  C   UNL     1      10.358   5.763  23.843  0.00  0.00    +0.111 A 
ATOM     24  N   UNL     1      11.569   5.213  23.598  0.00  0.00    -0.263 NA
ATOM     25  C   UNL     1      11.593   3.884  23.360  0.00  0.00    +0.115 A 
ENDBRANCH  19  20
ENDBRANCH   9  19
ENDBRANCH   4   6
ENDBRANCH   1   4
BRANCH   1  26
ATOM     26  C   UNL     1       8.276  -5.268  24.109  0.00  0.00    +0.045 C 
BRANCH  26  27
ATOM     27  C   UNL     1       6.781  -4.895  24.049  0.00  0.00    +0.082 C 
BRANCH  27  28
ATOM     28  C   UNL     1       6.200  -4.624  25.445  0.00  0.00    +0.217 C 
ATOM     29  N   UNL     1       5.506  -3.448  25.646  0.00  0.00    -0.306 N 
ATOM     30  H   UNL     1       5.315  -2.825  24.874  0.00  0.00    +0.149 HD
ATOM     31  O   UNL     1       6.338  -5.449  26.349  0.00  0.00    -0.275 OA
BRANCH  29  32
ATOM     32  C   UNL     1       4.731  -3.267  26.876  0.00  0.00    +0.132 C 
ATOM     33  C   UNL     1       3.280  -2.955  26.615  0.00  0.00    -0.022 A 
ATOM     34  C   UNL     1       2.892  -1.750  27.204  0.00  0.00    -0.040 A 
ATOM     35  C   UNL     1       1.587  -1.285  27.112  0.00  0.00    +0.004 A 
ATOM     36  C   UNL     1       0.647  -2.065  26.438  0.00  0.00    +0.000 A 
ATOM     37  C   UNL     1       1.020  -3.296  25.880  0.00  0.00    +0.000 A 
ATOM     38  C   UNL     1       4.008  -1.108  27.963  0.00  0.00    +0.069 C 
ATOM     39  C   UNL     1       2.341  -3.749  25.966  0.00  0.00    +0.006 A 
ATOM     40  C   UNL     1       5.202  -2.057  27.754  0.00  0.00    +0.143 C 
BRANCH  40  41
ATOM     41  O   UNL     1       6.269  -1.300  27.172  0.00  0.00    -0.389 OA
ATOM     42  H   UNL     1       7.091  -1.780  27.370  0.00  0.00    +0.210 HD
ENDBRANCH  40  41
ENDBRANCH  29  32
ENDBRANCH  27  28
BRANCH  27  43
ATOM     43  C   UNL     1       5.808  -5.667  23.122  0.00  0.00    +0.048 C 
BRANCH  43  44
ATOM     44  C   UNL     1       4.402  -6.088  23.499  0.00  0.00    -0.047 A 
ATOM     45  C   UNL     1       3.235  -5.525  22.986  0.00  0.00    +0.003 A 
ATOM     46  C   UNL     1       1.978  -6.043  23.331  0.00  0.00    +0.000 A 
ATOM     47  C   UNL     1       1.867  -7.105  24.225  0.00  0.00    +0.000 A 
ATOM     48  C   UNL     1       3.010  -7.613  24.825  0.00  0.00    +0.000 A 
ATOM     49  C   UNL     1       4.263  -7.101  24.475  0.00  0.00    +0.003 A 
ENDBRANCH  43  44
ENDBRANCH  27  43
ENDBRANCH  26  27
ENDBRANCH   1  26
TORSDOF 14
ENDMDL
MODEL 7
REMARK VINA RESULT:      -7.4      1.734      9.801
REMARK  Name = 
REMARK  17 active torsions:
REMARK  status: ('A' for Active; 'I' for Inactive)
REMARK    1  A    between atoms: C_1  and  C_2
REMARK    2  A    between atoms: C_2  and  C_3
REMARK    3  A    between atoms: C_2  and  C_4
REMARK    4  A    between atoms: C_2  and  N_5
REMARK    5  A    between atoms: C_6  and  C_8
REMARK    6  A    between atoms: N_10  and  C_39
REMARK    7  A    between atoms: N_13  and  C_14
REMARK    8  A    between atoms: C_14  and  C_15
REMARK    9  A    between atoms: C_15  and  C_16
REMARK   10  A    between atoms: C_15  and  O_38
REMARK   11  A    between atoms: C_16  and  C_17
REMARK   12  A    between atoms: C_17  and  C_18
REMARK   13  A    between atoms: C_17  and  C_25
REMARK   14  A    between atoms: C_18  and  C_19
REMARK   15  A    between atoms: N_27  and  C_28
REMARK   16  A    between atoms: C_29  and  O_37
REMARK   17  A    between atoms: C_39  and  C_40
REMARK                            x       y       z     vdW  Elec       q    Type
REMARK                         _______ _______ _______ _____ _____    ______ ____
ROOT
ATOM      1  C   UNL     1       9.190  -1.858  23.577  0.00  0.00    +0.129 C 
ENDROOT
BRANCH   1   2
ATOM      2  O   UNL     1      10.311  -1.981  22.697  0.00  0.00    -0.391 OA
ATOM      3  H   UNL     1      10.884  -2.710  22.991  0.00  0.00    +0.210 HD
ENDBRANCH   1   2
BRANCH   1   4
ATOM      4  C   UNL     1       7.978  -1.193  22.838  0.00  0.00    +0.116 C 
BRANCH   4   6
ATOM      5  C   UNL     1       7.256   1.154  22.530  0.00  0.00    +0.157 C 
ATOM      6  N   UNL     1       7.404   0.006  23.494  0.00  0.00    -0.287 NA
ATOM      7  C   UNL     1       8.247   0.438  24.626  0.00  0.00    +0.100 C 
ATOM      8  C   UNL     1       9.584   1.107  24.221  0.00  0.00    +0.100 C 
ATOM      9  N   UNL     1       9.427   2.211  23.248  0.00  0.00    -0.295 NA
ATOM     10  C   UNL     1       8.607   1.769  22.092  0.00  0.00    +0.113 C 
BRANCH   5  13
ATOM     11  N   UNL     1       6.630   3.573  22.843  0.00  0.00    -0.309 N 
ATOM     12  H   UNL     1       7.309   3.698  22.093  0.00  0.00    +0.149 HD
ATOM     13  C   UNL     1       6.261   2.255  23.056  0.00  0.00    +0.232 C 
ATOM     14  O   UNL     1       5.228   1.943  23.650  0.00  0.00    -0.274 OA
BRANCH  11  16
ATOM     15  C   UNL     1       5.969   4.888  24.868  0.00  0.00    +0.031 C 
ATOM     16  C   UNL     1       5.931   4.782  23.331  0.00  0.00    +0.026 C 
ATOM     17  C   UNL     1       6.659   6.027  22.776  0.00  0.00    +0.031 C 
ATOM     18  C   UNL     1       4.473   4.825  22.851  0.00  0.00    +0.031 C 
ENDBRANCH  11  16
ENDBRANCH   5  13
BRANCH   9  19
ATOM     19  C   UNL     1      10.747   2.699  22.812  0.00  0.00    +0.121 C 
BRANCH  19  20
ATOM     20  C   UNL     1      11.091   4.047  23.388  0.00  0.00    -0.015 A 
ATOM     21  C   UNL     1      10.107   4.885  23.922  0.00  0.00    +0.008 A 
ATOM     22  C   UNL     1      10.465   6.125  24.447  0.00  0.00    +0.020 A 
ATOM     23  C   UNL     1      11.798   6.480  24.426  0.00  0.00    +0.111 A 
ATOM     24  N   UNL     1      12.781   5.697  23.926  0.00  0.00    -0.263 NA
ATOM     25  C   UNL     1      12.404   4.504  23.417  0.00  0.00    +0.115 A 
ENDBRANCH  19  20
ENDBRANCH   9  19
ENDBRANCH   4   6
ENDBRANCH   1   4
BRANCH   1  26
ATOM     26  C   UNL     1       8.807  -3.239  24.130  0.00  0.00    +0.045 C 
BRANCH  26  27
ATOM     27  C   UNL     1       7.302  -3.547  24.263  0.00  0.00    +0.082 C 
BRANCH  27  28
ATOM     28  C   UNL     1       6.742  -3.100  25.622  0.00  0.00    +0.217 C 
ATOM     29  N   UNL     1       5.730  -2.162  25.635  0.00  0.00    -0.306 N 
ATOM     30  H   UNL     1       5.315  -1.842  24.771  0.00  0.00    +0.149 HD
ATOM     31  O   UNL     1       7.176  -3.588  26.666  0.00  0.00    -0.275 OA
BRANCH  29  32
ATOM     32  C   UNL     1       5.004  -1.897  26.880  0.00  0.00    +0.132 C 
ATOM     33  C   UNL     1       3.777  -2.755  27.038  0.00  0.00    -0.022 A 
ATOM     34  C   UNL     1       2.622  -1.989  27.200  0.00  0.00    -0.040 A 
ATOM     35  C   UNL     1       1.380  -2.579  27.391  0.00  0.00    +0.004 A 
ATOM     36  C   UNL     1       1.306  -3.971  27.451  0.00  0.00    +0.000 A 
ATOM     37  C   UNL     1       2.467  -4.746  27.330  0.00  0.00    +0.000 A 
ATOM     38  C   UNL     1       2.914  -0.523  27.208  0.00  0.00    +0.069 C 
ATOM     39  C   UNL     1       3.712  -4.142  27.123  0.00  0.00    +0.006 A 
ATOM     40  C   UNL     1       4.437  -0.440  26.988  0.00  0.00    +0.143 C 
BRANCH  40  41
ATOM     41  O   UNL     1       4.670   0.361  25.825  0.00  0.00    -0.389 OA
ATOM     42  H   UNL     1       3.799   0.673  25.523  0.00  0.00    +0.210 HD
ENDBRANCH  40  41
ENDBRANCH  29  32
ENDBRANCH  27  28
BRANCH  27  43
ATOM     43  C   UNL     1       6.724  -4.901  23.780  0.00  0.00    +0.048 C 
BRANCH  43  44
ATOM     44  C   UNL     1       5.268  -5.307  23.877  0.00  0.00    -0.047 A 
ATOM     45  C   UNL     1       4.196  -4.559  23.393  0.00  0.00    +0.003 A 
ATOM     46  C   UNL     1       2.888  -5.060  23.452  0.00  0.00    +0.000 A 
ATOM     47  C   UNL     1       2.626  -6.299  24.034  0.00  0.00    +0.000 A 
ATOM     48  C   UNL     1       3.665  -7.013  24.613  0.00  0.00    +0.000 A 
ATOM     49  C   UNL     1       4.969  -6.516  24.547  0.00  0.00    +0.003 A 
ENDBRANCH  43  44
ENDBRANCH  27  43
ENDBRANCH  26  27
ENDBRANCH   1  26
TORSDOF 14
ENDMDL
MODEL 8
REMARK VINA RESULT:      -7.4      2.569      8.878
REMARK  Name = 
REMARK  17 active torsions:
REMARK  status: ('A' for Active; 'I' for Inactive)
REMARK    1  A    between atoms: C_1  and  C_2
REMARK    2  A    between atoms: C_2  and  C_3
REMARK    3  A    between atoms: C_2  and  C_4
REMARK    4  A    between atoms: C_2  and  N_5
REMARK    5  A    between atoms: C_6  and  C_8
REMARK    6  A    between atoms: N_10  and  C_39
REMARK    7  A    between atoms: N_13  and  C_14
REMARK    8  A    between atoms: C_14  and  C_15
REMARK    9  A    between atoms: C_15  and  C_16
REMARK   10  A    between atoms: C_15  and  O_38
REMARK   11  A    between atoms: C_16  and  C_17
REMARK   12  A    between atoms: C_17  and  C_18
REMARK   13  A    between atoms: C_17  and  C_25
REMARK   14  A    between atoms: C_18  and  C_19
REMARK   15  A    between atoms: N_27  and  C_28
REMARK   16  A    between atoms: C_29  and  O_37
REMARK   17  A    between atoms: C_39  and  C_40
REMARK                            x       y       z     vdW  Elec       q    Type
REMARK                         _______ _______ _______ _____ _____    ______ ____
ROOT
ATOM      1  C   UNL     1       6.016  -2.339  26.285  0.00  0.00    +0.129 C 
ENDROOT
BRANCH   1   2
ATOM      2  O   UNL     1       5.116  -2.507  27.384  0.00  0.00    -0.391 OA
ATOM      3  H   UNL     1       5.463  -2.049  28.169  0.00  0.00    +0.210 HD
ENDBRANCH   1   2
BRANCH   1   4
ATOM      4  C   UNL     1       5.717  -1.002  25.524  0.00  0.00    +0.116 C 
BRANCH   4   6
ATOM      5  C   UNL     1       4.931   1.232  26.242  0.00  0.00    +0.157 C 
ATOM      6  N   UNL     1       6.067   0.243  26.248  0.00  0.00    -0.287 NA
ATOM      7  C   UNL     1       7.257   0.879  25.652  0.00  0.00    +0.100 C 
ATOM      8  C   UNL     1       7.012   1.559  24.282  0.00  0.00    +0.100 C 
ATOM      9  N   UNL     1       5.873   2.503  24.281  0.00  0.00    -0.295 NA
ATOM     10  C   UNL     1       4.664   1.855  24.851  0.00  0.00    +0.113 C 
BRANCH   5  13
ATOM     11  N   UNL     1       5.175   3.648  26.909  0.00  0.00    -0.309 N 
ATOM     12  H   UNL     1       4.794   3.796  25.975  0.00  0.00    +0.149 HD
ATOM     13  C   UNL     1       5.091   2.337  27.351  0.00  0.00    +0.232 C 
ATOM     14  O   UNL     1       5.166   2.033  28.542  0.00  0.00    -0.274 OA
BRANCH  11  16
ATOM     15  C   UNL     1       6.732   4.714  28.554  0.00  0.00    +0.031 C 
ATOM     16  C   UNL     1       5.436   4.849  27.733  0.00  0.00    +0.026 C 
ATOM     17  C   UNL     1       5.624   6.059  26.789  0.00  0.00    +0.031 C 
ATOM     18  C   UNL     1       4.262   5.154  28.674  0.00  0.00    +0.031 C 
ENDBRANCH  11  16
ENDBRANCH   5  13
BRANCH   9  19
ATOM     19  C   UNL     1       5.620   2.999  22.917  0.00  0.00    +0.121 C 
BRANCH  19  20
ATOM     20  C   UNL     1       5.997   4.445  22.742  0.00  0.00    -0.015 A 
ATOM     21  C   UNL     1       7.253   4.817  22.249  0.00  0.00    +0.008 A 
ATOM     22  C   UNL     1       7.565   6.167  22.100  0.00  0.00    +0.020 A 
ATOM     23  C   UNL     1       6.607   7.098  22.443  0.00  0.00    +0.111 A 
ATOM     24  N   UNL     1       5.380   6.781  22.915  0.00  0.00    -0.263 NA
ATOM     25  C   UNL     1       5.107   5.466  23.056  0.00  0.00    +0.115 A 
ENDBRANCH  19  20
ENDBRANCH   9  19
ENDBRANCH   4   6
ENDBRANCH   1   4
BRANCH   1  26
ATOM     26  C   UNL     1       7.467  -2.373  26.790  0.00  0.00    +0.045 C 
BRANCH  26  27
ATOM     27  C   UNL     1       8.342  -3.553  26.323  0.00  0.00    +0.082 C 
BRANCH  27  28
ATOM     28  C   UNL     1       9.100  -3.229  25.026  0.00  0.00    +0.217 C 
ATOM     29  N   UNL     1       9.041  -1.939  24.540  0.00  0.00    -0.306 N 
ATOM     30  H   UNL     1       8.579  -1.212  25.068  0.00  0.00    +0.149 HD
ATOM     31  O   UNL     1       9.758  -4.099  24.455  0.00  0.00    -0.275 OA
BRANCH  29  32
ATOM     32  C   UNL     1       9.940  -1.531  23.459  0.00  0.00    +0.132 C 
ATOM     33  C   UNL     1      10.154  -0.041  23.405  0.00  0.00    -0.022 A 
ATOM     34  C   UNL     1       9.803   0.492  22.163  0.00  0.00    -0.040 A 
ATOM     35  C   UNL     1       9.948   1.845  21.886  0.00  0.00    +0.004 A 
ATOM     36  C   UNL     1      10.487   2.672  22.870  0.00  0.00    +0.000 A 
ATOM     37  C   UNL     1      10.881   2.138  24.105  0.00  0.00    +0.000 A 
ATOM     38  C   UNL     1       9.340  -0.561  21.208  0.00  0.00    +0.069 C 
ATOM     39  C   UNL     1      10.717   0.776  24.379  0.00  0.00    +0.006 A 
ATOM     40  C   UNL     1       9.406  -1.866  22.024  0.00  0.00    +0.143 C 
BRANCH  40  41
ATOM     41  O   UNL     1       8.102  -2.457  22.015  0.00  0.00    -0.389 OA
ATOM     42  H   UNL     1       8.170  -3.288  22.515  0.00  0.00    +0.210 HD
ENDBRANCH  40  41
ENDBRANCH  29  32
ENDBRANCH  27  28
BRANCH  27  43
ATOM     43  C   UNL     1       7.805  -5.006  26.369  0.00  0.00    +0.048 C 
BRANCH  43  44
ATOM     44  C   UNL     1       6.613  -5.516  25.584  0.00  0.00    -0.047 A 
ATOM     45  C   UNL     1       6.451  -5.388  24.206  0.00  0.00    +0.003 A 
ATOM     46  C   UNL     1       5.353  -5.970  23.556  0.00  0.00    +0.000 A 
ATOM     47  C   UNL     1       4.380  -6.655  24.280  0.00  0.00    +0.000 A 
ATOM     48  C   UNL     1       4.469  -6.707  25.663  0.00  0.00    +0.000 A 
ATOM     49  C   UNL     1       5.568  -6.131  26.309  0.00  0.00    +0.003 A 
ENDBRANCH  43  44
ENDBRANCH  27  43
ENDBRANCH  26  27
ENDBRANCH   1  26
TORSDOF 14
ENDMDL
MODEL 9
REMARK VINA RESULT:      -7.4      2.753      4.274
REMARK  Name = 
REMARK  17 active torsions:
REMARK  status: ('A' for Active; 'I' for Inactive)
REMARK    1  A    between atoms: C_1  and  C_2
REMARK    2  A    between atoms: C_2  and  C_3
REMARK    3  A    between atoms: C_2  and  C_4
REMARK    4  A    between atoms: C_2  and  N_5
REMARK    5  A    between atoms: C_6  and  C_8
REMARK    6  A    between atoms: N_10  and  C_39
REMARK    7  A    between atoms: N_13  and  C_14
REMARK    8  A    between atoms: C_14  and  C_15
REMARK    9  A    between atoms: C_15  and  C_16
REMARK   10  A    between atoms: C_15  and  O_38
REMARK   11  A    between atoms: C_16  and  C_17
REMARK   12  A    between atoms: C_17  and  C_18
REMARK   13  A    between atoms: C_17  and  C_25
REMARK   14  A    between atoms: C_18  and  C_19
REMARK   15  A    between atoms: N_27  and  C_28
REMARK   16  A    between atoms: C_29  and  O_37
REMARK   17  A    between atoms: C_39  and  C_40
REMARK                            x       y       z     vdW  Elec       q    Type
REMARK                         _______ _______ _______ _____ _____    ______ ____
ROOT
ATOM      1  C   UNL     1       8.671  -1.951  22.185  0.00  0.00    +0.129 C 
ENDROOT
BRANCH   1   2
ATOM      2  O   UNL     1      10.060  -1.800  21.882  0.00  0.00    -0.391 OA
ATOM      3  H   UNL     1      10.497  -2.669  21.890  0.00  0.00    +0.210 HD
ENDBRANCH   1   2
BRANCH   1   4
ATOM      4  C   UNL     1       8.474  -2.899  23.418  0.00  0.00    +0.116 C 
BRANCH   4   6
ATOM      5  C   UNL     1       6.161  -3.546  24.011  0.00  0.00    +0.157 C 
ATOM      6  N   UNL     1       7.418  -3.929  23.275  0.00  0.00    -0.287 NA
ATOM      7  C   UNL     1       7.886  -5.235  23.778  0.00  0.00    +0.100 C 
ATOM      8  C   UNL     1       7.995  -5.335  25.319  0.00  0.00    +0.100 C 
ATOM      9  N   UNL     1       6.765  -4.924  26.031  0.00  0.00    -0.295 NA
ATOM     10  C   UNL     1       6.309  -3.595  25.551  0.00  0.00    +0.113 C 
BRANCH   5  13
ATOM     11  N   UNL     1       4.044  -4.818  24.508  0.00  0.00    -0.309 N 
ATOM     12  H   UNL     1       4.114  -4.309  25.388  0.00  0.00    +0.149 HD
ATOM     13  C   UNL     1       4.906  -4.362  23.523  0.00  0.00    +0.232 C 
ATOM     14  O   UNL     1       4.731  -4.600  22.328  0.00  0.00    -0.274 OA
BRANCH  11  16
ATOM     15  C   UNL     1       3.266  -7.167  24.129  0.00  0.00    +0.031 C 
ATOM     16  C   UNL     1       2.865  -5.692  24.323  0.00  0.00    +0.026 C 
ATOM     17  C   UNL     1       2.000  -5.625  25.601  0.00  0.00    +0.031 C 
ATOM     18  C   UNL     1       2.004  -5.235  23.136  0.00  0.00    +0.031 C 
ENDBRANCH  11  16
ENDBRANCH   5  13
BRANCH   9  19
ATOM     19  C   UNL     1       6.995  -4.916  27.487  0.00  0.00    +0.121 C 
BRANCH  19  20
ATOM     20  C   UNL     1       5.879  -5.570  28.258  0.00  0.00    -0.015 A 
ATOM     21  C   UNL     1       5.002  -6.472  27.648  0.00  0.00    +0.008 A 
ATOM     22  C   UNL     1       3.982  -7.058  28.395  0.00  0.00    +0.020 A 
ATOM     23  C   UNL     1       3.880  -6.724  29.730  0.00  0.00    +0.111 A 
ATOM     24  N   UNL     1       4.711  -5.863  30.360  0.00  0.00    -0.263 NA
ATOM     25  C   UNL     1       5.686  -5.305  29.609  0.00  0.00    +0.115 A 
ENDBRANCH  19  20
ENDBRANCH   9  19
ENDBRANCH   4   6
ENDBRANCH   1   4
BRANCH   1  26
ATOM     26  C   UNL     1       8.040  -0.574  22.443  0.00  0.00    +0.045 C 
BRANCH  26  27
ATOM     27  C   UNL     1       8.557   0.215  23.662  0.00  0.00    +0.082 C 
BRANCH  27  28
ATOM     28  C   UNL     1       7.469   0.397  24.732  0.00  0.00    +0.217 C 
ATOM     29  N   UNL     1       7.848   0.852  25.979  0.00  0.00    -0.306 N 
ATOM     30  H   UNL     1       8.802   1.135  26.154  0.00  0.00    +0.149 HD
ATOM     31  O   UNL     1       6.289   0.161  24.468  0.00  0.00    -0.275 OA
BRANCH  29  32
ATOM     32  C   UNL     1       6.824   1.273  26.938  0.00  0.00    +0.132 C 
ATOM     33  C   UNL     1       6.629   2.766  26.970  0.00  0.00    -0.022 A 
ATOM     34  C   UNL     1       6.827   3.290  28.249  0.00  0.00    -0.040 A 
ATOM     35  C   UNL     1       6.670   4.645  28.510  0.00  0.00    +0.004 A 
ATOM     36  C   UNL     1       6.274   5.483  27.468  0.00  0.00    +0.000 A 
ATOM     37  C   UNL     1       6.032   4.957  26.191  0.00  0.00    +0.000 A 
ATOM     38  C   UNL     1       7.147   2.228  29.250  0.00  0.00    +0.069 C 
ATOM     39  C   UNL     1       6.208   3.593  25.935  0.00  0.00    +0.006 A 
ATOM     40  C   UNL     1       7.165   0.926  28.427  0.00  0.00    +0.143 C 
BRANCH  40  41
ATOM     41  O   UNL     1       8.448   0.314  28.601  0.00  0.00    -0.389 OA
ATOM     42  H   UNL     1       9.095   0.897  28.167  0.00  0.00    +0.210 HD
ENDBRANCH  40  41
ENDBRANCH  29  32
ENDBRANCH  27  28
BRANCH  27  43
ATOM     43  C   UNL     1       9.445   1.471  23.476  0.00  0.00    +0.048 C 
BRANCH  43  44
ATOM     44  C   UNL     1       8.930   2.894  23.393  0.00  0.00    -0.047 A 
ATOM     45  C   UNL     1       9.416   3.964  24.141  0.00  0.00    +0.003 A 
ATOM     46  C   UNL     1       8.934   5.263  23.931  0.00  0.00    +0.000 A 
ATOM     47  C   UNL     1       7.929   5.506  22.997  0.00  0.00    +0.000 A 
ATOM     48  C   UNL     1       7.360   4.441  22.314  0.00  0.00    +0.000 A 
ATOM     49  C   UNL     1       7.847   3.147  22.521  0.00  0.00    +0.003 A 
ENDBRANCH  43  44
ENDBRANCH  27  43
ENDBRANCH  26  27
ENDBRANCH   1  26
TORSDOF 14
ENDMDL
