MODEL 1
REMARK VINA RESULT:      -6.3      0.000      0.000
REMARK  Name = 
REMARK  20 active torsions:
REMARK  status: ('A' for Active; 'I' for Inactive)
REMARK    1  A    between atoms: C_1  and  C_2
REMARK    2  A    between atoms: C_2  and  C_3
REMARK    3  A    between atoms: C_2  and  C_4
REMARK    4  A    between atoms: C_4  and  C_5
REMARK    5  A    between atoms: C_4  and  C_11
REMARK    6  A    between atoms: C_5  and  N_6
REMARK    7  A    between atoms: C_7  and  O_9
REMARK    8  A    between atoms: O_9  and  C_10
REMARK    9  A    between atoms: C_17  and  C_19
REMARK   10  A    between atoms: C_22  and  C_24
REMARK   11  A    between atoms: C_27  and  C_30
REMARK   12  A    between atoms: C_33  and  C_36
REMARK   13  A    between atoms: C_39  and  C_41
REMARK   14  A    between atoms: C_47  and  C_49
REMARK   15  A    between atoms: C_49  and  C_50
REMARK   16  A    between atoms: C_49  and  N_53
REMARK   17  A    between atoms: C_50  and  C_51
REMARK   18  A    between atoms: C_50  and  C_52
REMARK   19  A    between atoms: C_54  and  O_56
REMARK   20  A    between atoms: O_56  and  C_57
REMARK                            x       y       z     vdW  Elec       q    Type
REMARK                         _______ _______ _______ _____ _____    ______ ____
ROOT
ATOM      1  C   UNL     1       6.412  -4.930  23.841  0.00  0.00    -0.000 A 
ATOM      2  C   UNL     1       6.420  -4.182  22.657  0.00  0.00    +0.010 A 
ATOM      3  C   UNL     1       7.333  -3.128  22.471  0.00  0.00    +0.009 A 
ATOM      4  C   UNL     1       8.256  -2.767  23.470  0.00  0.00    -0.018 A 
ATOM      5  C   UNL     1       8.290  -3.590  24.610  0.00  0.00    +0.009 A 
ATOM      6  C   UNL     1       7.390  -4.649  24.796  0.00  0.00    +0.010 A 
ENDROOT
BRANCH   1  10
ATOM      7  C   UNL     1       3.723  -7.047  25.105  0.00  0.00    +0.128 A 
ATOM      8  N   UNL     1       4.528  -5.936  25.168  0.00  0.00    -0.340 N 
ATOM      9  H   UNL     1       4.507  -5.261  25.918  0.00  0.00    +0.167 HD
ATOM     10  C   UNL     1       5.380  -5.935  24.088  0.00  0.00    +0.066 A 
ATOM     11  C   UNL     1       4.963  -7.031  23.355  0.00  0.00    +0.139 A 
ATOM     12  N   UNL     1       3.958  -7.714  23.992  0.00  0.00    -0.238 NA
BRANCH   7  15
ATOM     13  C   UNL     1       1.667  -5.253  27.129  0.00  0.00    +0.221 C 
ATOM     14  N   UNL     1       1.688  -6.351  26.279  0.00  0.00    -0.291 N 
ATOM     15  C   UNL     1       2.716  -7.395  26.159  0.00  0.00    +0.142 C 
ATOM     16  C   UNL     1       1.959  -8.689  25.800  0.00  0.00    +0.032 C 
ATOM     17  C   UNL     1       0.483  -8.342  25.936  0.00  0.00    +0.021 C 
ATOM     18  C   UNL     1       0.443  -6.847  25.704  0.00  0.00    +0.108 C 
ATOM     19  O   UNL     1       0.575  -4.780  27.463  0.00  0.00    -0.275 OA
BRANCH  13  20
ATOM     20  C   UNL     1       2.978  -4.534  27.562  0.00  0.00    +0.095 C 
BRANCH  20  22
ATOM     21  C   UNL     1       3.791  -2.156  28.224  0.00  0.00    +0.008 C 
ATOM     22  C   UNL     1       2.933  -2.985  27.250  0.00  0.00    -0.004 C 
ATOM     23  C   UNL     1       3.412  -2.621  25.833  0.00  0.00    +0.008 C 
ENDBRANCH  20  22
BRANCH  20  24
ATOM     24  C   UNL     1       3.348  -4.777  29.035  0.00  0.00    +0.120 C 
BRANCH  24  25
ATOM     25  N   UNL     1       4.558  -5.548  29.215  0.00  0.00    -0.280 N 
ATOM     26  H   UNL     1       5.462  -5.145  29.001  0.00  0.00    +0.152 HD
ATOM     27  C   UNL     1       4.548  -6.907  29.299  0.00  0.00    +0.400 C 
ATOM     28  O   UNL     1       3.547  -7.600  29.391  0.00  0.00    -0.226 OA
BRANCH  27  29
ATOM     29  O   UNL     1       5.821  -7.367  29.256  0.00  0.00    -0.454 OA
ATOM     30  C   UNL     1       6.772  -6.401  28.801  0.00  0.00    +0.282 C 
ENDBRANCH  27  29
ENDBRANCH  24  25
ENDBRANCH  20  24
ENDBRANCH  13  20
ENDBRANCH   7  15
ENDBRANCH   1  10
BRANCH   4  31
ATOM     31  C   UNL     1       9.057  -1.509  23.423  0.00  0.00    -0.018 A 
ATOM     32  C   UNL     1       8.944  -0.611  22.349  0.00  0.00    +0.009 A 
ATOM     33  C   UNL     1       9.478   0.689  22.420  0.00  0.00    +0.010 A 
ATOM     34  C   UNL     1      10.163   1.146  23.553  0.00  0.00    -0.000 A 
ATOM     35  C   UNL     1      10.374   0.222  24.583  0.00  0.00    +0.010 A 
ATOM     36  C   UNL     1       9.839  -1.079  24.510  0.00  0.00    +0.009 A 
BRANCH  34  37
ATOM     37  C   UNL     1      10.529   2.563  23.685  0.00  0.00    +0.066 A 
ATOM     38  N   UNL     1       9.796   3.495  24.394  0.00  0.00    -0.340 N 
ATOM     39  H   UNL     1       8.963   3.288  24.926  0.00  0.00    +0.167 HD
ATOM     40  C   UNL     1      10.189   4.762  23.996  0.00  0.00    +0.128 A 
ATOM     41  N   UNL     1      11.308   4.675  23.307  0.00  0.00    -0.238 NA
ATOM     42  C   UNL     1      11.508   3.332  23.088  0.00  0.00    +0.139 A 
BRANCH  40  43
ATOM     43  C   UNL     1       9.296   5.981  24.185  0.00  0.00    +0.142 C 
ATOM     44  N   UNL     1       8.264   5.735  25.210  0.00  0.00    -0.290 N 
ATOM     45  C   UNL     1       6.942   5.349  25.096  0.00  0.00    +0.237 C 
ATOM     46  O   UNL     1       6.203   5.423  26.090  0.00  0.00    -0.274 OA
ATOM     47  C   UNL     1       8.758   6.106  26.534  0.00  0.00    +0.108 C 
ATOM     48  C   UNL     1      10.162   6.651  26.322  0.00  0.00    +0.021 C 
ATOM     49  C   UNL     1      10.116   7.108  24.865  0.00  0.00    +0.032 C 
BRANCH  45  50
ATOM     50  C   UNL     1       6.321   4.944  23.729  0.00  0.00    +0.165 C 
BRANCH  50  51
ATOM     51  N   UNL     1       4.882   5.219  23.801  0.00  0.00    -0.270 N 
ATOM     52  H   UNL     1       4.330   4.757  24.510  0.00  0.00    +0.153 HD
ATOM     53  C   UNL     1       4.217   5.911  22.840  0.00  0.00    +0.401 C 
ATOM     54  O   UNL     1       4.749   6.499  21.912  0.00  0.00    -0.226 OA
BRANCH  53  55
ATOM     55  O   UNL     1       2.878   5.825  23.049  0.00  0.00    -0.454 OA
ATOM     56  C   UNL     1       2.428   6.450  24.256  0.00  0.00    +0.282 C 
ENDBRANCH  53  55
ENDBRANCH  50  51
BRANCH  50  57
ATOM     57  C   UNL     1       6.540   3.410  23.485  0.00  0.00    +0.012 C 
ATOM     58  C   UNL     1       6.628   3.103  21.986  0.00  0.00    +0.009 C 
ATOM     59  C   UNL     1       5.466   2.497  24.097  0.00  0.00    +0.009 C 
ENDBRANCH  50  57
ENDBRANCH  45  50
ENDBRANCH  40  43
ENDBRANCH  34  37
ENDBRANCH   4  31
TORSDOF 14
ENDMDL
MODEL 2
REMARK VINA RESULT:      -5.6      1.309      2.238
REMARK  Name = 
REMARK  20 active torsions:
REMARK  status: ('A' for Active; 'I' for Inactive)
REMARK    1  A    between atoms: C_1  and  C_2
REMARK    2  A    between atoms: C_2  and  C_3
REMARK    3  A    between atoms: C_2  and  C_4
REMARK    4  A    between atoms: C_4  and  C_5
REMARK    5  A    between atoms: C_4  and  C_11
REMARK    6  A    between atoms: C_5  and  N_6
REMARK    7  A    between atoms: C_7  and  O_9
REMARK    8  A    between atoms: O_9  and  C_10
REMARK    9  A    between atoms: C_17  and  C_19
REMARK   10  A    between atoms: C_22  and  C_24
REMARK   11  A    between atoms: C_27  and  C_30
REMARK   12  A    between atoms: C_33  and  C_36
REMARK   13  A    between atoms: C_39  and  C_41
REMARK   14  A    between atoms: C_47  and  C_49
REMARK   15  A    between atoms: C_49  and  C_50
REMARK   16  A    between atoms: C_49  and  N_53
REMARK   17  A    between atoms: C_50  and  C_51
REMARK   18  A    between atoms: C_50  and  C_52
REMARK   19  A    between atoms: C_54  and  O_56
REMARK   20  A    between atoms: O_56  and  C_57
REMARK                            x       y       z     vdW  Elec       q    Type
REMARK                         _______ _______ _______ _____ _____    ______ ____
ROOT
ATOM      1  C   UNL     1       6.363  -4.928  24.098  0.00  0.00    -0.000 A 
ATOM      2  C   UNL     1       6.876  -4.557  22.849  0.00  0.00    +0.010 A 
ATOM      3  C   UNL     1       7.829  -3.527  22.733  0.00  0.00    +0.009 A 
ATOM      4  C   UNL     1       8.285  -2.815  23.857  0.00  0.00    -0.018 A 
ATOM      5  C   UNL     1       7.825  -3.267  25.107  0.00  0.00    +0.009 A 
ATOM      6  C   UNL     1       6.886  -4.300  25.230  0.00  0.00    +0.010 A 
ENDROOT
BRANCH   1  10
ATOM      7  C   UNL     1       3.657  -7.157  25.105  0.00  0.00    +0.128 A 
ATOM      8  N   UNL     1       4.561  -6.153  25.352  0.00  0.00    -0.340 N 
ATOM      9  H   UNL     1       4.688  -5.711  26.251  0.00  0.00    +0.167 HD
ATOM     10  C   UNL     1       5.280  -5.903  24.207  0.00  0.00    +0.066 A 
ATOM     11  C   UNL     1       4.683  -6.729  23.272  0.00  0.00    +0.139 A 
ATOM     12  N   UNL     1       3.700  -7.503  23.835  0.00  0.00    -0.238 NA
BRANCH   7  15
ATOM     13  C   UNL     1       1.814  -5.839  27.637  0.00  0.00    +0.221 C 
ATOM     14  N   UNL     1       1.747  -6.739  26.582  0.00  0.00    -0.291 N 
ATOM     15  C   UNL     1       2.750  -7.724  26.156  0.00  0.00    +0.142 C 
ATOM     16  C   UNL     1       1.953  -8.926  25.611  0.00  0.00    +0.032 C 
ATOM     17  C   UNL     1       0.499  -8.632  25.953  0.00  0.00    +0.021 C 
ATOM     18  C   UNL     1       0.449  -7.122  26.037  0.00  0.00    +0.108 C 
ATOM     19  O   UNL     1       0.762  -5.457  28.161  0.00  0.00    -0.275 OA
BRANCH  13  20
ATOM     20  C   UNL     1       3.166  -5.209  28.084  0.00  0.00    +0.095 C 
BRANCH  20  22
ATOM     21  C   UNL     1       5.538  -5.702  29.024  0.00  0.00    +0.008 C 
ATOM     22  C   UNL     1       4.204  -6.307  28.549  0.00  0.00    -0.004 C 
ATOM     23  C   UNL     1       3.697  -7.196  29.698  0.00  0.00    +0.008 C 
ENDBRANCH  20  22
BRANCH  20  24
ATOM     24  C   UNL     1       3.791  -4.290  27.022  0.00  0.00    +0.120 C 
BRANCH  24  25
ATOM     25  N   UNL     1       4.071  -2.953  27.496  0.00  0.00    -0.280 N 
ATOM     26  H   UNL     1       3.964  -2.721  28.476  0.00  0.00    +0.152 HD
ATOM     27  C   UNL     1       4.111  -1.879  26.660  0.00  0.00    +0.400 C 
ATOM     28  O   UNL     1       4.079  -1.934  25.440  0.00  0.00    -0.226 OA
BRANCH  27  29
ATOM     29  O   UNL     1       4.186  -0.743  27.393  0.00  0.00    -0.454 OA
ATOM     30  C   UNL     1       5.164   0.187  26.923  0.00  0.00    +0.282 C 
ENDBRANCH  27  29
ENDBRANCH  24  25
ENDBRANCH  20  24
ENDBRANCH  13  20
ENDBRANCH   7  15
ENDBRANCH   1  10
BRANCH   4  31
ATOM     31  C   UNL     1       9.087  -1.561  23.756  0.00  0.00    -0.018 A 
ATOM     32  C   UNL     1       9.038  -0.754  22.607  0.00  0.00    +0.009 A 
ATOM     33  C   UNL     1       9.567   0.551  22.605  0.00  0.00    +0.010 A 
ATOM     34  C   UNL     1      10.183   1.102  23.736  0.00  0.00    -0.000 A 
ATOM     35  C   UNL     1      10.331   0.266  24.848  0.00  0.00    +0.010 A 
ATOM     36  C   UNL     1       9.803  -1.039  24.849  0.00  0.00    +0.009 A 
BRANCH  34  37
ATOM     37  C   UNL     1      10.539   2.527  23.774  0.00  0.00    +0.066 A 
ATOM     38  N   UNL     1       9.809   3.496  24.436  0.00  0.00    -0.340 N 
ATOM     39  H   UNL     1       8.986   3.317  24.993  0.00  0.00    +0.167 HD
ATOM     40  C   UNL     1      10.187   4.738  23.954  0.00  0.00    +0.128 A 
ATOM     41  N   UNL     1      11.295   4.617  23.254  0.00  0.00    -0.238 NA
ATOM     42  C   UNL     1      11.502   3.265  23.115  0.00  0.00    +0.139 A 
BRANCH  40  43
ATOM     43  C   UNL     1       9.286   5.961  24.081  0.00  0.00    +0.142 C 
ATOM     44  N   UNL     1       8.224   5.741  25.080  0.00  0.00    -0.290 N 
ATOM     45  C   UNL     1       6.907   5.349  24.937  0.00  0.00    +0.237 C 
ATOM     46  O   UNL     1       6.137   5.450  25.905  0.00  0.00    -0.274 OA
ATOM     47  C   UNL     1       8.676   6.150  26.408  0.00  0.00    +0.108 C 
ATOM     48  C   UNL     1      10.085   6.692  26.224  0.00  0.00    +0.021 C 
ATOM     49  C   UNL     1      10.084   7.107  24.754  0.00  0.00    +0.032 C 
BRANCH  45  50
ATOM     50  C   UNL     1       6.328   4.906  23.563  0.00  0.00    +0.165 C 
BRANCH  50  51
ATOM     51  N   UNL     1       4.866   4.953  23.665  0.00  0.00    -0.270 N 
ATOM     52  H   UNL     1       4.392   4.262  24.231  0.00  0.00    +0.153 HD
ATOM     53  C   UNL     1       4.099   5.754  22.882  0.00  0.00    +0.401 C 
ATOM     54  O   UNL     1       4.532   6.615  22.134  0.00  0.00    -0.226 OA
BRANCH  53  55
ATOM     55  O   UNL     1       2.788   5.435  23.034  0.00  0.00    -0.454 OA
ATOM     56  C   UNL     1       2.552   4.079  23.427  0.00  0.00    +0.282 C 
ENDBRANCH  53  55
ENDBRANCH  50  51
BRANCH  50  57
ATOM     57  C   UNL     1       6.775   3.434  23.254  0.00  0.00    +0.012 C 
ATOM     58  C   UNL     1       7.417   3.339  21.866  0.00  0.00    +0.009 C 
ATOM     59  C   UNL     1       5.655   2.386  23.336  0.00  0.00    +0.009 C 
ENDBRANCH  50  57
ENDBRANCH  45  50
ENDBRANCH  40  43
ENDBRANCH  34  37
ENDBRANCH   4  31
TORSDOF 14
ENDMDL
MODEL 3
REMARK VINA RESULT:      -4.8      1.764     11.728
REMARK  Name = 
REMARK  20 active torsions:
REMARK  status: ('A' for Active; 'I' for Inactive)
REMARK    1  A    between atoms: C_1  and  C_2
REMARK    2  A    between atoms: C_2  and  C_3
REMARK    3  A    between atoms: C_2  and  C_4
REMARK    4  A    between atoms: C_4  and  C_5
REMARK    5  A    between atoms: C_4  and  C_11
REMARK    6  A    between atoms: C_5  and  N_6
REMARK    7  A    between atoms: C_7  and  O_9
REMARK    8  A    between atoms: O_9  and  C_10
REMARK    9  A    between atoms: C_17  and  C_19
REMARK   10  A    between atoms: C_22  and  C_24
REMARK   11  A    between atoms: C_27  and  C_30
REMARK   12  A    between atoms: C_33  and  C_36
REMARK   13  A    between atoms: C_39  and  C_41
REMARK   14  A    between atoms: C_47  and  C_49
REMARK   15  A    between atoms: C_49  and  C_50
REMARK   16  A    between atoms: C_49  and  N_53
REMARK   17  A    between atoms: C_50  and  C_51
REMARK   18  A    between atoms: C_50  and  C_52
REMARK   19  A    between atoms: C_54  and  O_56
REMARK   20  A    between atoms: O_56  and  C_57
REMARK                            x       y       z     vdW  Elec       q    Type
REMARK                         _______ _______ _______ _____ _____    ______ ____
ROOT
ATOM      1  C   UNL     1       9.474   1.027  23.422  0.00  0.00    -0.000 A 
ATOM      2  C   UNL     1      10.323  -0.084  23.493  0.00  0.00    +0.010 A 
ATOM      3  C   UNL     1       9.820  -1.366  23.782  0.00  0.00    +0.009 A 
ATOM      4  C   UNL     1       8.452  -1.580  24.035  0.00  0.00    -0.018 A 
ATOM      5  C   UNL     1       7.608  -0.468  23.867  0.00  0.00    +0.009 A 
ATOM      6  C   UNL     1       8.103   0.809  23.567  0.00  0.00    +0.010 A 
ENDROOT
BRANCH   1  10
ATOM      7  C   UNL     1      10.244   4.592  23.466  0.00  0.00    +0.128 A 
ATOM      8  N   UNL     1       9.536   3.495  23.894  0.00  0.00    -0.340 N 
ATOM      9  H   UNL     1       8.767   3.534  24.546  0.00  0.00    +0.167 HD
ATOM     10  C   UNL     1      10.012   2.375  23.253  0.00  0.00    +0.066 A 
ATOM     11  C   UNL     1      11.082   2.859  22.523  0.00  0.00    +0.139 A 
ATOM     12  N   UNL     1      11.208   4.219  22.648  0.00  0.00    -0.238 NA
BRANCH   7  15
ATOM     13  C   UNL     1       7.447   6.229  24.487  0.00  0.00    +0.221 C 
ATOM     14  N   UNL     1       8.781   6.025  24.813  0.00  0.00    -0.291 N 
ATOM     15  C   UNL     1       9.946   5.990  23.917  0.00  0.00    +0.142 C 
ATOM     16  C   UNL     1      11.118   6.573  24.731  0.00  0.00    +0.032 C 
ATOM     17  C   UNL     1      10.492   7.107  26.011  0.00  0.00    +0.021 C 
ATOM     18  C   UNL     1       9.242   6.271  26.175  0.00  0.00    +0.108 C 
ATOM     19  O   UNL     1       6.695   6.715  25.339  0.00  0.00    -0.275 OA
BRANCH  13  20
ATOM     20  C   UNL     1       6.857   5.744  23.130  0.00  0.00    +0.095 C 
BRANCH  20  22
ATOM     21  C   UNL     1       6.274   3.415  22.137  0.00  0.00    +0.008 C 
ATOM     22  C   UNL     1       6.031   4.406  23.290  0.00  0.00    -0.004 C 
ATOM     23  C   UNL     1       6.332   3.640  24.591  0.00  0.00    +0.008 C 
ENDBRANCH  20  22
BRANCH  20  24
ATOM     24  C   UNL     1       6.017   6.815  22.414  0.00  0.00    +0.120 C 
BRANCH  24  25
ATOM     25  N   UNL     1       4.762   7.108  23.068  0.00  0.00    -0.280 N 
ATOM     26  H   UNL     1       4.740   7.368  24.046  0.00  0.00    +0.152 HD
ATOM     27  C   UNL     1       3.566   6.697  22.563  0.00  0.00    +0.400 C 
ATOM     28  O   UNL     1       3.401   6.195  21.462  0.00  0.00    -0.226 OA
BRANCH  27  29
ATOM     29  O   UNL     1       2.592   6.927  23.475  0.00  0.00    -0.454 OA
ATOM     30  C   UNL     1       2.991   6.674  24.825  0.00  0.00    +0.282 C 
ENDBRANCH  27  29
ENDBRANCH  24  25
ENDBRANCH  20  24
ENDBRANCH  13  20
ENDBRANCH   7  15
ENDBRANCH   1  10
BRANCH   4  31
ATOM     31  C   UNL     1       7.917  -2.856  24.593  0.00  0.00    -0.018 A 
ATOM     32  C   UNL     1       8.166  -3.231  25.924  0.00  0.00    +0.009 A 
ATOM     33  C   UNL     1       7.452  -4.279  26.537  0.00  0.00    +0.010 A 
ATOM     34  C   UNL     1       6.476  -5.010  25.848  0.00  0.00    -0.000 A 
ATOM     35  C   UNL     1       6.300  -4.714  24.491  0.00  0.00    +0.010 A 
ATOM     36  C   UNL     1       7.015  -3.666  23.880  0.00  0.00    +0.009 A 
BRANCH  34  37
ATOM     37  C   UNL     1       5.606  -5.955  26.562  0.00  0.00    +0.066 A 
ATOM     38  N   UNL     1       4.252  -6.101  26.325  0.00  0.00    -0.340 N 
ATOM     39  H   UNL     1       3.736  -5.607  25.610  0.00  0.00    +0.167 HD
ATOM     40  C   UNL     1       3.684  -6.759  27.403  0.00  0.00    +0.128 A 
ATOM     41  N   UNL     1       4.636  -7.280  28.148  0.00  0.00    -0.238 NA
ATOM     42  C   UNL     1       5.815  -6.769  27.658  0.00  0.00    +0.139 A 
BRANCH  40  43
ATOM     43  C   UNL     1       2.195  -6.661  27.714  0.00  0.00    +0.142 C 
ATOM     44  N   UNL     1       1.531  -5.667  26.850  0.00  0.00    -0.290 N 
ATOM     45  C   UNL     1       1.202  -4.343  27.073  0.00  0.00    +0.237 C 
ATOM     46  O   UNL     1       0.443  -3.768  26.278  0.00  0.00    -0.274 OA
ATOM     47  C   UNL     1       1.057  -6.293  25.619  0.00  0.00    +0.108 C 
ATOM     48  C   UNL     1       1.408  -7.768  25.734  0.00  0.00    +0.021 C 
ATOM     49  C   UNL     1       1.496  -7.964  27.247  0.00  0.00    +0.032 C 
BRANCH  45  50
ATOM     50  C   UNL     1       1.653  -3.591  28.357  0.00  0.00    +0.165 C 
BRANCH  50  51
ATOM     51  N   UNL     1       2.983  -3.031  28.096  0.00  0.00    -0.270 N 
ATOM     52  H   UNL     1       3.763  -3.661  27.970  0.00  0.00    +0.153 HD
ATOM     53  C   UNL     1       3.259  -1.706  28.210  0.00  0.00    +0.401 C 
ATOM     54  O   UNL     1       2.423  -0.835  28.386  0.00  0.00    -0.226 OA
BRANCH  53  55
ATOM     55  O   UNL     1       4.599  -1.502  28.128  0.00  0.00    -0.454 OA
ATOM     56  C   UNL     1       5.061  -1.127  26.827  0.00  0.00    +0.282 C 
ENDBRANCH  53  55
ENDBRANCH  50  51
BRANCH  50  57
ATOM     57  C   UNL     1       1.746  -4.602  29.554  0.00  0.00    +0.012 C 
ATOM     58  C   UNL     1       0.536  -4.461  30.483  0.00  0.00    +0.009 C 
ATOM     59  C   UNL     1       3.020  -4.481  30.405  0.00  0.00    +0.009 C 
ENDBRANCH  50  57
ENDBRANCH  45  50
ENDBRANCH  40  43
ENDBRANCH  34  37
ENDBRANCH   4  31
TORSDOF 14
ENDMDL
MODEL 4
REMARK VINA RESULT:      -3.8      2.593     12.611
REMARK  Name = 
REMARK  20 active torsions:
REMARK  status: ('A' for Active; 'I' for Inactive)
REMARK    1  A    between atoms: C_1  and  C_2
REMARK    2  A    between atoms: C_2  and  C_3
REMARK    3  A    between atoms: C_2  and  C_4
REMARK    4  A    between atoms: C_4  and  C_5
REMARK    5  A    between atoms: C_4  and  C_11
REMARK    6  A    between atoms: C_5  and  N_6
REMARK    7  A    between atoms: C_7  and  O_9
REMARK    8  A    between atoms: O_9  and  C_10
REMARK    9  A    between atoms: C_17  and  C_19
REMARK   10  A    between atoms: C_22  and  C_24
REMARK   11  A    between atoms: C_27  and  C_30
REMARK   12  A    between atoms: C_33  and  C_36
REMARK   13  A    between atoms: C_39  and  C_41
REMARK   14  A    between atoms: C_47  and  C_49
REMARK   15  A    between atoms: C_49  and  C_50
REMARK   16  A    between atoms: C_49  and  N_53
REMARK   17  A    between atoms: C_50  and  C_51
REMARK   18  A    between atoms: C_50  and  C_52
REMARK   19  A    between atoms: C_54  and  O_56
REMARK   20  A    between atoms: O_56  and  C_57
REMARK                            x       y       z     vdW  Elec       q    Type
REMARK                         _______ _______ _______ _____ _____    ______ ____
ROOT
ATOM      1  C   UNL     1       7.459   0.387  23.934  0.00  0.00    -0.000 A 
ATOM      2  C   UNL     1       8.137   0.083  25.121  0.00  0.00    +0.010 A 
ATOM      3  C   UNL     1       7.948  -1.152  25.769  0.00  0.00    +0.009 A 
ATOM      4  C   UNL     1       7.056  -2.118  25.268  0.00  0.00    -0.018 A 
ATOM      5  C   UNL     1       6.457  -1.827  24.029  0.00  0.00    +0.009 A 
ATOM      6  C   UNL     1       6.652  -0.603  23.373  0.00  0.00    +0.010 A 
ENDROOT
BRANCH   1  10
ATOM      7  C   UNL     1       7.715   3.943  23.160  0.00  0.00    +0.128 A 
ATOM      8  N   UNL     1       7.711   2.887  24.038  0.00  0.00    -0.340 N 
ATOM      9  H   UNL     1       7.775   2.981  25.042  0.00  0.00    +0.167 HD
ATOM     10  C   UNL     1       7.553   1.716  23.334  0.00  0.00    +0.066 A 
ATOM     11  C   UNL     1       7.571   2.136  22.016  0.00  0.00    +0.139 A 
ATOM     12  N   UNL     1       7.656   3.501  21.920  0.00  0.00    -0.238 NA
BRANCH   7  15
ATOM     13  C   UNL     1       5.883   5.939  25.210  0.00  0.00    +0.221 C 
ATOM     14  N   UNL     1       7.188   5.571  24.915  0.00  0.00    -0.291 N 
ATOM     15  C   UNL     1       7.807   5.374  23.596  0.00  0.00    +0.142 C 
ATOM     16  C   UNL     1       9.276   5.814  23.752  0.00  0.00    +0.032 C 
ATOM     17  C   UNL     1       9.363   6.443  25.135  0.00  0.00    +0.021 C 
ATOM     18  C   UNL     1       8.241   5.776  25.903  0.00  0.00    +0.108 C 
ATOM     19  O   UNL     1       5.657   6.530  26.272  0.00  0.00    -0.275 OA
BRANCH  13  20
ATOM     20  C   UNL     1       4.692   5.514  24.302  0.00  0.00    +0.095 C 
BRANCH  20  22
ATOM     21  C   UNL     1       2.953   3.964  25.455  0.00  0.00    +0.008 C 
ATOM     22  C   UNL     1       4.228   4.031  24.592  0.00  0.00    -0.004 C 
ATOM     23  C   UNL     1       3.936   3.210  23.323  0.00  0.00    +0.008 C 
ENDBRANCH  20  22
BRANCH  20  24
ATOM     24  C   UNL     1       3.496   6.478  24.374  0.00  0.00    +0.120 C 
BRANCH  24  25
ATOM     25  N   UNL     1       2.715   6.533  23.159  0.00  0.00    -0.280 N 
ATOM     26  H   UNL     1       1.788   6.127  23.125  0.00  0.00    +0.152 HD
ATOM     27  C   UNL     1       3.279   6.763  21.941  0.00  0.00    +0.400 C 
ATOM     28  O   UNL     1       4.438   7.098  21.754  0.00  0.00    -0.226 OA
BRANCH  27  29
ATOM     29  O   UNL     1       2.355   6.555  20.973  0.00  0.00    -0.454 OA
ATOM     30  C   UNL     1       2.110   5.175  20.693  0.00  0.00    +0.282 C 
ENDBRANCH  27  29
ENDBRANCH  24  25
ENDBRANCH  20  24
ENDBRANCH  13  20
ENDBRANCH   7  15
ENDBRANCH   1  10
BRANCH   4  31
ATOM     31  C   UNL     1       6.632  -3.317  26.048  0.00  0.00    -0.018 A 
ATOM     32  C   UNL     1       6.437  -3.253  27.438  0.00  0.00    +0.009 A 
ATOM     33  C   UNL     1       5.783  -4.285  28.136  0.00  0.00    +0.010 A 
ATOM     34  C   UNL     1       5.314  -5.435  27.487  0.00  0.00    -0.000 A 
ATOM     35  C   UNL     1       5.601  -5.555  26.122  0.00  0.00    +0.010 A 
ATOM     36  C   UNL     1       6.255  -4.521  25.426  0.00  0.00    +0.009 A 
BRANCH  34  37
ATOM     37  C   UNL     1       4.459  -6.398  28.194  0.00  0.00    +0.066 A 
ATOM     38  N   UNL     1       3.393  -7.064  27.620  0.00  0.00    -0.340 N 
ATOM     39  H   UNL     1       3.123  -6.989  26.650  0.00  0.00    +0.167 HD
ATOM     40  C   UNL     1       2.592  -7.569  28.631  0.00  0.00    +0.128 A 
ATOM     41  N   UNL     1       3.241  -7.507  29.775  0.00  0.00    -0.238 NA
ATOM     42  C   UNL     1       4.372  -6.767  29.522  0.00  0.00    +0.139 A 
BRANCH  40  43
ATOM     43  C   UNL     1       1.126  -7.917  28.401  0.00  0.00    +0.142 C 
ATOM     44  N   UNL     1       0.989  -9.147  27.598  0.00  0.00    -0.290 N 
ATOM     45  C   UNL     1       0.775  -9.331  26.246  0.00  0.00    +0.237 C 
ATOM     46  O   UNL     1       0.468 -10.459  25.831  0.00  0.00    -0.274 OA
ATOM     47  C   UNL     1       0.955 -10.323  28.464  0.00  0.00    +0.108 C 
ATOM     48  C   UNL     1       1.037  -9.800  29.889  0.00  0.00    +0.021 C 
ATOM     49  C   UNL     1       0.501  -8.376  29.744  0.00  0.00    +0.032 C 
BRANCH  45  50
ATOM     50  C   UNL     1       0.783  -8.140  25.245  0.00  0.00    +0.165 C 
BRANCH  50  51
ATOM     51  N   UNL     1       0.626  -8.697  23.897  0.00  0.00    -0.270 N 
ATOM     52  H   UNL     1       0.727  -9.695  23.765  0.00  0.00    +0.153 HD
ATOM     53  C   UNL     1       0.547  -7.922  22.785  0.00  0.00    +0.401 C 
ATOM     54  O   UNL     1       0.443  -6.706  22.791  0.00  0.00    -0.226 OA
BRANCH  53  55
ATOM     55  O   UNL     1       0.629  -8.697  21.672  0.00  0.00    -0.454 OA
ATOM     56  C   UNL     1       1.204  -8.041  20.538  0.00  0.00    +0.282 C 
ENDBRANCH  53  55
ENDBRANCH  50  51
BRANCH  50  57
ATOM     57  C   UNL     1       2.156  -7.387  25.333  0.00  0.00    +0.012 C 
ATOM     58  C   UNL     1       1.945  -5.869  25.350  0.00  0.00    +0.009 C 
ATOM     59  C   UNL     1       3.151  -7.720  24.211  0.00  0.00    +0.009 C 
ENDBRANCH  50  57
ENDBRANCH  45  50
ENDBRANCH  40  43
ENDBRANCH  34  37
ENDBRANCH   4  31
TORSDOF 14
ENDMDL
