MODEL 1
REMARK VINA RESULT:      -6.2      0.000      0.000
REMARK  Name = 
REMARK  5 active torsions:
REMARK  status: ('A' for Active; 'I' for Inactive)
REMARK    1  A    between atoms: C_1  and  C_2
REMARK    2  A    between atoms: N_4  and  C_10
REMARK    3  A    between atoms: C_14  and  O_21
REMARK    4  A    between atoms: C_16  and  C_19
REMARK    5  A    between atoms: C_19  and  O_20
REMARK                            x       y       z     vdW  Elec       q    Type
REMARK                         _______ _______ _______ _____ _____    ______ ____
ROOT
ATOM      1  C   UNL     1       8.928  -2.870  23.969  0.00  0.00    +0.260 C 
ATOM      2  O   UNL     1       9.966  -1.971  24.401  0.00  0.00    -0.345 OA
ATOM      3  C   UNL     1       9.848  -0.749  23.636  0.00  0.00    +0.178 C 
ATOM      4  C   UNL     1       8.699  -0.946  22.639  0.00  0.00    +0.184 C 
ATOM      5  C   UNL     1       7.858  -2.035  23.280  0.00  0.00    +0.246 C 
ATOM      6  F   UNL     1       7.239  -2.771  22.318  0.00  0.00    -0.238 F 
ENDROOT
BRANCH   1  15
ATOM      7  C   UNL     1       5.549  -3.816  27.480  0.00  0.00    +0.051 C 
ATOM      8  C   UNL     1       6.824  -4.109  26.757  0.00  0.00    +0.030 A 
ATOM      9  C   UNL     1       7.576  -5.318  27.166  0.00  0.00    +0.257 A 
ATOM     10  O   UNL     1       7.163  -6.080  28.033  0.00  0.00    -0.267 OA
ATOM     11  N   UNL     1       8.754  -5.532  26.513  0.00  0.00    -0.275 N 
ATOM     12  H   UNL     1       9.271  -6.357  26.771  0.00  0.00    +0.173 HD
ATOM     13  C   UNL     1       9.237  -4.803  25.458  0.00  0.00    +0.331 A 
ATOM     14  O   UNL     1      10.272  -5.158  24.894  0.00  0.00    -0.246 OA
ATOM     15  N   UNL     1       8.489  -3.693  25.098  0.00  0.00    -0.271 N 
ATOM     16  C   UNL     1       7.322  -3.364  25.763  0.00  0.00    +0.102 A 
ENDBRANCH   1  15
BRANCH   4  17
ATOM     17  O   UNL     1       7.964   0.235  22.345  0.00  0.00    -0.386 OA
ATOM     18  H   UNL     1       8.034   0.829  23.122  0.00  0.00    +0.210 HD
ENDBRANCH   4  17
BRANCH   3  19
ATOM     19  C   UNL     1       9.679   0.441  24.585  0.00  0.00    +0.190 C 
BRANCH  19  20
ATOM     20  O   UNL     1       9.731   0.021  25.946  0.00  0.00    -0.392 OA
ATOM     21  H   UNL     1       9.277   0.715  26.479  0.00  0.00    +0.210 HD
ENDBRANCH  19  20
ENDBRANCH   3  19
TORSDOF 4
ENDMDL
MODEL 2
REMARK VINA RESULT:      -6.1      2.321      2.938
REMARK  Name = 
REMARK  5 active torsions:
REMARK  status: ('A' for Active; 'I' for Inactive)
REMARK    1  A    between atoms: C_1  and  C_2
REMARK    2  A    between atoms: N_4  and  C_10
REMARK    3  A    between atoms: C_14  and  O_21
REMARK    4  A    between atoms: C_16  and  C_19
REMARK    5  A    between atoms: C_19  and  O_20
REMARK                            x       y       z     vdW  Elec       q    Type
REMARK                         _______ _______ _______ _____ _____    ______ ____
ROOT
ATOM      1  C   UNL     1      10.010  -0.295  23.888  0.00  0.00    +0.260 C 
ATOM      2  O   UNL     1      10.322   0.912  24.608  0.00  0.00    -0.345 OA
ATOM      3  C   UNL     1      10.401   1.996  23.653  0.00  0.00    +0.178 C 
ATOM      4  C   UNL     1      10.177   1.391  22.261  0.00  0.00    +0.184 C 
ATOM      5  C   UNL     1       9.412   0.113  22.549  0.00  0.00    +0.246 C 
ATOM      6  F   UNL     1       9.699  -0.824  21.605  0.00  0.00    -0.238 F 
ENDROOT
BRANCH   1  15
ATOM      7  C   UNL     1       6.340  -0.800  27.194  0.00  0.00    +0.051 C 
ATOM      8  C   UNL     1       7.409  -1.354  26.308  0.00  0.00    +0.030 A 
ATOM      9  C   UNL     1       7.542  -2.828  26.242  0.00  0.00    +0.257 A 
ATOM     10  O   UNL     1       6.789  -3.578  26.853  0.00  0.00    -0.267 OA
ATOM     11  N   UNL     1       8.553  -3.297  25.456  0.00  0.00    -0.275 N 
ATOM     12  H   UNL     1       8.648  -4.297  25.390  0.00  0.00    +0.173 HD
ATOM     13  C   UNL     1       9.366  -2.543  24.650  0.00  0.00    +0.331 A 
ATOM     14  O   UNL     1      10.181  -3.100  23.914  0.00  0.00    -0.246 OA
ATOM     15  N   UNL     1       9.191  -1.171  24.730  0.00  0.00    -0.271 N 
ATOM     16  C   UNL     1       8.239  -0.613  25.563  0.00  0.00    +0.102 A 
ENDBRANCH   1  15
BRANCH   4  17
ATOM     17  O   UNL     1       9.513   2.252  21.344  0.00  0.00    -0.386 OA
ATOM     18  H   UNL     1       9.332   1.736  20.530  0.00  0.00    +0.210 HD
ENDBRANCH   4  17
BRANCH   3  19
ATOM     19  C   UNL     1       9.415   3.101  24.041  0.00  0.00    +0.190 C 
BRANCH  19  20
ATOM     20  O   UNL     1       9.680   4.300  23.317  0.00  0.00    -0.392 OA
ATOM     21  H   UNL     1       8.835   4.572  22.890  0.00  0.00    +0.210 HD
ENDBRANCH  19  20
ENDBRANCH   3  19
TORSDOF 4
ENDMDL
MODEL 3
REMARK VINA RESULT:      -6.0      3.235      5.301
REMARK  Name = 
REMARK  5 active torsions:
REMARK  status: ('A' for Active; 'I' for Inactive)
REMARK    1  A    between atoms: C_1  and  C_2
REMARK    2  A    between atoms: N_4  and  C_10
REMARK    3  A    between atoms: C_14  and  O_21
REMARK    4  A    between atoms: C_16  and  C_19
REMARK    5  A    between atoms: C_19  and  O_20
REMARK                            x       y       z     vdW  Elec       q    Type
REMARK                         _______ _______ _______ _____ _____    ______ ____
ROOT
ATOM      1  C   UNL     1       7.377  -4.745  23.719  0.00  0.00    +0.260 C 
ATOM      2  O   UNL     1       7.723  -5.418  22.495  0.00  0.00    -0.345 OA
ATOM      3  C   UNL     1       6.601  -6.244  22.104  0.00  0.00    +0.178 C 
ATOM      4  C   UNL     1       5.531  -6.102  23.195  0.00  0.00    +0.184 C 
ATOM      5  C   UNL     1       5.860  -4.768  23.842  0.00  0.00    +0.246 C 
ATOM      6  F   UNL     1       5.496  -4.785  25.152  0.00  0.00    -0.238 F 
ENDROOT
BRANCH   1  15
ATOM      7  C   UNL     1       7.041   0.161  23.044  0.00  0.00    +0.051 C 
ATOM      8  C   UNL     1       7.792  -1.074  23.426  0.00  0.00    +0.030 A 
ATOM      9  C   UNL     1       9.174  -0.902  23.930  0.00  0.00    +0.257 A 
ATOM     10  O   UNL     1       9.682   0.204  24.072  0.00  0.00    -0.267 OA
ATOM     11  N   UNL     1       9.842  -2.052  24.230  0.00  0.00    -0.275 N 
ATOM     12  H   UNL     1      10.778  -1.951  24.587  0.00  0.00    +0.173 HD
ATOM     13  C   UNL     1       9.319  -3.319  24.213  0.00  0.00    +0.331 A 
ATOM     14  O   UNL     1      10.003  -4.267  24.599  0.00  0.00    -0.246 OA
ATOM     15  N   UNL     1       8.016  -3.428  23.754  0.00  0.00    -0.271 N 
ATOM     16  C   UNL     1       7.297  -2.316  23.356  0.00  0.00    +0.102 A 
ENDBRANCH   1  15
BRANCH   4  17
ATOM     17  O   UNL     1       4.192  -6.186  22.723  0.00  0.00    -0.386 OA
ATOM     18  H   UNL     1       3.990  -7.134  22.574  0.00  0.00    +0.210 HD
ENDBRANCH   4  17
BRANCH   3  19
ATOM     19  C   UNL     1       6.139  -5.857  20.696  0.00  0.00    +0.190 C 
BRANCH  19  20
ATOM     20  O   UNL     1       5.765  -4.482  20.640  0.00  0.00    -0.392 OA
ATOM     21  H   UNL     1       6.171  -4.042  21.423  0.00  0.00    +0.210 HD
ENDBRANCH  19  20
ENDBRANCH   3  19
TORSDOF 4
ENDMDL
MODEL 4
REMARK VINA RESULT:      -5.9      2.180      3.127
REMARK  Name = 
REMARK  5 active torsions:
REMARK  status: ('A' for Active; 'I' for Inactive)
REMARK    1  A    between atoms: C_1  and  C_2
REMARK    2  A    between atoms: N_4  and  C_10
REMARK    3  A    between atoms: C_14  and  O_21
REMARK    4  A    between atoms: C_16  and  C_19
REMARK    5  A    between atoms: C_19  and  O_20
REMARK                            x       y       z     vdW  Elec       q    Type
REMARK                         _______ _______ _______ _____ _____    ______ ____
ROOT
ATOM      1  C   UNL     1       9.852  -0.726  23.351  0.00  0.00    +0.260 C 
ATOM      2  O   UNL     1      10.248   0.295  24.284  0.00  0.00    -0.345 OA
ATOM      3  C   UNL     1      10.330   1.550  23.568  0.00  0.00    +0.178 C 
ATOM      4  C   UNL     1      10.017   1.253  22.096  0.00  0.00    +0.184 C 
ATOM      5  C   UNL     1       9.212  -0.032  22.157  0.00  0.00    +0.246 C 
ATOM      6  F   UNL     1       9.415  -0.762  21.027  0.00  0.00    -0.238 F 
ENDROOT
BRANCH   1  15
ATOM      7  C   UNL     1       9.423  -5.308  25.213  0.00  0.00    +0.051 C 
ATOM      8  C   UNL     1       8.892  -3.940  24.928  0.00  0.00    +0.030 A 
ATOM      9  C   UNL     1       7.546  -3.610  25.452  0.00  0.00    +0.257 A 
ATOM     10  O   UNL     1       6.898  -4.401  26.127  0.00  0.00    -0.267 OA
ATOM     11  N   UNL     1       7.077  -2.369  25.139  0.00  0.00    -0.275 N 
ATOM     12  H   UNL     1       6.169  -2.124  25.499  0.00  0.00    +0.173 HD
ATOM     13  C   UNL     1       7.774  -1.381  24.492  0.00  0.00    +0.331 A 
ATOM     14  O   UNL     1       7.267  -0.267  24.354  0.00  0.00    -0.246 OA
ATOM     15  N   UNL     1       9.036  -1.730  24.038  0.00  0.00    -0.271 N 
ATOM     16  C   UNL     1       9.552  -2.995  24.248  0.00  0.00    +0.102 A 
ENDBRANCH   1  15
BRANCH   4  17
ATOM     17  O   UNL     1       9.349   2.306  21.411  0.00  0.00    -0.386 OA
ATOM     18  H   UNL     1       8.647   1.901  20.859  0.00  0.00    +0.210 HD
ENDBRANCH   4  17
BRANCH   3  19
ATOM     19  C   UNL     1       9.410   2.582  24.226  0.00  0.00    +0.190 C 
BRANCH  19  20
ATOM     20  O   UNL     1       8.744   2.027  25.358  0.00  0.00    -0.392 OA
ATOM     21  H   UNL     1       9.235   1.210  25.608  0.00  0.00    +0.210 HD
ENDBRANCH  19  20
ENDBRANCH   3  19
TORSDOF 4
ENDMDL
MODEL 5
REMARK VINA RESULT:      -5.9      2.667      3.355
REMARK  Name = 
REMARK  5 active torsions:
REMARK  status: ('A' for Active; 'I' for Inactive)
REMARK    1  A    between atoms: C_1  and  C_2
REMARK    2  A    between atoms: N_4  and  C_10
REMARK    3  A    between atoms: C_14  and  O_21
REMARK    4  A    between atoms: C_16  and  C_19
REMARK    5  A    between atoms: C_19  and  O_20
REMARK                            x       y       z     vdW  Elec       q    Type
REMARK                         _______ _______ _______ _____ _____    ______ ____
ROOT
ATOM      1  C   UNL     1       7.874  -3.675  25.351  0.00  0.00    +0.260 C 
ATOM      2  O   UNL     1       7.325  -2.405  24.955  0.00  0.00    -0.345 OA
ATOM      3  C   UNL     1       8.337  -1.694  24.204  0.00  0.00    +0.178 C 
ATOM      4  C   UNL     1       9.596  -2.570  24.196  0.00  0.00    +0.184 C 
ATOM      5  C   UNL     1       9.056  -3.968  24.438  0.00  0.00    +0.246 C 
ATOM      6  F   UNL     1       9.981  -4.716  25.096  0.00  0.00    -0.238 F 
ENDROOT
BRANCH   1  15
ATOM      7  C   UNL     1       3.965  -5.807  23.155  0.00  0.00    +0.051 C 
ATOM      8  C   UNL     1       4.946  -5.677  24.276  0.00  0.00    +0.030 A 
ATOM      9  C   UNL     1       4.857  -6.666  25.375  0.00  0.00    +0.257 A 
ATOM     10  O   UNL     1       4.045  -7.584  25.361  0.00  0.00    -0.267 OA
ATOM     11  N   UNL     1       5.741  -6.493  26.399  0.00  0.00    -0.275 N 
ATOM     12  H   UNL     1       5.702  -7.166  27.148  0.00  0.00    +0.173 HD
ATOM     13  C   UNL     1       6.755  -5.572  26.446  0.00  0.00    +0.331 A 
ATOM     14  O   UNL     1       7.545  -5.582  27.389  0.00  0.00    -0.246 OA
ATOM     15  N   UNL     1       6.810  -4.681  25.385  0.00  0.00    -0.271 N 
ATOM     16  C   UNL     1       5.901  -4.742  24.345  0.00  0.00    +0.102 A 
ENDBRANCH   1  15
BRANCH   4  17
ATOM     17  O   UNL     1      10.381  -2.464  23.014  0.00  0.00    -0.386 OA
ATOM     18  H   UNL     1      11.063  -1.778  23.172  0.00  0.00    +0.210 HD
ENDBRANCH   4  17
BRANCH   3  19
ATOM     19  C   UNL     1       7.795  -1.333  22.818  0.00  0.00    +0.190 C 
BRANCH  19  20
ATOM     20  O   UNL     1       6.369  -1.325  22.812  0.00  0.00    -0.392 OA
ATOM     21  H   UNL     1       6.087  -0.475  22.402  0.00  0.00    +0.210 HD
ENDBRANCH  19  20
ENDBRANCH   3  19
TORSDOF 4
ENDMDL
MODEL 6
REMARK VINA RESULT:      -5.9      1.657      1.945
REMARK  Name = 
REMARK  5 active torsions:
REMARK  status: ('A' for Active; 'I' for Inactive)
REMARK    1  A    between atoms: C_1  and  C_2
REMARK    2  A    between atoms: N_4  and  C_10
REMARK    3  A    between atoms: C_14  and  O_21
REMARK    4  A    between atoms: C_16  and  C_19
REMARK    5  A    between atoms: C_19  and  O_20
REMARK                            x       y       z     vdW  Elec       q    Type
REMARK                         _______ _______ _______ _____ _____    ______ ____
ROOT
ATOM      1  C   UNL     1       9.600  -1.650  23.399  0.00  0.00    +0.260 C 
ATOM      2  O   UNL     1      10.212  -0.738  24.329  0.00  0.00    -0.345 OA
ATOM      3  C   UNL     1      10.497   0.494  23.627  0.00  0.00    +0.178 C 
ATOM      4  C   UNL     1      10.080   0.291  22.164  0.00  0.00    +0.184 C 
ATOM      5  C   UNL     1       9.054  -0.826  22.241  0.00  0.00    +0.246 C 
ATOM      6  F   UNL     1       9.077  -1.557  21.095  0.00  0.00    -0.238 F 
ENDROOT
BRANCH   1  15
ATOM      7  C   UNL     1       4.955  -2.416  24.975  0.00  0.00    +0.051 C 
ATOM      8  C   UNL     1       6.386  -2.822  24.826  0.00  0.00    +0.030 A 
ATOM      9  C   UNL     1       6.771  -4.158  25.336  0.00  0.00    +0.257 A 
ATOM     10  O   UNL     1       5.953  -4.928  25.827  0.00  0.00    -0.267 OA
ATOM     11  N   UNL     1       8.091  -4.478  25.219  0.00  0.00    -0.275 N 
ATOM     12  H   UNL     1       8.366  -5.389  25.550  0.00  0.00    +0.173 HD
ATOM     13  C   UNL     1       9.051  -3.734  24.584  0.00  0.00    +0.331 A 
ATOM     14  O   UNL     1      10.191  -4.182  24.466  0.00  0.00    -0.246 OA
ATOM     15  N   UNL     1       8.639  -2.500  24.105  0.00  0.00    -0.271 N 
ATOM     16  C   UNL     1       7.334  -2.069  24.253  0.00  0.00    +0.102 A 
ENDBRANCH   1  15
BRANCH   4  17
ATOM     17  O   UNL     1       9.592   1.462  21.521  0.00  0.00    -0.386 OA
ATOM     18  H   UNL     1      10.075   2.229  21.897  0.00  0.00    +0.210 HD
ENDBRANCH   4  17
BRANCH   3  19
ATOM     19  C   UNL     1       9.809   1.665  24.335  0.00  0.00    +0.190 C 
BRANCH  19  20
ATOM     20  O   UNL     1       9.096   1.218  25.486  0.00  0.00    -0.392 OA
ATOM     21  H   UNL     1       8.884   0.266  25.342  0.00  0.00    +0.210 HD
ENDBRANCH  19  20
ENDBRANCH   3  19
TORSDOF 4
ENDMDL
MODEL 7
REMARK VINA RESULT:      -5.8      2.664      3.916
REMARK  Name = 
REMARK  5 active torsions:
REMARK  status: ('A' for Active; 'I' for Inactive)
REMARK    1  A    between atoms: C_1  and  C_2
REMARK    2  A    between atoms: N_4  and  C_10
REMARK    3  A    between atoms: C_14  and  O_21
REMARK    4  A    between atoms: C_16  and  C_19
REMARK    5  A    between atoms: C_19  and  O_20
REMARK                            x       y       z     vdW  Elec       q    Type
REMARK                         _______ _______ _______ _____ _____    ______ ____
ROOT
ATOM      1  C   UNL     1       9.129   0.290  24.422  0.00  0.00    +0.260 C 
ATOM      2  O   UNL     1       7.992   1.011  23.915  0.00  0.00    -0.345 OA
ATOM      3  C   UNL     1       8.464   2.261  23.360  0.00  0.00    +0.178 C 
ATOM      4  C   UNL     1       9.978   2.320  23.599  0.00  0.00    +0.184 C 
ATOM      5  C   UNL     1      10.370   0.862  23.751  0.00  0.00    +0.246 C 
ATOM      6  F   UNL     1      11.443   0.753  24.580  0.00  0.00    -0.238 F 
ENDROOT
BRANCH   1  15
ATOM      7  C   UNL     1       8.454  -4.159  26.520  0.00  0.00    +0.051 C 
ATOM      8  C   UNL     1       8.573  -3.260  25.331  0.00  0.00    +0.030 A 
ATOM      9  C   UNL     1       8.363  -3.867  23.996  0.00  0.00    +0.257 A 
ATOM     10  O   UNL     1       8.063  -5.047  23.857  0.00  0.00    -0.267 OA
ATOM     11  N   UNL     1       8.519  -3.027  22.933  0.00  0.00    -0.275 N 
ATOM     12  H   UNL     1       8.366  -3.421  22.019  0.00  0.00    +0.173 HD
ATOM     13  C   UNL     1       8.737  -1.675  22.996  0.00  0.00    +0.331 A 
ATOM     14  O   UNL     1       8.765  -1.013  21.958  0.00  0.00    -0.246 OA
ATOM     15  N   UNL     1       8.908  -1.150  24.267  0.00  0.00    -0.271 N 
ATOM     16  C   UNL     1       8.842  -1.950  25.392  0.00  0.00    +0.102 A 
ENDBRANCH   1  15
BRANCH   4  17
ATOM     17  O   UNL     1      10.709   2.999  22.585  0.00  0.00    -0.386 OA
ATOM     18  H   UNL     1      10.695   2.436  21.783  0.00  0.00    +0.210 HD
ENDBRANCH   4  17
BRANCH   3  19
ATOM     19  C   UNL     1       8.039   2.369  21.893  0.00  0.00    +0.190 C 
BRANCH  19  20
ATOM     20  O   UNL     1       8.872   1.566  21.059  0.00  0.00    -0.392 OA
ATOM     21  H   UNL     1       9.092   0.752  21.569  0.00  0.00    +0.210 HD
ENDBRANCH  19  20
ENDBRANCH   3  19
TORSDOF 4
ENDMDL
MODEL 8
REMARK VINA RESULT:      -5.8      2.477      3.921
REMARK  Name = 
REMARK  5 active torsions:
REMARK  status: ('A' for Active; 'I' for Inactive)
REMARK    1  A    between atoms: C_1  and  C_2
REMARK    2  A    between atoms: N_4  and  C_10
REMARK    3  A    between atoms: C_14  and  O_21
REMARK    4  A    between atoms: C_16  and  C_19
REMARK    5  A    between atoms: C_19  and  O_20
REMARK                            x       y       z     vdW  Elec       q    Type
REMARK                         _______ _______ _______ _____ _____    ______ ____
ROOT
ATOM      1  C   UNL     1       9.012   0.575  24.436  0.00  0.00    +0.260 C 
ATOM      2  O   UNL     1       7.905   1.309  23.881  0.00  0.00    -0.345 OA
ATOM      3  C   UNL     1       8.438   2.330  23.006  0.00  0.00    +0.178 C 
ATOM      4  C   UNL     1       9.968   2.242  23.084  0.00  0.00    +0.184 C 
ATOM      5  C   UNL     1      10.217   0.815  23.538  0.00  0.00    +0.246 C 
ATOM      6  F   UNL     1      11.363   0.753  24.268  0.00  0.00    -0.238 F 
ENDROOT
BRANCH   1  15
ATOM      7  C   UNL     1       7.475  -3.742  22.526  0.00  0.00    +0.051 C 
ATOM      8  C   UNL     1       7.896  -2.876  23.670  0.00  0.00    +0.030 A 
ATOM      9  C   UNL     1       7.993  -3.510  25.005  0.00  0.00    +0.257 A 
ATOM     10  O   UNL     1       7.779  -4.704  25.175  0.00  0.00    -0.267 OA
ATOM     11  N   UNL     1       8.340  -2.681  26.030  0.00  0.00    -0.275 N 
ATOM     12  H   UNL     1       8.423  -3.100  26.942  0.00  0.00    +0.173 HD
ATOM     13  C   UNL     1       8.708  -1.365  25.917  0.00  0.00    +0.331 A 
ATOM     14  O   UNL     1       9.092  -0.751  26.913  0.00  0.00    -0.246 OA
ATOM     15  N   UNL     1       8.621  -0.821  24.645  0.00  0.00    -0.271 N 
ATOM     16  C   UNL     1       8.202  -1.576  23.566  0.00  0.00    +0.102 A 
ENDBRANCH   1  15
BRANCH   4  17
ATOM     17  O   UNL     1      10.640   2.576  21.876  0.00  0.00    -0.386 OA
ATOM     18  H   UNL     1      10.382   3.491  21.637  0.00  0.00    +0.210 HD
ENDBRANCH   4  17
BRANCH   3  19
ATOM     19  C   UNL     1       7.855   2.164  21.600  0.00  0.00    +0.190 C 
BRANCH  19  20
ATOM     20  O   UNL     1       8.568   1.172  20.865  0.00  0.00    -0.392 OA
ATOM     21  H   UNL     1       8.131   1.095  19.985  0.00  0.00    +0.210 HD
ENDBRANCH  19  20
ENDBRANCH   3  19
TORSDOF 4
ENDMDL
MODEL 9
REMARK VINA RESULT:      -5.8      4.211      7.372
REMARK  Name = 
REMARK  5 active torsions:
REMARK  status: ('A' for Active; 'I' for Inactive)
REMARK    1  A    between atoms: C_1  and  C_2
REMARK    2  A    between atoms: N_4  and  C_10
REMARK    3  A    between atoms: C_14  and  O_21
REMARK    4  A    between atoms: C_16  and  C_19
REMARK    5  A    between atoms: C_19  and  O_20
REMARK                            x       y       z     vdW  Elec       q    Type
REMARK                         _______ _______ _______ _____ _____    ______ ____
ROOT
ATOM      1  C   UNL     1       8.506   1.320  22.891  0.00  0.00    +0.260 C 
ATOM      2  O   UNL     1       8.514   0.389  23.988  0.00  0.00    -0.345 OA
ATOM      3  C   UNL     1       8.805  -0.926  23.459  0.00  0.00    +0.178 C 
ATOM      4  C   UNL     1       8.924  -0.786  21.935  0.00  0.00    +0.184 C 
ATOM      5  C   UNL     1       9.270   0.679  21.741  0.00  0.00    +0.246 C 
ATOM      6  F   UNL     1       8.779   1.118  20.551  0.00  0.00    -0.238 F 
ENDROOT
BRANCH   1  15
ATOM      7  C   UNL     1      12.243   4.558  23.326  0.00  0.00    +0.051 C 
ATOM      8  C   UNL     1      10.818   4.148  23.518  0.00  0.00    +0.030 A 
ATOM      9  C   UNL     1       9.894   5.147  24.102  0.00  0.00    +0.257 A 
ATOM     10  O   UNL     1      10.258   6.283  24.385  0.00  0.00    -0.267 OA
ATOM     11  N   UNL     1       8.613   4.725  24.300  0.00  0.00    -0.275 N 
ATOM     12  H   UNL     1       7.969   5.397  24.684  0.00  0.00    +0.173 HD
ATOM     13  C   UNL     1       8.090   3.519  23.910  0.00  0.00    +0.331 A 
ATOM     14  O   UNL     1       6.889   3.297  24.063  0.00  0.00    -0.246 OA
ATOM     15  N   UNL     1       8.988   2.624  23.349  0.00  0.00    -0.271 N 
ATOM     16  C   UNL     1      10.322   2.949  23.186  0.00  0.00    +0.102 A 
ENDBRANCH   1  15
BRANCH   4  17
ATOM     17  O   UNL     1       9.858  -1.672  21.332  0.00  0.00    -0.386 OA
ATOM     18  H   UNL     1       9.365  -2.466  21.037  0.00  0.00    +0.210 HD
ENDBRANCH   4  17
BRANCH   3  19
ATOM     19  C   UNL     1      10.045  -1.500  24.150  0.00  0.00    +0.190 C 
BRANCH  19  20
ATOM     20  O   UNL     1      10.193  -2.889  23.865  0.00  0.00    -0.392 OA
ATOM     21  H   UNL     1      10.994  -2.984  23.300  0.00  0.00    +0.210 HD
ENDBRANCH  19  20
ENDBRANCH   3  19
TORSDOF 4
ENDMDL
