MODEL 1
REMARK VINA RESULT:      -5.9      0.000      0.000
REMARK  Name = 
REMARK  6 active torsions:
REMARK  status: ('A' for Active; 'I' for Inactive)
REMARK    1  A    between atoms: C6_3  and  N6_22
REMARK    2  A    between atoms: N9_7  and  C1*_10
REMARK    3  A    between atoms: C2*_12  and  O2*_21
REMARK    4  A    between atoms: C3*_13  and  O3*_20
REMARK    5  A    between atoms: C4*_15  and  C5*_18
REMARK    6  A    between atoms: C5*_18  and  O5*_19
REMARK                            x       y       z     vdW  Elec       q    Type
REMARK                         _______ _______ _______ _____ _____    ______ ____
ROOT
ATOM      1  C2    A A   1       5.834  -3.418  21.470  0.00  0.00    +0.225 A 
ATOM      2  N3    A A   1       6.771  -2.651  22.077  0.00  0.00    -0.216 NA
ATOM      3  C4    A A   1       7.566  -3.404  22.860  0.00  0.00    +0.167 A 
ATOM      4  N9    A A   1       8.647  -3.024  23.610  0.00  0.00    -0.286 N 
ATOM      5  C8    A A   1       9.092  -4.139  24.281  0.00  0.00    +0.203 A 
ATOM      6  N7    A A   1       8.405  -5.215  23.976  0.00  0.00    -0.231 NA
ATOM      7  C5    A A   1       7.458  -4.774  23.078  0.00  0.00    +0.147 A 
ATOM      8  C6    A A   1       6.433  -5.455  22.395  0.00  0.00    +0.147 A 
ATOM      9  N1    A A   1       5.615  -4.747  21.590  0.00  0.00    -0.219 NA
ENDROOT
BRANCH   4  10
ATOM     10  C1*   A A   1       9.233  -1.718  23.774  0.00  0.00    +0.253 C 
ATOM     11  O4*   A A   1       8.245  -0.778  24.241  0.00  0.00    -0.346 OA
ATOM     12  C4*   A A   1       8.729   0.547  23.901  0.00  0.00    +0.177 C 
ATOM     13  C3*   A A   1      10.048   0.361  23.131  0.00  0.00    +0.178 C 
ATOM     14  C2*   A A   1       9.959  -1.064  22.594  0.00  0.00    +0.195 C 
BRANCH  13  15
ATOM     15  O3*   A A   1      10.298   1.329  22.129  0.00  0.00    -0.386 OA
ATOM     16  H3*   A A   1      11.172   1.107  21.743  0.00  0.00    +0.210 HD
ENDBRANCH  13  15
BRANCH  14  17
ATOM     17  O2*   A A   1       9.281  -1.058  21.339  0.00  0.00    -0.385 OA
ATOM     18  H2*   A A   1       9.825  -0.571  20.682  0.00  0.00    +0.210 HD
ENDBRANCH  14  17
BRANCH  12  19
ATOM     19  C5*   A A   1       7.617   1.289  23.160  0.00  0.00    +0.190 C 
BRANCH  19  20
ATOM     20  O5*   A A   1       6.709   0.362  22.562  0.00  0.00    -0.392 OA
ATOM     21  H5*   A A   1       6.330   0.818  21.783  0.00  0.00    +0.210 HD
ENDBRANCH  19  20
ENDBRANCH  12  19
ENDBRANCH   4  10
BRANCH   8  22
ATOM     22  N6    A A   1       6.221  -6.820  22.531  0.00  0.00    -0.341 N 
ATOM     23  H61   A A   1       5.897  -7.091  23.456  0.00  0.00    +0.144 HD
ATOM     24  H62   A A   1       5.751  -7.223  21.728  0.00  0.00    +0.144 HD
ENDBRANCH   8  22
TORSDOF 6
ENDMDL
MODEL 2
REMARK VINA RESULT:      -5.9      3.171      5.775
REMARK  Name = 
REMARK  6 active torsions:
REMARK  status: ('A' for Active; 'I' for Inactive)
REMARK    1  A    between atoms: C6_3  and  N6_22
REMARK    2  A    between atoms: N9_7  and  C1*_10
REMARK    3  A    between atoms: C2*_12  and  O2*_21
REMARK    4  A    between atoms: C3*_13  and  O3*_20
REMARK    5  A    between atoms: C4*_15  and  C5*_18
REMARK    6  A    between atoms: C5*_18  and  O5*_19
REMARK                            x       y       z     vdW  Elec       q    Type
REMARK                         _______ _______ _______ _____ _____    ______ ____
ROOT
ATOM      1  C2    A A   1       6.843   1.494  23.435  0.00  0.00    +0.225 A 
ATOM      2  N3    A A   1       6.645   0.156  23.506  0.00  0.00    -0.216 NA
ATOM      3  C4    A A   1       7.644  -0.505  22.891  0.00  0.00    +0.167 A 
ATOM      4  N9    A A   1       7.839  -1.855  22.772  0.00  0.00    -0.286 N 
ATOM      5  C8    A A   1       8.968  -2.040  22.008  0.00  0.00    +0.203 A 
ATOM      6  N7    A A   1       9.537  -0.905  21.673  0.00  0.00    -0.231 NA
ATOM      7  C5    A A   1       8.730   0.062  22.232  0.00  0.00    +0.147 A 
ATOM      8  C6    A A   1       8.815   1.466  22.221  0.00  0.00    +0.147 A 
ATOM      9  N1    A A   1       7.842   2.175  22.830  0.00  0.00    -0.219 NA
ENDROOT
BRANCH   4  10
ATOM     10  C1*   A A   1       7.032  -2.943  23.262  0.00  0.00    +0.253 C 
ATOM     11  O4*   A A   1       7.689  -4.204  23.026  0.00  0.00    -0.346 OA
ATOM     12  C4*   A A   1       6.663  -5.229  23.057  0.00  0.00    +0.177 C 
ATOM     13  C3*   A A   1       5.317  -4.511  23.258  0.00  0.00    +0.178 C 
ATOM     14  C2*   A A   1       5.586  -3.088  22.778  0.00  0.00    +0.195 C 
BRANCH  13  15
ATOM     15  O3*   A A   1       4.210  -5.123  22.622  0.00  0.00    -0.386 OA
ATOM     16  H3*   A A   1       3.594  -4.399  22.383  0.00  0.00    +0.210 HD
ENDBRANCH  13  15
BRANCH  14  17
ATOM     17  O2*   A A   1       5.364  -3.012  21.370  0.00  0.00    -0.385 OA
ATOM     18  H2*   A A   1       5.783  -3.787  20.936  0.00  0.00    +0.210 HD
ENDBRANCH  14  17
BRANCH  12  19
ATOM     19  C5*   A A   1       6.790  -6.074  21.791  0.00  0.00    +0.190 C 
BRANCH  19  20
ATOM     20  O5*   A A   1       6.084  -5.464  20.708  0.00  0.00    -0.392 OA
ATOM     21  H5*   A A   1       6.286  -6.003  19.916  0.00  0.00    +0.210 HD
ENDBRANCH  19  20
ENDBRANCH  12  19
ENDBRANCH   4  10
BRANCH   8  22
ATOM     22  N6    A A   1       9.848   2.149  21.593  0.00  0.00    -0.341 N 
ATOM     23  H61   A A   1      10.669   1.576  21.421  0.00  0.00    +0.144 HD
ATOM     24  H62   A A   1       9.520   2.745  20.840  0.00  0.00    +0.144 HD
ENDBRANCH   8  22
TORSDOF 6
ENDMDL
MODEL 3
REMARK VINA RESULT:      -5.8      3.191      5.824
REMARK  Name = 
REMARK  6 active torsions:
REMARK  status: ('A' for Active; 'I' for Inactive)
REMARK    1  A    between atoms: C6_3  and  N6_22
REMARK    2  A    between atoms: N9_7  and  C1*_10
REMARK    3  A    between atoms: C2*_12  and  O2*_21
REMARK    4  A    between atoms: C3*_13  and  O3*_20
REMARK    5  A    between atoms: C4*_15  and  C5*_18
REMARK    6  A    between atoms: C5*_18  and  O5*_19
REMARK                            x       y       z     vdW  Elec       q    Type
REMARK                         _______ _______ _______ _____ _____    ______ ____
ROOT
ATOM      1  C2    A A   1      10.702   0.954  24.745  0.00  0.00    +0.225 A 
ATOM      2  N3    A A   1      10.296  -0.324  24.943  0.00  0.00    -0.216 NA
ATOM      3  C4    A A   1       9.717  -0.815  23.831  0.00  0.00    +0.167 A 
ATOM      4  N9    A A   1       9.210  -2.067  23.604  0.00  0.00    -0.286 N 
ATOM      5  C8    A A   1       8.673  -2.068  22.338  0.00  0.00    +0.203 A 
ATOM      6  N7    A A   1       8.844  -0.922  21.721  0.00  0.00    -0.231 NA
ATOM      7  C5    A A   1       9.509  -0.135  22.635  0.00  0.00    +0.147 A 
ATOM      8  C6    A A   1       9.968   1.193  22.562  0.00  0.00    +0.147 A 
ATOM      9  N1    A A   1      10.564   1.729  23.646  0.00  0.00    -0.219 NA
ENDROOT
BRANCH   4  10
ATOM     10  C1*   A A   1       9.151  -3.203  24.487  0.00  0.00    +0.253 C 
ATOM     11  O4*   A A   1       8.394  -4.272  23.884  0.00  0.00    -0.346 OA
ATOM     12  C4*   A A   1       7.946  -5.134  24.960  0.00  0.00    +0.177 C 
ATOM     13  C3*   A A   1       8.416  -4.491  26.277  0.00  0.00    +0.178 C 
ATOM     14  C2*   A A   1       8.622  -3.023  25.914  0.00  0.00    +0.195 C 
BRANCH  13  15
ATOM     15  O3*   A A   1       7.551  -4.685  27.381  0.00  0.00    -0.386 OA
ATOM     16  H3*   A A   1       7.006  -3.873  27.450  0.00  0.00    +0.210 HD
ENDBRANCH  13  15
BRANCH  14  17
ATOM     17  O2*   A A   1       7.389  -2.319  26.063  0.00  0.00    -0.385 OA
ATOM     18  H2*   A A   1       7.293  -1.681  25.323  0.00  0.00    +0.210 HD
ENDBRANCH  14  17
BRANCH  12  19
ATOM     19  C5*   A A   1       6.439  -5.341  24.814  0.00  0.00    +0.190 C 
BRANCH  19  20
ATOM     20  O5*   A A   1       5.758  -4.084  24.820  0.00  0.00    -0.392 OA
ATOM     21  H5*   A A   1       6.145  -3.570  25.559  0.00  0.00    +0.210 HD
ENDBRANCH  19  20
ENDBRANCH  12  19
ENDBRANCH   4  10
BRANCH   8  22
ATOM     22  N6    A A   1       9.817   1.976  21.426  0.00  0.00    -0.341 N 
ATOM     23  H61   A A   1       9.535   1.449  20.603  0.00  0.00    +0.144 HD
ATOM     24  H62   A A   1       9.337   2.849  21.615  0.00  0.00    +0.144 HD
ENDBRANCH   8  22
TORSDOF 6
ENDMDL
MODEL 4
REMARK VINA RESULT:      -5.8      3.312      5.781
REMARK  Name = 
REMARK  6 active torsions:
REMARK  status: ('A' for Active; 'I' for Inactive)
REMARK    1  A    between atoms: C6_3  and  N6_22
REMARK    2  A    between atoms: N9_7  and  C1*_10
REMARK    3  A    between atoms: C2*_12  and  O2*_21
REMARK    4  A    between atoms: C3*_13  and  O3*_20
REMARK    5  A    between atoms: C4*_15  and  C5*_18
REMARK    6  A    between atoms: C5*_18  and  O5*_19
REMARK                            x       y       z     vdW  Elec       q    Type
REMARK                         _______ _______ _______ _____ _____    ______ ____
ROOT
ATOM      1  C2    A A   1       9.730  -0.434  21.883  0.00  0.00    +0.225 A 
ATOM      2  N3    A A   1       8.812  -1.428  21.949  0.00  0.00    -0.216 NA
ATOM      3  C4    A A   1       8.501  -1.701  23.231  0.00  0.00    +0.167 A 
ATOM      4  N9    A A   1       7.598  -2.604  23.724  0.00  0.00    -0.286 N 
ATOM      5  C8    A A   1       7.680  -2.557  25.096  0.00  0.00    +0.203 A 
ATOM      6  N7    A A   1       8.535  -1.654  25.516  0.00  0.00    -0.231 NA
ATOM      7  C5    A A   1       9.044  -1.100  24.362  0.00  0.00    +0.147 A 
ATOM      8  C6    A A   1       9.997  -0.086  24.157  0.00  0.00    +0.147 A 
ATOM      9  N1    A A   1      10.338   0.231  22.891  0.00  0.00    -0.219 NA
ENDROOT
BRANCH   4  10
ATOM     10  C1*   A A   1       6.734  -3.514  23.016  0.00  0.00    +0.253 C 
ATOM     11  O4*   A A   1       5.646  -3.938  23.862  0.00  0.00    -0.346 OA
ATOM     12  C4*   A A   1       5.141  -5.181  23.312  0.00  0.00    +0.177 C 
ATOM     13  C3*   A A   1       6.033  -5.536  22.110  0.00  0.00    +0.178 C 
ATOM     14  C2*   A A   1       7.328  -4.774  22.377  0.00  0.00    +0.195 C 
BRANCH  13  15
ATOM     15  O3*   A A   1       6.226  -6.922  21.895  0.00  0.00    -0.386 OA
ATOM     16  H3*   A A   1       5.980  -7.368  22.732  0.00  0.00    +0.210 HD
ENDBRANCH  13  15
BRANCH  14  17
ATOM     17  O2*   A A   1       8.188  -5.570  23.192  0.00  0.00    -0.385 OA
ATOM     18  H2*   A A   1       7.653  -6.255  23.649  0.00  0.00    +0.210 HD
ENDBRANCH  14  17
BRANCH  12  19
ATOM     19  C5*   A A   1       5.085  -6.216  24.435  0.00  0.00    +0.190 C 
BRANCH  19  20
ATOM     20  O5*   A A   1       4.413  -7.398  23.994  0.00  0.00    -0.392 OA
ATOM     21  H5*   A A   1       4.917  -8.150  24.365  0.00  0.00    +0.210 HD
ENDBRANCH  19  20
ENDBRANCH  12  19
ENDBRANCH   4  10
BRANCH   8  22
ATOM     22  N6    A A   1      10.613   0.587  25.204  0.00  0.00    -0.341 N 
ATOM     23  H61   A A   1      10.572   0.086  26.088  0.00  0.00    +0.144 HD
ATOM     24  H62   A A   1      11.499   1.000  24.934  0.00  0.00    +0.144 HD
ENDBRANCH   8  22
TORSDOF 6
ENDMDL
MODEL 5
REMARK VINA RESULT:      -5.7      3.240      5.612
REMARK  Name = 
REMARK  6 active torsions:
REMARK  status: ('A' for Active; 'I' for Inactive)
REMARK    1  A    between atoms: C6_3  and  N6_22
REMARK    2  A    between atoms: N9_7  and  C1*_10
REMARK    3  A    between atoms: C2*_12  and  O2*_21
REMARK    4  A    between atoms: C3*_13  and  O3*_20
REMARK    5  A    between atoms: C4*_15  and  C5*_18
REMARK    6  A    between atoms: C5*_18  and  O5*_19
REMARK                            x       y       z     vdW  Elec       q    Type
REMARK                         _______ _______ _______ _____ _____    ______ ____
ROOT
ATOM      1  C2    A A   1       6.901   1.388  22.460  0.00  0.00    +0.225 A 
ATOM      2  N3    A A   1       6.924   0.242  23.181  0.00  0.00    -0.216 NA
ATOM      3  C4    A A   1       8.191  -0.169  23.378  0.00  0.00    +0.167 A 
ATOM      4  N9    A A   1       8.646  -1.253  24.081  0.00  0.00    -0.286 N 
ATOM      5  C8    A A   1      10.014  -1.285  23.943  0.00  0.00    +0.203 A 
ATOM      6  N7    A A   1      10.471  -0.272  23.244  0.00  0.00    -0.231 NA
ATOM      7  C5    A A   1       9.345   0.442  22.898  0.00  0.00    +0.147 A 
ATOM      8  C6    A A   1       9.184   1.624  22.151  0.00  0.00    +0.147 A 
ATOM      9  N1    A A   1       7.935   2.082  21.933  0.00  0.00    -0.219 NA
ENDROOT
BRANCH   4  10
ATOM     10  C1*   A A   1       7.902  -2.254  24.801  0.00  0.00    +0.253 C 
ATOM     11  O4*   A A   1       8.765  -2.966  25.711  0.00  0.00    -0.346 OA
ATOM     12  C4*   A A   1       8.120  -4.232  26.002  0.00  0.00    +0.177 C 
ATOM     13  C3*   A A   1       6.835  -4.288  25.158  0.00  0.00    +0.178 C 
ATOM     14  C2*   A A   1       7.101  -3.303  24.023  0.00  0.00    +0.195 C 
BRANCH  13  15
ATOM     15  O3*   A A   1       6.466  -5.580  24.711  0.00  0.00    -0.386 OA
ATOM     16  H3*   A A   1       6.915  -6.216  25.305  0.00  0.00    +0.210 HD
ENDBRANCH  13  15
BRANCH  14  17
ATOM     17  O2*   A A   1       7.774  -3.974  22.959  0.00  0.00    -0.385 OA
ATOM     18  H2*   A A   1       7.201  -4.698  22.623  0.00  0.00    +0.210 HD
ENDBRANCH  14  17
BRANCH  12  19
ATOM     19  C5*   A A   1       9.131  -5.353  25.760  0.00  0.00    +0.190 C 
BRANCH  19  20
ATOM     20  O5*   A A   1      10.064  -4.975  24.745  0.00  0.00    -0.392 OA
ATOM     21  H5*   A A   1      10.280  -4.035  24.913  0.00  0.00    +0.210 HD
ENDBRANCH  19  20
ENDBRANCH  12  19
ENDBRANCH   4  10
BRANCH   8  22
ATOM     22  N6    A A   1      10.257   2.324  21.616  0.00  0.00    -0.341 N 
ATOM     23  H61   A A   1      10.439   3.208  22.084  0.00  0.00    +0.144 HD
ATOM     24  H62   A A   1      11.050   1.725  21.411  0.00  0.00    +0.144 HD
ENDBRANCH   8  22
TORSDOF 6
ENDMDL
MODEL 6
REMARK VINA RESULT:      -5.7      2.711      3.469
REMARK  Name = 
REMARK  6 active torsions:
REMARK  status: ('A' for Active; 'I' for Inactive)
REMARK    1  A    between atoms: C6_3  and  N6_22
REMARK    2  A    between atoms: N9_7  and  C1*_10
REMARK    3  A    between atoms: C2*_12  and  O2*_21
REMARK    4  A    between atoms: C3*_13  and  O3*_20
REMARK    5  A    between atoms: C4*_15  and  C5*_18
REMARK    6  A    between atoms: C5*_18  and  O5*_19
REMARK                            x       y       z     vdW  Elec       q    Type
REMARK                         _______ _______ _______ _____ _____    ______ ____
ROOT
ATOM      1  C2    A A   1       7.289  -3.912  26.892  0.00  0.00    +0.225 A 
ATOM      2  N3    A A   1       7.326  -2.699  26.289  0.00  0.00    -0.216 NA
ATOM      3  C4    A A   1       8.275  -2.673  25.335  0.00  0.00    +0.167 A 
ATOM      4  N9    A A   1       8.607  -1.658  24.478  0.00  0.00    -0.286 N 
ATOM      5  C8    A A   1       9.678  -2.088  23.730  0.00  0.00    +0.203 A 
ATOM      6  N7    A A   1      10.023  -3.322  24.012  0.00  0.00    -0.231 NA
ATOM      7  C5    A A   1       9.145  -3.706  25.002  0.00  0.00    +0.147 A 
ATOM      8  C6    A A   1       9.011  -4.914  25.711  0.00  0.00    +0.147 A 
ATOM      9  N1    A A   1       8.068  -4.995  26.673  0.00  0.00    -0.219 NA
ENDROOT
BRANCH   4  10
ATOM     10  C1*   A A   1       8.040  -0.339  24.359  0.00  0.00    +0.253 C 
ATOM     11  O4*   A A   1       8.035   0.085  22.981  0.00  0.00    -0.346 OA
ATOM     12  C4*   A A   1       7.950   1.533  22.983  0.00  0.00    +0.177 C 
ATOM     13  C3*   A A   1       7.974   1.982  24.455  0.00  0.00    +0.178 C 
ATOM     14  C2*   A A   1       8.626   0.811  25.184  0.00  0.00    +0.195 C 
BRANCH  13  15
ATOM     15  O3*   A A   1       8.612   3.223  24.693  0.00  0.00    -0.386 OA
ATOM     16  H3*   A A   1       9.013   3.496  23.841  0.00  0.00    +0.210 HD
ENDBRANCH  13  15
BRANCH  14  17
ATOM     17  O2*   A A   1      10.044   0.968  25.162  0.00  0.00    -0.385 OA
ATOM     18  H2*   A A   1      10.271   1.759  24.627  0.00  0.00    +0.210 HD
ENDBRANCH  14  17
BRANCH  12  19
ATOM     19  C5*   A A   1       9.067   2.081  22.096  0.00  0.00    +0.190 C 
BRANCH  19  20
ATOM     20  O5*   A A   1      10.164   1.166  22.049  0.00  0.00    -0.392 OA
ATOM     21  H5*   A A   1      10.022   0.535  22.784  0.00  0.00    +0.210 HD
ENDBRANCH  19  20
ENDBRANCH  12  19
ENDBRANCH   4  10
BRANCH   8  22
ATOM     22  N6    A A   1       9.821  -6.016  25.474  0.00  0.00    -0.341 N 
ATOM     23  H61   A A   1       9.370  -6.904  25.680  0.00  0.00    +0.144 HD
ATOM     24  H62   A A   1      10.339  -5.939  24.605  0.00  0.00    +0.144 HD
ENDBRANCH   8  22
TORSDOF 6
ENDMDL
MODEL 7
REMARK VINA RESULT:      -5.6      3.783      6.349
REMARK  Name = 
REMARK  6 active torsions:
REMARK  status: ('A' for Active; 'I' for Inactive)
REMARK    1  A    between atoms: C6_3  and  N6_22
REMARK    2  A    between atoms: N9_7  and  C1*_10
REMARK    3  A    between atoms: C2*_12  and  O2*_21
REMARK    4  A    between atoms: C3*_13  and  O3*_20
REMARK    5  A    between atoms: C4*_15  and  C5*_18
REMARK    6  A    between atoms: C5*_18  and  O5*_19
REMARK                            x       y       z     vdW  Elec       q    Type
REMARK                         _______ _______ _______ _____ _____    ______ ____
ROOT
ATOM      1  C2    A A   1       8.930  -4.812  24.922  0.00  0.00    +0.225 A 
ATOM      2  N3    A A   1       7.598  -4.927  24.707  0.00  0.00    -0.216 NA
ATOM      3  C4    A A   1       7.157  -3.933  23.914  0.00  0.00    +0.167 A 
ATOM      4  N9    A A   1       5.894  -3.709  23.433  0.00  0.00    -0.286 N 
ATOM      5  C8    A A   1       5.931  -2.536  22.716  0.00  0.00    +0.203 A 
ATOM      6  N7    A A   1       7.137  -2.020  22.662  0.00  0.00    -0.231 NA
ATOM      7  C5    A A   1       7.917  -2.890  23.393  0.00  0.00    +0.147 A 
ATOM      8  C6    A A   1       9.289  -2.878  23.699  0.00  0.00    +0.147 A 
ATOM      9  N1    A A   1       9.783  -3.858  24.484  0.00  0.00    -0.219 NA
ENDROOT
BRANCH   4  10
ATOM     10  C1*   A A   1       4.689  -4.468  23.642  0.00  0.00    +0.253 C 
ATOM     11  O4*   A A   1       4.471  -4.692  25.050  0.00  0.00    -0.346 OA
ATOM     12  C4*   A A   1       3.590  -5.838  25.165  0.00  0.00    +0.177 C 
ATOM     13  C3*   A A   1       3.331  -6.353  23.739  0.00  0.00    +0.178 C 
ATOM     14  C2*   A A   1       4.514  -5.817  22.937  0.00  0.00    +0.195 C 
BRANCH  13  15
ATOM     15  O3*   A A   1       3.160  -7.754  23.627  0.00  0.00    -0.386 OA
ATOM     16  H3*   A A   1       4.012  -8.110  23.299  0.00  0.00    +0.210 HD
ENDBRANCH  13  15
BRANCH  14  17
ATOM     17  O2*   A A   1       5.602  -6.738  23.022  0.00  0.00    -0.385 OA
ATOM     18  H2*   A A   1       6.446  -6.248  22.917  0.00  0.00    +0.210 HD
ENDBRANCH  14  17
BRANCH  12  19
ATOM     19  C5*   A A   1       4.223  -6.836  26.134  0.00  0.00    +0.190 C 
BRANCH  19  20
ATOM     20  O5*   A A   1       5.640  -6.653  26.186  0.00  0.00    -0.392 OA
ATOM     21  H5*   A A   1       5.992  -7.412  26.694  0.00  0.00    +0.210 HD
ENDBRANCH  19  20
ENDBRANCH  12  19
ENDBRANCH   4  10
BRANCH   8  22
ATOM     22  N6    A A   1      10.151  -1.890  23.242  0.00  0.00    -0.341 N 
ATOM     23  H61   A A   1       9.871  -0.951  23.511  0.00  0.00    +0.144 HD
ATOM     24  H62   A A   1      11.127  -2.143  23.351  0.00  0.00    +0.144 HD
ENDBRANCH   8  22
TORSDOF 6
ENDMDL
MODEL 8
REMARK VINA RESULT:      -5.6      2.821      3.211
REMARK  Name = 
REMARK  6 active torsions:
REMARK  status: ('A' for Active; 'I' for Inactive)
REMARK    1  A    between atoms: C6_3  and  N6_22
REMARK    2  A    between atoms: N9_7  and  C1*_10
REMARK    3  A    between atoms: C2*_12  and  O2*_21
REMARK    4  A    between atoms: C3*_13  and  O3*_20
REMARK    5  A    between atoms: C4*_15  and  C5*_18
REMARK    6  A    between atoms: C5*_18  and  O5*_19
REMARK                            x       y       z     vdW  Elec       q    Type
REMARK                         _______ _______ _______ _____ _____    ______ ____
ROOT
ATOM      1  C2    A A   1       6.980  -1.373  26.427  0.00  0.00    +0.225 A 
ATOM      2  N3    A A   1       7.843  -0.849  25.523  0.00  0.00    -0.216 NA
ATOM      3  C4    A A   1       8.614  -1.815  24.990  0.00  0.00    +0.167 A 
ATOM      4  N9    A A   1       9.578  -1.712  24.022  0.00  0.00    -0.286 N 
ATOM      5  C8    A A   1      10.127  -2.963  23.857  0.00  0.00    +0.203 A 
ATOM      6  N7    A A   1       9.549  -3.867  24.612  0.00  0.00    -0.231 NA
ATOM      7  C5    A A   1       8.592  -3.168  25.314  0.00  0.00    +0.147 A 
ATOM      8  C6    A A   1       7.655  -3.583  26.278  0.00  0.00    +0.147 A 
ATOM      9  N1    A A   1       6.852  -2.655  26.837  0.00  0.00    -0.219 NA
ENDROOT
BRANCH   4  10
ATOM     10  C1*   A A   1      10.038  -0.548  23.310  0.00  0.00    +0.253 C 
ATOM     11  O4*   A A   1      10.429   0.487  24.234  0.00  0.00    -0.346 OA
ATOM     12  C4*   A A   1      10.383   1.742  23.509  0.00  0.00    +0.177 C 
ATOM     13  C3*   A A   1       9.872   1.425  22.093  0.00  0.00    +0.178 C 
ATOM     14  C2*   A A   1       9.131   0.101  22.260  0.00  0.00    +0.195 C 
BRANCH  13  15
ATOM     15  O3*   A A   1       9.086   2.441  21.497  0.00  0.00    -0.386 OA
ATOM     16  H3*   A A   1       9.716   3.085  21.109  0.00  0.00    +0.210 HD
ENDBRANCH  13  15
BRANCH  14  17
ATOM     17  O2*   A A   1       7.780   0.358  22.641  0.00  0.00    -0.385 OA
ATOM     18  H2*   A A   1       7.192  -0.295  22.200  0.00  0.00    +0.210 HD
ENDBRANCH  14  17
BRANCH  12  19
ATOM     19  C5*   A A   1       9.549   2.735  24.317  0.00  0.00    +0.190 C 
BRANCH  19  20
ATOM     20  O5*   A A   1       8.698   2.044  25.234  0.00  0.00    -0.392 OA
ATOM     21  H5*   A A   1       9.117   2.134  26.113  0.00  0.00    +0.210 HD
ENDBRANCH  19  20
ENDBRANCH  12  19
ENDBRANCH   4  10
BRANCH   8  22
ATOM     22  N6    A A   1       7.537  -4.904  26.689  0.00  0.00    -0.341 N 
ATOM     23  H61   A A   1       7.134  -5.515  25.982  0.00  0.00    +0.144 HD
ATOM     24  H62   A A   1       8.358  -5.232  27.185  0.00  0.00    +0.144 HD
ENDBRANCH   8  22
TORSDOF 6
ENDMDL
MODEL 9
REMARK VINA RESULT:      -5.6      2.988      5.570
REMARK  Name = 
REMARK  6 active torsions:
REMARK  status: ('A' for Active; 'I' for Inactive)
REMARK    1  A    between atoms: C6_3  and  N6_22
REMARK    2  A    between atoms: N9_7  and  C1*_10
REMARK    3  A    between atoms: C2*_12  and  O2*_21
REMARK    4  A    between atoms: C3*_13  and  O3*_20
REMARK    5  A    between atoms: C4*_15  and  C5*_18
REMARK    6  A    between atoms: C5*_18  and  O5*_19
REMARK                            x       y       z     vdW  Elec       q    Type
REMARK                         _______ _______ _______ _____ _____    ______ ____
ROOT
ATOM      1  C2    A A   1       9.474  -0.933  21.830  0.00  0.00    +0.225 A 
ATOM      2  N3    A A   1       8.630  -1.810  22.425  0.00  0.00    -0.216 NA
ATOM      3  C4    A A   1       8.607  -1.616  23.757  0.00  0.00    +0.167 A 
ATOM      4  N9    A A   1       7.864  -2.262  24.709  0.00  0.00    -0.286 N 
ATOM      5  C8    A A   1       8.232  -1.751  25.932  0.00  0.00    +0.203 A 
ATOM      6  N7    A A   1       9.121  -0.790  25.826  0.00  0.00    -0.231 NA
ATOM      7  C5    A A   1       9.353  -0.684  24.472  0.00  0.00    +0.147 A 
ATOM      8  C6    A A   1      10.201   0.163  23.736  0.00  0.00    +0.147 A 
ATOM      9  N1    A A   1      10.255   0.015  22.397  0.00  0.00    -0.219 NA
ENDROOT
BRANCH   4  10
ATOM     10  C1*   A A   1       6.907  -3.327  24.555  0.00  0.00    +0.253 C 
ATOM     11  O4*   A A   1       7.511  -4.456  23.892  0.00  0.00    -0.346 OA
ATOM     12  C4*   A A   1       6.432  -5.242  23.325  0.00  0.00    +0.177 C 
ATOM     13  C3*   A A   1       5.123  -4.488  23.620  0.00  0.00    +0.178 C 
ATOM     14  C2*   A A   1       5.575  -3.048  23.851  0.00  0.00    +0.195 C 
BRANCH  13  15
ATOM     15  O3*   A A   1       4.121  -4.614  22.628  0.00  0.00    -0.386 OA
ATOM     16  H3*   A A   1       3.822  -5.546  22.655  0.00  0.00    +0.210 HD
ENDBRANCH  13  15
BRANCH  14  17
ATOM     17  O2*   A A   1       5.634  -2.363  22.601  0.00  0.00    -0.385 OA
ATOM     18  H2*   A A   1       6.168  -2.892  21.969  0.00  0.00    +0.210 HD
ENDBRANCH  14  17
BRANCH  12  19
ATOM     19  C5*   A A   1       6.744  -5.493  21.850  0.00  0.00    +0.190 C 
BRANCH  19  20
ATOM     20  O5*   A A   1       5.790  -6.393  21.283  0.00  0.00    -0.392 OA
ATOM     21  H5*   A A   1       6.176  -7.288  21.372  0.00  0.00    +0.210 HD
ENDBRANCH  19  20
ENDBRANCH  12  19
ENDBRANCH   4  10
BRANCH   8  22
ATOM     22  N6    A A   1      10.997   1.130  24.335  0.00  0.00    -0.341 N 
ATOM     23  H61   A A   1      11.910   1.232  23.898  0.00  0.00    +0.144 HD
ATOM     24  H62   A A   1      10.483   1.975  24.558  0.00  0.00    +0.144 HD
ENDBRANCH   8  22
TORSDOF 6
ENDMDL
