MODEL 1
REMARK VINA RESULT:      -6.5      0.000      0.000
REMARK  Name = 
REMARK  21 active torsions:
REMARK  status: ('A' for Active; 'I' for Inactive)
REMARK    1  A    between atoms: C_1  and  C_2
REMARK    2  A    between atoms: C_2  and  C_3
REMARK    3  A    between atoms: C_2  and  C_4
REMARK    4  A    between atoms: C_2  and  C_5
REMARK    5  A    between atoms: C_5  and  C_7
REMARK    6  A    between atoms: C_5  and  N_47
REMARK    7  A    between atoms: C_11  and  O_33
REMARK    8  A    between atoms: C_14  and  C_16
REMARK    9  A    between atoms: N_18  and  C_19
REMARK   10  A    between atoms: C_19  and  C_24
REMARK   11  A    between atoms: C_21  and  C_22
REMARK   12  A    between atoms: N_26  and  S_27
REMARK   13  A    between atoms: S_27  and  C_30
REMARK   14  A    between atoms: O_33  and  C_34
REMARK   15  A    between atoms: C_37  and  O_45
REMARK   16  A    between atoms: O_45  and  C_46
REMARK   17  A    between atoms: C_48  and  O_50
REMARK   18  A    between atoms: O_50  and  C_51
REMARK   19  A    between atoms: C_51  and  C_52
REMARK   20  A    between atoms: C_51  and  C_53
REMARK   21  A    between atoms: C_51  and  C_54
REMARK                            x       y       z     vdW  Elec       q    Type
REMARK                         _______ _______ _______ _____ _____    ______ ____
ROOT
ATOM      1  C   UNL     1       9.349   0.148  24.822  0.00  0.00    +0.237 C 
ATOM      2  N   UNL     1       8.469  -0.213  25.836  0.00  0.00    -0.285 N 
ATOM      3  C   UNL     1       7.007  -0.256  25.729  0.00  0.00    +0.166 C 
ATOM      4  C   UNL     1       6.572  -1.439  26.612  0.00  0.00    +0.078 C 
ATOM      5  C   UNL     1       7.851  -2.203  26.970  0.00  0.00    +0.195 C 
ATOM      6  C   UNL     1       8.931  -1.133  26.873  0.00  0.00    +0.153 C 
ATOM      7  O   UNL     1      10.527  -0.213  24.893  0.00  0.00    -0.274 OA
ENDROOT
BRANCH   3   8
ATOM      8  C   UNL     1       6.253   0.980  26.256  0.00  0.00    +0.234 C 
ATOM      9  N   UNL     1       6.990   1.848  27.039  0.00  0.00    -0.299 N 
ATOM     10  H   UNL     1       7.999   1.757  27.082  0.00  0.00    +0.150 HD
ATOM     11  O   UNL     1       5.024   1.067  26.193  0.00  0.00    -0.274 OA
BRANCH   9  12
ATOM     12  C   UNL     1       6.322   2.782  27.927  0.00  0.00    +0.119 C 
ATOM     13  C   UNL     1       5.618   2.341  29.214  0.00  0.00    +0.046 C 
ATOM     14  C   UNL     1       6.962   2.981  29.286  0.00  0.00    +0.046 C 
BRANCH  12  15
ATOM     15  C   UNL     1       5.636   3.943  27.240  0.00  0.00    +0.256 C 
ATOM     16  N   UNL     1       5.561   3.874  25.845  0.00  0.00    -0.188 N 
ATOM     17  H   UNL     1       5.670   2.959  25.401  0.00  0.00    +0.176 HD
ATOM     18  O   UNL     1       5.193   4.866  27.902  0.00  0.00    -0.272 OA
BRANCH  16  19
ATOM     19  S   UNL     1       4.734   4.995  24.934  0.00  0.00    +0.048 S 
ATOM     20  O   UNL     1       5.535   6.199  24.901  0.00  0.00    -0.155 OA
ATOM     21  O   UNL     1       3.381   5.020  25.448  0.00  0.00    -0.155 OA
BRANCH  19  22
ATOM     22  C   UNL     1       4.670   4.379  23.220  0.00  0.00    +0.151 C 
ATOM     23  C   UNL     1       5.249   3.019  22.949  0.00  0.00    +0.030 C 
ATOM     24  C   UNL     1       6.033   4.251  22.586  0.00  0.00    +0.030 C 
ENDBRANCH  19  22
ENDBRANCH  16  19
ENDBRANCH  12  15
BRANCH  13  25
ATOM     25  C   UNL     1       5.482   0.927  29.565  0.00  0.00    -0.028 C 
ATOM     26  C   UNL     1       4.320   0.269  29.651  0.00  0.00    +0.004 C 
ENDBRANCH  13  25
ENDBRANCH   9  12
ENDBRANCH   3   8
BRANCH   1  27
ATOM     27  C   UNL     1       8.834   1.030  23.638  0.00  0.00    +0.168 C 
BRANCH  27  29
ATOM     28  C   UNL     1       8.318   1.288  21.162  0.00  0.00    +0.013 C 
ATOM     29  C   UNL     1       8.766   0.286  22.252  0.00  0.00    -0.011 C 
ATOM     30  C   UNL     1      10.149  -0.234  21.784  0.00  0.00    +0.013 C 
ATOM     31  C   UNL     1       7.843  -0.949  22.304  0.00  0.00    +0.013 C 
ENDBRANCH  27  29
BRANCH  27  32
ATOM     32  N   UNL     1       9.671   2.231  23.586  0.00  0.00    -0.269 N 
ATOM     33  H   UNL     1      10.395   2.314  22.885  0.00  0.00    +0.153 HD
ATOM     34  C   UNL     1       9.295   3.375  24.236  0.00  0.00    +0.401 C 
ATOM     35  O   UNL     1       8.346   3.419  24.996  0.00  0.00    -0.226 OA
BRANCH  34  36
ATOM     36  O   UNL     1      10.095   4.406  23.889  0.00  0.00    -0.445 OA
BRANCH  36  37
ATOM     37  C   UNL     1       9.736   5.745  24.328  0.00  0.00    +0.107 C 
ATOM     38  C   UNL     1       8.914   6.465  23.253  0.00  0.00    +0.055 C 
ATOM     39  C   UNL     1      11.070   6.493  24.495  0.00  0.00    +0.055 C 
ATOM     40  C   UNL     1       8.998   5.739  25.676  0.00  0.00    +0.055 C 
ENDBRANCH  36  37
ENDBRANCH  34  36
ENDBRANCH  27  32
ENDBRANCH   1  27
BRANCH   5  41
ATOM     41  O   UNL     1       8.122  -3.247  26.021  0.00  0.00    -0.471 OA
BRANCH  41  42
ATOM     42  C   UNL     1       7.280  -4.336  26.195  0.00  0.00    +0.223 A 
ATOM     43  C   UNL     1       6.517  -4.756  25.096  0.00  0.00    +0.049 A 
ATOM     44  C   UNL     1       6.680  -4.235  23.793  0.00  0.00    +0.034 A 
ATOM     45  C   UNL     1       5.834  -4.629  22.761  0.00  0.00    +0.042 A 
ATOM     46 CL   UNL     1       6.031  -3.960  21.188  0.00  0.00    -0.084 Cl
ATOM     47  C   UNL     1       4.819  -5.547  23.000  0.00  0.00    +0.021 A 
ATOM     48  C   UNL     1       4.666  -6.092  24.276  0.00  0.00    +0.014 A 
ATOM     49  C   UNL     1       5.508  -5.719  25.345  0.00  0.00    +0.030 A 
ATOM     50  C   UNL     1       5.360  -6.243  26.649  0.00  0.00    +0.146 A 
ATOM     51  C   UNL     1       6.221  -5.781  27.637  0.00  0.00    +0.160 A 
ATOM     52  N   UNL     1       7.169  -4.844  27.441  0.00  0.00    -0.217 NA
BRANCH  50  53
ATOM     53  O   UNL     1       4.367  -7.167  26.844  0.00  0.00    -0.493 OA
ATOM     54  C   UNL     1       3.177  -6.716  27.483  0.00  0.00    +0.277 C 
ENDBRANCH  50  53
ENDBRANCH  41  42
ENDBRANCH   5  41
TORSDOF 14
ENDMDL
MODEL 2
REMARK VINA RESULT:      -6.4      1.531      1.875
REMARK  Name = 
REMARK  21 active torsions:
REMARK  status: ('A' for Active; 'I' for Inactive)
REMARK    1  A    between atoms: C_1  and  C_2
REMARK    2  A    between atoms: C_2  and  C_3
REMARK    3  A    between atoms: C_2  and  C_4
REMARK    4  A    between atoms: C_2  and  C_5
REMARK    5  A    between atoms: C_5  and  C_7
REMARK    6  A    between atoms: C_5  and  N_47
REMARK    7  A    between atoms: C_11  and  O_33
REMARK    8  A    between atoms: C_14  and  C_16
REMARK    9  A    between atoms: N_18  and  C_19
REMARK   10  A    between atoms: C_19  and  C_24
REMARK   11  A    between atoms: C_21  and  C_22
REMARK   12  A    between atoms: N_26  and  S_27
REMARK   13  A    between atoms: S_27  and  C_30
REMARK   14  A    between atoms: O_33  and  C_34
REMARK   15  A    between atoms: C_37  and  O_45
REMARK   16  A    between atoms: O_45  and  C_46
REMARK   17  A    between atoms: C_48  and  O_50
REMARK   18  A    between atoms: O_50  and  C_51
REMARK   19  A    between atoms: C_51  and  C_52
REMARK   20  A    between atoms: C_51  and  C_53
REMARK   21  A    between atoms: C_51  and  C_54
REMARK                            x       y       z     vdW  Elec       q    Type
REMARK                         _______ _______ _______ _____ _____    ______ ____
ROOT
ATOM      1  C   UNL     1       9.148   0.449  25.032  0.00  0.00    +0.237 C 
ATOM      2  N   UNL     1       8.215   0.028  25.972  0.00  0.00    -0.285 N 
ATOM      3  C   UNL     1       6.763  -0.032  25.774  0.00  0.00    +0.166 C 
ATOM      4  C   UNL     1       6.297  -1.261  26.574  0.00  0.00    +0.078 C 
ATOM      5  C   UNL     1       7.566  -2.022  26.974  0.00  0.00    +0.195 C 
ATOM      6  C   UNL     1       8.630  -0.932  26.993  0.00  0.00    +0.153 C 
ATOM      7  O   UNL     1      10.326   0.104  25.158  0.00  0.00    -0.274 OA
ENDROOT
BRANCH   3   8
ATOM      8  C   UNL     1       5.957   1.166  26.310  0.00  0.00    +0.234 C 
ATOM      9  N   UNL     1       4.583   1.070  26.193  0.00  0.00    -0.299 N 
ATOM     10  H   UNL     1       4.157   0.182  25.951  0.00  0.00    +0.150 HD
ATOM     11  O   UNL     1       6.498   2.237  26.596  0.00  0.00    -0.274 OA
BRANCH   9  12
ATOM     12  C   UNL     1       3.757   2.263  26.251  0.00  0.00    +0.119 C 
ATOM     13  C   UNL     1       2.442   2.322  27.034  0.00  0.00    +0.046 C 
ATOM     14  C   UNL     1       3.671   2.948  27.599  0.00  0.00    +0.046 C 
BRANCH  12  15
ATOM     15  C   UNL     1       3.732   3.088  24.982  0.00  0.00    +0.256 C 
ATOM     16  N   UNL     1       4.479   4.270  25.003  0.00  0.00    -0.188 N 
ATOM     17  H   UNL     1       5.219   4.360  25.703  0.00  0.00    +0.176 HD
ATOM     18  O   UNL     1       3.082   2.708  24.023  0.00  0.00    -0.272 OA
BRANCH  16  19
ATOM     19  S   UNL     1       4.669   5.236  23.661  0.00  0.00    +0.048 S 
ATOM     20  O   UNL     1       5.119   4.387  22.579  0.00  0.00    -0.155 OA
ATOM     21  O   UNL     1       5.458   6.374  24.086  0.00  0.00    -0.155 OA
BRANCH  19  22
ATOM     22  C   UNL     1       3.022   5.847  23.178  0.00  0.00    +0.151 C 
ATOM     23  C   UNL     1       2.529   5.502  21.802  0.00  0.00    +0.030 C 
ATOM     24  C   UNL     1       3.073   6.877  22.076  0.00  0.00    +0.030 C 
ENDBRANCH  19  22
ENDBRANCH  16  19
ENDBRANCH  12  15
BRANCH  13  25
ATOM     25  C   UNL     1       1.886   1.135  27.684  0.00  0.00    -0.028 C 
ATOM     26  C   UNL     1       0.792   0.481  27.273  0.00  0.00    +0.004 C 
ENDBRANCH  13  25
ENDBRANCH   9  12
ENDBRANCH   3   8
BRANCH   1  27
ATOM     27  C   UNL     1       8.690   1.378  23.860  0.00  0.00    +0.168 C 
BRANCH  27  29
ATOM     28  C   UNL     1       7.925   1.586  21.444  0.00  0.00    +0.013 C 
ATOM     29  C   UNL     1       8.699   0.693  22.442  0.00  0.00    -0.011 C 
ATOM     30  C   UNL     1      10.126   0.561  21.851  0.00  0.00    +0.013 C 
ATOM     31  C   UNL     1       8.125  -0.739  22.489  0.00  0.00    +0.013 C 
ENDBRANCH  27  29
BRANCH  27  32
ATOM     32  N   UNL     1       9.521   2.584  23.902  0.00  0.00    -0.269 N 
ATOM     33  H   UNL     1      10.461   2.564  23.532  0.00  0.00    +0.153 HD
ATOM     34  C   UNL     1       8.960   3.813  24.122  0.00  0.00    +0.401 C 
ATOM     35  O   UNL     1       7.793   3.958  24.434  0.00  0.00    -0.226 OA
BRANCH  34  36
ATOM     36  O   UNL     1       9.865   4.793  23.916  0.00  0.00    -0.445 OA
BRANCH  36  37
ATOM     37  C   UNL     1       9.647   6.086  24.546  0.00  0.00    +0.107 C 
ATOM     38  C   UNL     1       8.829   7.004  23.631  0.00  0.00    +0.055 C 
ATOM     39  C   UNL     1      11.047   6.701  24.715  0.00  0.00    +0.055 C 
ATOM     40  C   UNL     1       8.991   5.958  25.929  0.00  0.00    +0.055 C 
ENDBRANCH  36  37
ENDBRANCH  34  36
ENDBRANCH  27  32
ENDBRANCH   1  27
BRANCH   5  41
ATOM     41  O   UNL     1       7.913  -3.016  25.997  0.00  0.00    -0.471 OA
BRANCH  41  42
ATOM     42  C   UNL     1       7.145  -4.165  26.132  0.00  0.00    +0.223 A 
ATOM     43  C   UNL     1       6.424  -4.606  25.013  0.00  0.00    +0.049 A 
ATOM     44  C   UNL     1       6.563  -4.039  23.726  0.00  0.00    +0.034 A 
ATOM     45  C   UNL     1       5.756  -4.462  22.674  0.00  0.00    +0.042 A 
ATOM     46 CL   UNL     1       5.923  -3.738  21.122  0.00  0.00    -0.084 Cl
ATOM     47  C   UNL     1       4.805  -5.453  22.876  0.00  0.00    +0.021 A 
ATOM     48  C   UNL     1       4.677  -6.042  24.136  0.00  0.00    +0.014 A 
ATOM     49  C   UNL     1       5.481  -5.641  25.225  0.00  0.00    +0.030 A 
ATOM     50  C   UNL     1       5.356  -6.210  26.513  0.00  0.00    +0.146 A 
ATOM     51  C   UNL     1       6.173  -5.717  27.522  0.00  0.00    +0.160 A 
ATOM     52  N   UNL     1       7.057  -4.712  27.362  0.00  0.00    -0.217 NA
BRANCH  50  53
ATOM     53  O   UNL     1       4.427  -7.205  26.671  0.00  0.00    -0.493 OA
ATOM     54  C   UNL     1       3.263  -6.890  27.428  0.00  0.00    +0.277 C 
ENDBRANCH  50  53
ENDBRANCH  41  42
ENDBRANCH   5  41
TORSDOF 14
ENDMDL
MODEL 3
REMARK VINA RESULT:      -6.4      3.274      9.515
REMARK  Name = 
REMARK  21 active torsions:
REMARK  status: ('A' for Active; 'I' for Inactive)
REMARK    1  A    between atoms: C_1  and  C_2
REMARK    2  A    between atoms: C_2  and  C_3
REMARK    3  A    between atoms: C_2  and  C_4
REMARK    4  A    between atoms: C_2  and  C_5
REMARK    5  A    between atoms: C_5  and  C_7
REMARK    6  A    between atoms: C_5  and  N_47
REMARK    7  A    between atoms: C_11  and  O_33
REMARK    8  A    between atoms: C_14  and  C_16
REMARK    9  A    between atoms: N_18  and  C_19
REMARK   10  A    between atoms: C_19  and  C_24
REMARK   11  A    between atoms: C_21  and  C_22
REMARK   12  A    between atoms: N_26  and  S_27
REMARK   13  A    between atoms: S_27  and  C_30
REMARK   14  A    between atoms: O_33  and  C_34
REMARK   15  A    between atoms: C_37  and  O_45
REMARK   16  A    between atoms: O_45  and  C_46
REMARK   17  A    between atoms: C_48  and  O_50
REMARK   18  A    between atoms: O_50  and  C_51
REMARK   19  A    between atoms: C_51  and  C_52
REMARK   20  A    between atoms: C_51  and  C_53
REMARK   21  A    between atoms: C_51  and  C_54
REMARK                            x       y       z     vdW  Elec       q    Type
REMARK                         _______ _______ _______ _____ _____    ______ ____
ROOT
ATOM      1  C   UNL     1       5.797  -0.161  27.366  0.00  0.00    +0.237 C 
ATOM      2  N   UNL     1       6.541   0.248  26.266  0.00  0.00    -0.285 N 
ATOM      3  C   UNL     1       6.118   0.166  24.864  0.00  0.00    +0.166 C 
ATOM      4  C   UNL     1       6.725   1.407  24.186  0.00  0.00    +0.078 C 
ATOM      5  C   UNL     1       7.245   2.304  25.314  0.00  0.00    +0.195 C 
ATOM      6  C   UNL     1       7.524   1.316  26.439  0.00  0.00    +0.153 C 
ATOM      7  O   UNL     1       6.071   0.294  28.480  0.00  0.00    -0.274 OA
ENDROOT
BRANCH   3   8
ATOM      8  C   UNL     1       6.629  -1.054  24.073  0.00  0.00    +0.234 C 
ATOM      9  N   UNL     1       7.914  -1.469  24.366  0.00  0.00    -0.299 N 
ATOM     10  H   UNL     1       8.389  -1.103  25.184  0.00  0.00    +0.150 HD
ATOM     11  O   UNL     1       6.034  -1.479  23.079  0.00  0.00    -0.274 OA
BRANCH   9  12
ATOM     12  C   UNL     1       8.652  -2.294  23.426  0.00  0.00    +0.119 C 
ATOM     13  C   UNL     1       9.261  -1.736  22.136  0.00  0.00    +0.046 C 
ATOM     14  C   UNL     1      10.135  -2.009  23.313  0.00  0.00    +0.046 C 
BRANCH  12  15
ATOM     15  C   UNL     1       8.142  -3.712  23.281  0.00  0.00    +0.256 C 
ATOM     16  N   UNL     1       7.163  -3.917  22.304  0.00  0.00    -0.188 N 
ATOM     17  H   UNL     1       7.071  -3.220  21.560  0.00  0.00    +0.176 HD
ATOM     18  O   UNL     1       8.586  -4.593  23.998  0.00  0.00    -0.272 OA
BRANCH  16  19
ATOM     19  S   UNL     1       6.579  -5.427  21.920  0.00  0.00    +0.048 S 
ATOM     20  O   UNL     1       7.689  -6.351  22.000  0.00  0.00    -0.155 OA
ATOM     21  O   UNL     1       5.831  -5.274  20.689  0.00  0.00    -0.155 OA
BRANCH  19  22
ATOM     22  C   UNL     1       5.410  -5.921  23.227  0.00  0.00    +0.151 C 
ATOM     23  C   UNL     1       3.954  -5.998  22.862  0.00  0.00    +0.030 C 
ATOM     24  C   UNL     1       4.470  -4.810  23.629  0.00  0.00    +0.030 C 
ENDBRANCH  19  22
ENDBRANCH  16  19
ENDBRANCH  12  15
BRANCH  13  25
ATOM     25  C   UNL     1       9.037  -0.352  21.722  0.00  0.00    -0.028 C 
ATOM     26  C   UNL     1       9.864   0.668  21.982  0.00  0.00    +0.004 C 
ENDBRANCH  13  25
ENDBRANCH   9  12
ENDBRANCH   3   8
BRANCH   1  27
ATOM     27  C   UNL     1       4.656  -1.213  27.171  0.00  0.00    +0.168 C 
BRANCH  27  29
ATOM     28  C   UNL     1       2.162  -1.625  26.899  0.00  0.00    +0.013 C 
ATOM     29  C   UNL     1       3.216  -0.690  27.536  0.00  0.00    -0.011 C 
ATOM     30  C   UNL     1       2.934  -0.734  29.060  0.00  0.00    +0.013 C 
ATOM     31  C   UNL     1       3.010   0.778  27.108  0.00  0.00    +0.013 C 
ENDBRANCH  27  29
BRANCH  27  32
ATOM     32  N   UNL     1       5.025  -2.409  27.932  0.00  0.00    -0.269 N 
ATOM     33  H   UNL     1       4.613  -2.579  28.839  0.00  0.00    +0.153 HD
ATOM     34  C   UNL     1       5.650  -3.462  27.321  0.00  0.00    +0.401 C 
ATOM     35  O   UNL     1       6.058  -3.411  26.176  0.00  0.00    -0.226 OA
BRANCH  34  36
ATOM     36  O   UNL     1       5.708  -4.527  28.148  0.00  0.00    -0.445 OA
BRANCH  36  37
ATOM     37  C   UNL     1       4.745  -5.603  27.970  0.00  0.00    +0.107 C 
ATOM     38  C   UNL     1       3.354  -5.038  27.662  0.00  0.00    +0.055 C 
ATOM     39  C   UNL     1       4.681  -6.325  29.327  0.00  0.00    +0.055 C 
ATOM     40  C   UNL     1       5.185  -6.607  26.893  0.00  0.00    +0.055 C 
ENDBRANCH  36  37
ENDBRANCH  34  36
ENDBRANCH  27  32
ENDBRANCH   1  27
BRANCH   5  41
ATOM     41  O   UNL     1       6.248   3.247  25.738  0.00  0.00    -0.471 OA
BRANCH  41  42
ATOM     42  C   UNL     1       5.601   3.836  24.661  0.00  0.00    +0.223 A 
ATOM     43  C   UNL     1       6.317   4.770  23.898  0.00  0.00    +0.049 A 
ATOM     44  C   UNL     1       7.698   5.019  24.070  0.00  0.00    +0.034 A 
ATOM     45  C   UNL     1       8.333   6.020  23.342  0.00  0.00    +0.042 A 
ATOM     46 CL   UNL     1      10.008   6.325  23.588  0.00  0.00    -0.084 Cl
ATOM     47  C   UNL     1       7.617   6.785  22.431  0.00  0.00    +0.021 A 
ATOM     48  C   UNL     1       6.259   6.530  22.229  0.00  0.00    +0.014 A 
ATOM     49  C   UNL     1       5.582   5.520  22.947  0.00  0.00    +0.030 A 
ATOM     50  C   UNL     1       4.205   5.256  22.774  0.00  0.00    +0.146 A 
ATOM     51  C   UNL     1       3.630   4.263  23.556  0.00  0.00    +0.160 A 
ATOM     52  N   UNL     1       4.293   3.554  24.492  0.00  0.00    -0.217 NA
BRANCH  50  53
ATOM     53  O   UNL     1       3.534   6.010  21.846  0.00  0.00    -0.493 OA
ATOM     54  C   UNL     1       2.285   5.509  21.382  0.00  0.00    +0.277 C 
ENDBRANCH  50  53
ENDBRANCH  41  42
ENDBRANCH   5  41
TORSDOF 14
ENDMDL
MODEL 4
REMARK VINA RESULT:      -6.3      1.641      3.210
REMARK  Name = 
REMARK  21 active torsions:
REMARK  status: ('A' for Active; 'I' for Inactive)
REMARK    1  A    between atoms: C_1  and  C_2
REMARK    2  A    between atoms: C_2  and  C_3
REMARK    3  A    between atoms: C_2  and  C_4
REMARK    4  A    between atoms: C_2  and  C_5
REMARK    5  A    between atoms: C_5  and  C_7
REMARK    6  A    between atoms: C_5  and  N_47
REMARK    7  A    between atoms: C_11  and  O_33
REMARK    8  A    between atoms: C_14  and  C_16
REMARK    9  A    between atoms: N_18  and  C_19
REMARK   10  A    between atoms: C_19  and  C_24
REMARK   11  A    between atoms: C_21  and  C_22
REMARK   12  A    between atoms: N_26  and  S_27
REMARK   13  A    between atoms: S_27  and  C_30
REMARK   14  A    between atoms: O_33  and  C_34
REMARK   15  A    between atoms: C_37  and  O_45
REMARK   16  A    between atoms: O_45  and  C_46
REMARK   17  A    between atoms: C_48  and  O_50
REMARK   18  A    between atoms: O_50  and  C_51
REMARK   19  A    between atoms: C_51  and  C_52
REMARK   20  A    between atoms: C_51  and  C_53
REMARK   21  A    between atoms: C_51  and  C_54
REMARK                            x       y       z     vdW  Elec       q    Type
REMARK                         _______ _______ _______ _____ _____    ______ ____
ROOT
ATOM      1  C   UNL     1       9.446   0.414  25.007  0.00  0.00    +0.237 C 
ATOM      2  N   UNL     1       8.336   0.148  25.799  0.00  0.00    -0.285 N 
ATOM      3  C   UNL     1       6.937   0.193  25.360  0.00  0.00    +0.166 C 
ATOM      4  C   UNL     1       6.231  -0.926  26.146  0.00  0.00    +0.078 C 
ATOM      5  C   UNL     1       7.338  -1.756  26.803  0.00  0.00    +0.195 C 
ATOM      6  C   UNL     1       8.484  -0.761  26.934  0.00  0.00    +0.153 C 
ATOM      7  O   UNL     1      10.549  -0.017  25.353  0.00  0.00    -0.274 OA
ENDROOT
BRANCH   3   8
ATOM      8  C   UNL     1       6.171   1.493  25.674  0.00  0.00    +0.234 C 
ATOM      9  N   UNL     1       6.493   2.587  24.893  0.00  0.00    -0.299 N 
ATOM     10  H   UNL     1       7.050   2.463  24.055  0.00  0.00    +0.150 HD
ATOM     11  O   UNL     1       5.501   1.620  26.702  0.00  0.00    -0.274 OA
BRANCH   9  12
ATOM     12  C   UNL     1       6.183   3.930  25.348  0.00  0.00    +0.119 C 
ATOM     13  C   UNL     1       5.993   5.107  24.386  0.00  0.00    +0.046 C 
ATOM     14  C   UNL     1       4.803   4.449  24.999  0.00  0.00    +0.046 C 
BRANCH  12  15
ATOM     15  C   UNL     1       6.830   4.329  26.658  0.00  0.00    +0.256 C 
ATOM     16  N   UNL     1       6.005   4.296  27.786  0.00  0.00    -0.188 N 
ATOM     17  H   UNL     1       5.152   3.732  27.743  0.00  0.00    +0.176 HD
ATOM     18  O   UNL     1       8.004   4.657  26.680  0.00  0.00    -0.272 OA
BRANCH  16  19
ATOM     19  S   UNL     1       6.575   4.580  29.324  0.00  0.00    +0.048 S 
ATOM     20  O   UNL     1       6.916   5.983  29.405  0.00  0.00    -0.155 OA
ATOM     21  O   UNL     1       7.570   3.560  29.585  0.00  0.00    -0.155 OA
BRANCH  19  22
ATOM     22  C   UNL     1       5.194   4.322  30.484  0.00  0.00    +0.151 C 
ATOM     23  C   UNL     1       4.045   3.474  30.018  0.00  0.00    +0.030 C 
ATOM     24  C   UNL     1       3.910   4.973  30.030  0.00  0.00    +0.030 C 
ENDBRANCH  19  22
ENDBRANCH  16  19
ENDBRANCH  12  15
BRANCH  13  25
ATOM     25  C   UNL     1       6.224   4.964  22.949  0.00  0.00    -0.028 C 
ATOM     26  C   UNL     1       7.008   5.764  22.217  0.00  0.00    +0.004 C 
ENDBRANCH  13  25
ENDBRANCH   9  12
ENDBRANCH   3   8
BRANCH   1  27
ATOM     27  C   UNL     1       9.276   1.284  23.717  0.00  0.00    +0.168 C 
BRANCH  27  29
ATOM     28  C   UNL     1       8.573   1.443  21.279  0.00  0.00    +0.013 C 
ATOM     29  C   UNL     1       8.947   0.462  22.415  0.00  0.00    -0.011 C 
ATOM     30  C   UNL     1      10.168  -0.332  21.884  0.00  0.00    +0.013 C 
ATOM     31  C   UNL     1       7.835  -0.581  22.656  0.00  0.00    +0.013 C 
ENDBRANCH  27  29
BRANCH  27  32
ATOM     32  N   UNL     1      10.486   2.097  23.572  0.00  0.00    -0.269 N 
ATOM     33  H   UNL     1      11.279   1.738  23.059  0.00  0.00    +0.153 HD
ATOM     34  C   UNL     1      10.457   3.443  23.820  0.00  0.00    +0.401 C 
ATOM     35  O   UNL     1       9.492   4.003  24.305  0.00  0.00    -0.226 OA
BRANCH  34  36
ATOM     36  O   UNL     1      11.611   4.024  23.429  0.00  0.00    -0.445 OA
BRANCH  36  37
ATOM     37  C   UNL     1      11.694   5.476  23.427  0.00  0.00    +0.107 C 
ATOM     38  C   UNL     1      10.339   6.096  23.068  0.00  0.00    +0.055 C 
ATOM     39  C   UNL     1      12.694   5.828  22.311  0.00  0.00    +0.055 C 
ATOM     40  C   UNL     1      12.221   6.033  24.758  0.00  0.00    +0.055 C 
ENDBRANCH  36  37
ENDBRANCH  34  36
ENDBRANCH  27  32
ENDBRANCH   1  27
BRANCH   5  41
ATOM     41  O   UNL     1       7.744  -2.849  25.964  0.00  0.00    -0.471 OA
BRANCH  41  42
ATOM     42  C   UNL     1       7.041  -4.012  26.252  0.00  0.00    +0.223 A 
ATOM     43  C   UNL     1       6.442  -4.695  25.184  0.00  0.00    +0.049 A 
ATOM     44  C   UNL     1       6.650  -4.354  23.828  0.00  0.00    +0.034 A 
ATOM     45  C   UNL     1       5.958  -5.015  22.818  0.00  0.00    +0.042 A 
ATOM     46 CL   UNL     1       6.205  -4.563  21.176  0.00  0.00    -0.084 Cl
ATOM     47  C   UNL     1       5.057  -6.024  23.130  0.00  0.00    +0.021 A 
ATOM     48  C   UNL     1       4.864  -6.391  24.463  0.00  0.00    +0.014 A 
ATOM     49  C   UNL     1       5.551  -5.746  25.514  0.00  0.00    +0.030 A 
ATOM     50  C   UNL     1       5.358  -6.087  26.872  0.00  0.00    +0.146 A 
ATOM     51  C   UNL     1       6.058  -5.365  27.830  0.00  0.00    +0.160 A 
ATOM     52  N   UNL     1       6.888  -4.340  27.552  0.00  0.00    -0.217 NA
BRANCH  50  53
ATOM     53  O   UNL     1       4.482  -7.106  27.144  0.00  0.00    -0.493 OA
ATOM     54  C   UNL     1       3.298  -6.771  27.859  0.00  0.00    +0.277 C 
ENDBRANCH  50  53
ENDBRANCH  41  42
ENDBRANCH   5  41
TORSDOF 14
ENDMDL
MODEL 5
REMARK VINA RESULT:      -6.3      2.137      3.247
REMARK  Name = 
REMARK  21 active torsions:
REMARK  status: ('A' for Active; 'I' for Inactive)
REMARK    1  A    between atoms: C_1  and  C_2
REMARK    2  A    between atoms: C_2  and  C_3
REMARK    3  A    between atoms: C_2  and  C_4
REMARK    4  A    between atoms: C_2  and  C_5
REMARK    5  A    between atoms: C_5  and  C_7
REMARK    6  A    between atoms: C_5  and  N_47
REMARK    7  A    between atoms: C_11  and  O_33
REMARK    8  A    between atoms: C_14  and  C_16
REMARK    9  A    between atoms: N_18  and  C_19
REMARK   10  A    between atoms: C_19  and  C_24
REMARK   11  A    between atoms: C_21  and  C_22
REMARK   12  A    between atoms: N_26  and  S_27
REMARK   13  A    between atoms: S_27  and  C_30
REMARK   14  A    between atoms: O_33  and  C_34
REMARK   15  A    between atoms: C_37  and  O_45
REMARK   16  A    between atoms: O_45  and  C_46
REMARK   17  A    between atoms: C_48  and  O_50
REMARK   18  A    between atoms: O_50  and  C_51
REMARK   19  A    between atoms: C_51  and  C_52
REMARK   20  A    between atoms: C_51  and  C_53
REMARK   21  A    between atoms: C_51  and  C_54
REMARK                            x       y       z     vdW  Elec       q    Type
REMARK                         _______ _______ _______ _____ _____    ______ ____
ROOT
ATOM      1  C   UNL     1       8.832   0.502  24.937  0.00  0.00    +0.237 C 
ATOM      2  N   UNL     1       7.839   0.090  25.818  0.00  0.00    -0.285 N 
ATOM      3  C   UNL     1       6.428  -0.128  25.480  0.00  0.00    +0.166 C 
ATOM      4  C   UNL     1       5.981  -1.310  26.359  0.00  0.00    +0.078 C 
ATOM      5  C   UNL     1       7.257  -1.902  26.968  0.00  0.00    +0.195 C 
ATOM      6  C   UNL     1       8.217  -0.719  26.975  0.00  0.00    +0.153 C 
ATOM      7  O   UNL     1      10.014   0.285  25.219  0.00  0.00    -0.274 OA
ENDROOT
BRANCH   3   8
ATOM      8  C   UNL     1       5.470   1.035  25.796  0.00  0.00    +0.234 C 
ATOM      9  N   UNL     1       5.127   1.192  27.126  0.00  0.00    -0.299 N 
ATOM     10  H   UNL     1       5.639   0.688  27.843  0.00  0.00    +0.150 HD
ATOM     11  O   UNL     1       4.856   1.632  24.907  0.00  0.00    -0.274 OA
BRANCH   9  12
ATOM     12  C   UNL     1       3.938   1.939  27.495  0.00  0.00    +0.119 C 
ATOM     13  C   UNL     1       3.891   2.876  28.706  0.00  0.00    +0.046 C 
ATOM     14  C   UNL     1       4.020   3.443  27.333  0.00  0.00    +0.046 C 
BRANCH  12  15
ATOM     15  C   UNL     1       2.627   1.223  27.243  0.00  0.00    +0.256 C 
ATOM     16  N   UNL     1       2.644  -0.166  27.403  0.00  0.00    -0.188 N 
ATOM     17  H   UNL     1       3.398  -0.578  27.960  0.00  0.00    +0.176 HD
ATOM     18  O   UNL     1       1.640   1.860  26.918  0.00  0.00    -0.272 OA
BRANCH  16  19
ATOM     19  S   UNL     1       1.272  -1.100  27.291  0.00  0.00    +0.048 S 
ATOM     20  O   UNL     1       0.694  -0.862  25.987  0.00  0.00    -0.155 OA
ATOM     21  O   UNL     1       0.509  -0.849  28.496  0.00  0.00    -0.155 OA
BRANCH  19  22
ATOM     22  C   UNL     1       1.786  -2.848  27.310  0.00  0.00    +0.151 C 
ATOM     23  C   UNL     1       2.947  -3.239  26.441  0.00  0.00    +0.030 C 
ATOM     24  C   UNL     1       1.544  -3.550  25.996  0.00  0.00    +0.030 C 
ENDBRANCH  19  22
ENDBRANCH  16  19
ENDBRANCH  12  15
BRANCH  13  25
ATOM     25  C   UNL     1       5.019   2.986  29.631  0.00  0.00    -0.028 C 
ATOM     26  C   UNL     1       5.712   4.107  29.861  0.00  0.00    +0.004 C 
ENDBRANCH  13  25
ENDBRANCH   9  12
ENDBRANCH   3   8
BRANCH   1  27
ATOM     27  C   UNL     1       8.431   1.261  23.629  0.00  0.00    +0.168 C 
BRANCH  27  29
ATOM     28  C   UNL     1       8.089   1.238  21.110  0.00  0.00    +0.013 C 
ATOM     29  C   UNL     1       8.684   0.453  22.302  0.00  0.00    -0.011 C 
ATOM     30  C   UNL     1      10.192   0.297  21.976  0.00  0.00    +0.013 C 
ATOM     31  C   UNL     1       8.117  -0.980  22.381  0.00  0.00    +0.013 C 
ENDBRANCH  27  29
BRANCH  27  32
ATOM     32  N   UNL     1       9.123   2.551  23.638  0.00  0.00    -0.269 N 
ATOM     33  H   UNL     1      10.119   2.592  23.472  0.00  0.00    +0.153 HD
ATOM     34  C   UNL     1       8.422   3.722  23.536  0.00  0.00    +0.401 C 
ATOM     35  O   UNL     1       7.207   3.768  23.580  0.00  0.00    -0.226 OA
BRANCH  34  36
ATOM     36  O   UNL     1       9.261   4.765  23.356  0.00  0.00    -0.445 OA
BRANCH  36  37
ATOM     37  C   UNL     1       9.206   5.873  24.298  0.00  0.00    +0.107 C 
ATOM     38  C   UNL     1       8.366   7.024  23.733  0.00  0.00    +0.055 C 
ATOM     39  C   UNL     1      10.658   6.362  24.439  0.00  0.00    +0.055 C 
ATOM     40  C   UNL     1       8.692   5.440  25.679  0.00  0.00    +0.055 C 
ENDBRANCH  36  37
ENDBRANCH  34  36
ENDBRANCH  27  32
ENDBRANCH   1  27
BRANCH   5  41
ATOM     41  O   UNL     1       7.793  -2.951  26.146  0.00  0.00    -0.471 OA
BRANCH  41  42
ATOM     42  C   UNL     1       7.054  -4.122  26.254  0.00  0.00    +0.223 A 
ATOM     43  C   UNL     1       6.403  -4.593  25.105  0.00  0.00    +0.049 A 
ATOM     44  C   UNL     1       6.588  -4.032  23.821  0.00  0.00    +0.034 A 
ATOM     45  C   UNL     1       5.847  -4.488  22.736  0.00  0.00    +0.042 A 
ATOM     46 CL   UNL     1       6.068  -3.771  21.187  0.00  0.00    -0.084 Cl
ATOM     47  C   UNL     1       4.916  -5.505  22.900  0.00  0.00    +0.021 A 
ATOM     48  C   UNL     1       4.745  -6.088  24.157  0.00  0.00    +0.014 A 
ATOM     49  C   UNL     1       5.482  -5.655  25.281  0.00  0.00    +0.030 A 
ATOM     50  C   UNL     1       5.311  -6.217  26.566  0.00  0.00    +0.146 A 
ATOM     51  C   UNL     1       6.063  -5.692  27.610  0.00  0.00    +0.160 A 
ATOM     52  N   UNL     1       6.923  -4.662  27.483  0.00  0.00    -0.217 NA
BRANCH  50  53
ATOM     53  O   UNL     1       4.405  -7.238  26.688  0.00  0.00    -0.493 OA
ATOM     54  C   UNL     1       3.125  -6.910  27.217  0.00  0.00    +0.277 C 
ENDBRANCH  50  53
ENDBRANCH  41  42
ENDBRANCH   5  41
TORSDOF 14
ENDMDL
MODEL 6
REMARK VINA RESULT:      -6.2      1.933      5.187
REMARK  Name = 
REMARK  21 active torsions:
REMARK  status: ('A' for Active; 'I' for Inactive)
REMARK    1  A    between atoms: C_1  and  C_2
REMARK    2  A    between atoms: C_2  and  C_3
REMARK    3  A    between atoms: C_2  and  C_4
REMARK    4  A    between atoms: C_2  and  C_5
REMARK    5  A    between atoms: C_5  and  C_7
REMARK    6  A    between atoms: C_5  and  N_47
REMARK    7  A    between atoms: C_11  and  O_33
REMARK    8  A    between atoms: C_14  and  C_16
REMARK    9  A    between atoms: N_18  and  C_19
REMARK   10  A    between atoms: C_19  and  C_24
REMARK   11  A    between atoms: C_21  and  C_22
REMARK   12  A    between atoms: N_26  and  S_27
REMARK   13  A    between atoms: S_27  and  C_30
REMARK   14  A    between atoms: O_33  and  C_34
REMARK   15  A    between atoms: C_37  and  O_45
REMARK   16  A    between atoms: O_45  and  C_46
REMARK   17  A    between atoms: C_48  and  O_50
REMARK   18  A    between atoms: O_50  and  C_51
REMARK   19  A    between atoms: C_51  and  C_52
REMARK   20  A    between atoms: C_51  and  C_53
REMARK   21  A    between atoms: C_51  and  C_54
REMARK                            x       y       z     vdW  Elec       q    Type
REMARK                         _______ _______ _______ _____ _____    ______ ____
ROOT
ATOM      1  C   UNL     1       5.577   0.482  26.111  0.00  0.00    +0.237 C 
ATOM      2  N   UNL     1       6.548  -0.247  25.433  0.00  0.00    -0.285 N 
ATOM      3  C   UNL     1       7.968  -0.327  25.792  0.00  0.00    +0.166 C 
ATOM      4  C   UNL     1       8.395  -1.761  25.429  0.00  0.00    +0.078 C 
ATOM      5  C   UNL     1       7.106  -2.533  25.132  0.00  0.00    +0.195 C 
ATOM      6  C   UNL     1       6.142  -1.439  24.692  0.00  0.00    +0.153 C 
ATOM      7  O   UNL     1       4.390   0.181  25.966  0.00  0.00    -0.274 OA
ENDROOT
BRANCH   3   8
ATOM      8  C   UNL     1       8.914   0.615  25.024  0.00  0.00    +0.234 C 
ATOM      9  N   UNL     1       8.352   1.304  23.966  0.00  0.00    -0.299 N 
ATOM     10  H   UNL     1       7.345   1.320  23.851  0.00  0.00    +0.150 HD
ATOM     11  O   UNL     1      10.138   0.576  25.180  0.00  0.00    -0.274 OA
BRANCH   9  12
ATOM     12  C   UNL     1       9.195   1.867  22.926  0.00  0.00    +0.119 C 
ATOM     13  C   UNL     1       9.992   0.999  21.946  0.00  0.00    +0.046 C 
ATOM     14  C   UNL     1       8.727   1.650  21.501  0.00  0.00    +0.046 C 
BRANCH  12  15
ATOM     15  C   UNL     1       9.905   3.151  23.299  0.00  0.00    +0.256 C 
ATOM     16  N   UNL     1       9.153   4.324  23.188  0.00  0.00    -0.188 N 
ATOM     17  H   UNL     1       8.133   4.244  23.175  0.00  0.00    +0.176 HD
ATOM     18  O   UNL     1      11.067   3.117  23.667  0.00  0.00    -0.272 OA
BRANCH  16  19
ATOM     19  S   UNL     1       9.728   5.808  23.674  0.00  0.00    +0.048 S 
ATOM     20  O   UNL     1       8.839   6.813  23.133  0.00  0.00    -0.155 OA
ATOM     21  O   UNL     1      11.141   5.822  23.357  0.00  0.00    -0.155 OA
BRANCH  19  22
ATOM     22  C   UNL     1       9.560   5.903  25.486  0.00  0.00    +0.151 C 
ATOM     23  C   UNL     1       8.745   7.032  26.050  0.00  0.00    +0.030 C 
ATOM     24  C   UNL     1      10.248   7.107  26.081  0.00  0.00    +0.030 C 
ENDBRANCH  19  22
ENDBRANCH  16  19
ENDBRANCH  12  15
BRANCH  13  25
ATOM     25  C   UNL     1      10.035  -0.457  22.077  0.00  0.00    -0.028 C 
ATOM     26  C   UNL     1       9.059  -1.289  21.693  0.00  0.00    +0.004 C 
ENDBRANCH  13  25
ENDBRANCH   9  12
ENDBRANCH   3   8
BRANCH   1  27
ATOM     27  C   UNL     1       6.012   1.686  27.010  0.00  0.00    +0.168 C 
BRANCH  27  29
ATOM     28  C   UNL     1       4.790   2.464  29.099  0.00  0.00    +0.013 C 
ATOM     29  C   UNL     1       5.821   1.448  28.555  0.00  0.00    -0.011 C 
ATOM     30  C   UNL     1       5.229   0.052  28.876  0.00  0.00    +0.013 C 
ATOM     31  C   UNL     1       7.159   1.528  29.320  0.00  0.00    +0.013 C 
ENDBRANCH  27  29
BRANCH  27  32
ATOM     32  N   UNL     1       5.295   2.872  26.535  0.00  0.00    -0.269 N 
ATOM     33  H   UNL     1       4.440   3.162  26.989  0.00  0.00    +0.153 HD
ATOM     34  C   UNL     1       5.911   3.782  25.720  0.00  0.00    +0.401 C 
ATOM     35  O   UNL     1       7.010   3.593  25.234  0.00  0.00    -0.226 OA
BRANCH  34  36
ATOM     36  O   UNL     1       5.147   4.886  25.575  0.00  0.00    -0.445 OA
BRANCH  36  37
ATOM     37  C   UNL     1       4.509   5.128  24.291  0.00  0.00    +0.107 C 
ATOM     38  C   UNL     1       5.418   5.965  23.383  0.00  0.00    +0.055 C 
ATOM     39  C   UNL     1       3.252   5.957  24.608  0.00  0.00    +0.055 C 
ATOM     40  C   UNL     1       4.082   3.826  23.597  0.00  0.00    +0.055 C 
ENDBRANCH  36  37
ENDBRANCH  34  36
ENDBRANCH  27  32
ENDBRANCH   1  27
BRANCH   5  41
ATOM     41  O   UNL     1       6.596  -3.177  26.311  0.00  0.00    -0.471 OA
BRANCH  41  42
ATOM     42  C   UNL     1       5.348  -3.745  26.091  0.00  0.00    +0.223 A 
ATOM     43  C   UNL     1       5.188  -4.556  24.958  0.00  0.00    +0.049 A 
ATOM     44  C   UNL     1       6.260  -4.950  24.127  0.00  0.00    +0.034 A 
ATOM     45  C   UNL     1       6.026  -5.684  22.969  0.00  0.00    +0.042 A 
ATOM     46 CL   UNL     1       7.344  -6.129  21.956  0.00  0.00    -0.084 Cl
ATOM     47  C   UNL     1       4.731  -6.043  22.617  0.00  0.00    +0.021 A 
ATOM     48  C   UNL     1       3.665  -5.685  23.444  0.00  0.00    +0.014 A 
ATOM     49  C   UNL     1       3.866  -4.944  24.630  0.00  0.00    +0.030 A 
ATOM     50  C   UNL     1       2.801  -4.555  25.473  0.00  0.00    +0.146 A 
ATOM     51  C   UNL     1       3.105  -3.797  26.596  0.00  0.00    +0.160 A 
ATOM     52  N   UNL     1       4.347  -3.384  26.921  0.00  0.00    -0.217 NA
BRANCH  50  53
ATOM     53  O   UNL     1       1.538  -4.949  25.111  0.00  0.00    -0.493 OA
ATOM     54  C   UNL     1       0.597  -3.922  24.818  0.00  0.00    +0.277 C 
ENDBRANCH  50  53
ENDBRANCH  41  42
ENDBRANCH   5  41
TORSDOF 14
ENDMDL
MODEL 7
REMARK VINA RESULT:      -6.2      2.250      5.511
REMARK  Name = 
REMARK  21 active torsions:
REMARK  status: ('A' for Active; 'I' for Inactive)
REMARK    1  A    between atoms: C_1  and  C_2
REMARK    2  A    between atoms: C_2  and  C_3
REMARK    3  A    between atoms: C_2  and  C_4
REMARK    4  A    between atoms: C_2  and  C_5
REMARK    5  A    between atoms: C_5  and  C_7
REMARK    6  A    between atoms: C_5  and  N_47
REMARK    7  A    between atoms: C_11  and  O_33
REMARK    8  A    between atoms: C_14  and  C_16
REMARK    9  A    between atoms: N_18  and  C_19
REMARK   10  A    between atoms: C_19  and  C_24
REMARK   11  A    between atoms: C_21  and  C_22
REMARK   12  A    between atoms: N_26  and  S_27
REMARK   13  A    between atoms: S_27  and  C_30
REMARK   14  A    between atoms: O_33  and  C_34
REMARK   15  A    between atoms: C_37  and  O_45
REMARK   16  A    between atoms: O_45  and  C_46
REMARK   17  A    between atoms: C_48  and  O_50
REMARK   18  A    between atoms: O_50  and  C_51
REMARK   19  A    between atoms: C_51  and  C_52
REMARK   20  A    between atoms: C_51  and  C_53
REMARK   21  A    between atoms: C_51  and  C_54
REMARK                            x       y       z     vdW  Elec       q    Type
REMARK                         _______ _______ _______ _____ _____    ______ ____
ROOT
ATOM      1  C   UNL     1       5.331   0.165  26.095  0.00  0.00    +0.237 C 
ATOM      2  N   UNL     1       6.275  -0.580  25.397  0.00  0.00    -0.285 N 
ATOM      3  C   UNL     1       7.681  -0.756  25.774  0.00  0.00    +0.166 C 
ATOM      4  C   UNL     1       8.038  -2.190  25.344  0.00  0.00    +0.078 C 
ATOM      5  C   UNL     1       6.716  -2.875  24.985  0.00  0.00    +0.195 C 
ATOM      6  C   UNL     1       5.820  -1.708  24.586  0.00  0.00    +0.153 C 
ATOM      7  O   UNL     1       4.132  -0.063  25.914  0.00  0.00    -0.274 OA
ENDROOT
BRANCH   3   8
ATOM      8  C   UNL     1       8.691   0.172  25.073  0.00  0.00    +0.234 C 
ATOM      9  N   UNL     1       8.211   0.874  23.984  0.00  0.00    -0.299 N 
ATOM     10  H   UNL     1       7.214   0.908  23.804  0.00  0.00    +0.150 HD
ATOM     11  O   UNL     1       9.901   0.110  25.308  0.00  0.00    -0.274 OA
BRANCH   9  12
ATOM     12  C   UNL     1       9.129   1.425  23.003  0.00  0.00    +0.119 C 
ATOM     13  C   UNL     1       9.922   0.548  22.027  0.00  0.00    +0.046 C 
ATOM     14  C   UNL     1       8.715   1.284  21.552  0.00  0.00    +0.046 C 
BRANCH  12  15
ATOM     15  C   UNL     1       9.891   2.653  23.455  0.00  0.00    +0.256 C 
ATOM     16  N   UNL     1       9.200   3.867  23.379  0.00  0.00    -0.188 N 
ATOM     17  H   UNL     1       8.178   3.838  23.335  0.00  0.00    +0.176 HD
ATOM     18  O   UNL     1      11.039   2.545  23.850  0.00  0.00    -0.272 OA
BRANCH  16  19
ATOM     19  S   UNL     1       9.832   5.297  23.948  0.00  0.00    +0.048 S 
ATOM     20  O   UNL     1       9.362   5.465  25.305  0.00  0.00    -0.155 OA
ATOM     21  O   UNL     1       9.553   6.296  22.938  0.00  0.00    -0.155 OA
BRANCH  19  22
ATOM     22  C   UNL     1      11.641   5.101  24.055  0.00  0.00    +0.151 C 
ATOM     23  C   UNL     1      12.464   6.344  24.238  0.00  0.00    +0.030 C 
ATOM     24  C   UNL     1      12.372   5.703  22.880  0.00  0.00    +0.030 C 
ENDBRANCH  19  22
ENDBRANCH  16  19
ENDBRANCH  12  15
BRANCH  13  25
ATOM     25  C   UNL     1       9.880  -0.912  22.105  0.00  0.00    -0.028 C 
ATOM     26  C   UNL     1       8.844  -1.668  21.725  0.00  0.00    +0.004 C 
ENDBRANCH  13  25
ENDBRANCH   9  12
ENDBRANCH   3   8
BRANCH   1  27
ATOM     27  C   UNL     1       5.812   1.295  27.063  0.00  0.00    +0.168 C 
BRANCH  27  29
ATOM     28  C   UNL     1       4.118   2.043  28.805  0.00  0.00    +0.013 C 
ATOM     29  C   UNL     1       5.335   1.123  28.554  0.00  0.00    -0.011 C 
ATOM     30  C   UNL     1       4.833  -0.312  28.859  0.00  0.00    +0.013 C 
ATOM     31  C   UNL     1       6.474   1.397  29.559  0.00  0.00    +0.013 C 
ENDBRANCH  27  29
BRANCH  27  32
ATOM     32  N   UNL     1       5.393   2.576  26.488  0.00  0.00    -0.269 N 
ATOM     33  H   UNL     1       4.466   2.934  26.671  0.00  0.00    +0.153 HD
ATOM     34  C   UNL     1       6.316   3.454  25.989  0.00  0.00    +0.401 C 
ATOM     35  O   UNL     1       7.493   3.170  25.861  0.00  0.00    -0.226 OA
BRANCH  34  36
ATOM     36  O   UNL     1       5.740   4.641  25.704  0.00  0.00    -0.445 OA
BRANCH  36  37
ATOM     37  C   UNL     1       5.279   4.883  24.346  0.00  0.00    +0.107 C 
ATOM     38  C   UNL     1       5.601   3.687  23.443  0.00  0.00    +0.055 C 
ATOM     39  C   UNL     1       6.089   6.093  23.848  0.00  0.00    +0.055 C 
ATOM     40  C   UNL     1       3.784   5.231  24.290  0.00  0.00    +0.055 C 
ENDBRANCH  36  37
ENDBRANCH  34  36
ENDBRANCH  27  32
ENDBRANCH   1  27
BRANCH   5  41
ATOM     41  O   UNL     1       6.148  -3.550  26.119  0.00  0.00    -0.471 OA
BRANCH  41  42
ATOM     42  C   UNL     1       5.338  -4.611  25.738  0.00  0.00    +0.223 A 
ATOM     43  C   UNL     1       4.340  -5.026  26.631  0.00  0.00    +0.049 A 
ATOM     44  C   UNL     1       4.015  -4.325  27.814  0.00  0.00    +0.034 A 
ATOM     45  C   UNL     1       3.074  -4.835  28.704  0.00  0.00    +0.042 A 
ATOM     46 CL   UNL     1       2.715  -3.980  30.152  0.00  0.00    -0.084 Cl
ATOM     47  C   UNL     1       2.438  -6.040  28.436  0.00  0.00    +0.021 A 
ATOM     48  C   UNL     1       2.727  -6.728  27.256  0.00  0.00    +0.014 A 
ATOM     49  C   UNL     1       3.673  -6.239  26.328  0.00  0.00    +0.030 A 
ATOM     50  C   UNL     1       3.997  -6.927  25.137  0.00  0.00    +0.146 A 
ATOM     51  C   UNL     1       4.968  -6.375  24.311  0.00  0.00    +0.160 A 
ATOM     52  N   UNL     1       5.643  -5.241  24.585  0.00  0.00    -0.217 NA
BRANCH  50  53
ATOM     53  O   UNL     1       3.330  -8.099  24.889  0.00  0.00    -0.493 OA
ATOM     54  C   UNL     1       2.247  -8.047  23.967  0.00  0.00    +0.277 C 
ENDBRANCH  50  53
ENDBRANCH  41  42
ENDBRANCH   5  41
TORSDOF 14
ENDMDL
MODEL 8
REMARK VINA RESULT:      -6.2      2.428      4.403
REMARK  Name = 
REMARK  21 active torsions:
REMARK  status: ('A' for Active; 'I' for Inactive)
REMARK    1  A    between atoms: C_1  and  C_2
REMARK    2  A    between atoms: C_2  and  C_3
REMARK    3  A    between atoms: C_2  and  C_4
REMARK    4  A    between atoms: C_2  and  C_5
REMARK    5  A    between atoms: C_5  and  C_7
REMARK    6  A    between atoms: C_5  and  N_47
REMARK    7  A    between atoms: C_11  and  O_33
REMARK    8  A    between atoms: C_14  and  C_16
REMARK    9  A    between atoms: N_18  and  C_19
REMARK   10  A    between atoms: C_19  and  C_24
REMARK   11  A    between atoms: C_21  and  C_22
REMARK   12  A    between atoms: N_26  and  S_27
REMARK   13  A    between atoms: S_27  and  C_30
REMARK   14  A    between atoms: O_33  and  C_34
REMARK   15  A    between atoms: C_37  and  O_45
REMARK   16  A    between atoms: O_45  and  C_46
REMARK   17  A    between atoms: C_48  and  O_50
REMARK   18  A    between atoms: O_50  and  C_51
REMARK   19  A    between atoms: C_51  and  C_52
REMARK   20  A    between atoms: C_51  and  C_53
REMARK   21  A    between atoms: C_51  and  C_54
REMARK                            x       y       z     vdW  Elec       q    Type
REMARK                         _______ _______ _______ _____ _____    ______ ____
ROOT
ATOM      1  C   UNL     1       7.450  -4.413  24.654  0.00  0.00    +0.237 C 
ATOM      2  N   UNL     1       6.896  -4.005  25.861  0.00  0.00    -0.285 N 
ATOM      3  C   UNL     1       5.546  -3.462  26.047  0.00  0.00    +0.166 C 
ATOM      4  C   UNL     1       5.089  -3.978  27.423  0.00  0.00    +0.078 C 
ATOM      5  C   UNL     1       6.110  -5.040  27.846  0.00  0.00    +0.195 C 
ATOM      6  C   UNL     1       7.370  -4.625  27.097  0.00  0.00    +0.153 C 
ATOM      7  O   UNL     1       8.410  -5.188  24.664  0.00  0.00    -0.274 OA
ENDROOT
BRANCH   3   8
ATOM      8  C   UNL     1       5.436  -1.927  26.101  0.00  0.00    +0.234 C 
ATOM      9  N   UNL     1       6.283  -1.291  26.989  0.00  0.00    -0.299 N 
ATOM     10  H   UNL     1       7.046  -1.805  27.416  0.00  0.00    +0.150 HD
ATOM     11  O   UNL     1       4.496  -1.324  25.576  0.00  0.00    -0.274 OA
BRANCH   9  12
ATOM     12  C   UNL     1       5.991   0.056  27.445  0.00  0.00    +0.119 C 
ATOM     13  C   UNL     1       4.862   0.371  28.431  0.00  0.00    +0.046 C 
ATOM     14  C   UNL     1       6.274   0.340  28.906  0.00  0.00    +0.046 C 
BRANCH  12  15
ATOM     15  C   UNL     1       6.201   1.142  26.411  0.00  0.00    +0.256 C 
ATOM     16  N   UNL     1       5.107   1.428  25.589  0.00  0.00    -0.188 N 
ATOM     17  H   UNL     1       4.177   1.145  25.909  0.00  0.00    +0.176 HD
ATOM     18  O   UNL     1       7.279   1.706  26.332  0.00  0.00    -0.272 OA
BRANCH  16  19
ATOM     19  S   UNL     1       5.114   2.673  24.485  0.00  0.00    +0.048 S 
ATOM     20  O   UNL     1       5.460   3.881  25.200  0.00  0.00    -0.155 OA
ATOM     21  O   UNL     1       3.867   2.576  23.754  0.00  0.00    -0.155 OA
BRANCH  19  22
ATOM     22  C   UNL     1       6.474   2.367  23.312  0.00  0.00    +0.151 C 
ATOM     23  C   UNL     1       7.549   3.412  23.208  0.00  0.00    +0.030 C 
ATOM     24  C   UNL     1       6.482   3.331  22.151  0.00  0.00    +0.030 C 
ENDBRANCH  19  22
ENDBRANCH  16  19
ENDBRANCH  12  15
BRANCH  13  25
ATOM     25  C   UNL     1       3.935  -0.664  28.886  0.00  0.00    -0.028 C 
ATOM     26  C   UNL     1       2.671  -0.444  29.270  0.00  0.00    +0.004 C 
ENDBRANCH  13  25
ENDBRANCH   9  12
ENDBRANCH   3   8
BRANCH   1  27
ATOM     27  C   UNL     1       6.868  -3.851  23.315  0.00  0.00    +0.168 C 
BRANCH  27  29
ATOM     28  C   UNL     1       5.868  -4.265  21.015  0.00  0.00    +0.013 C 
ATOM     29  C   UNL     1       6.415  -4.954  22.286  0.00  0.00    -0.011 C 
ATOM     30  C   UNL     1       7.593  -5.836  21.799  0.00  0.00    +0.013 C 
ATOM     31  C   UNL     1       5.383  -5.924  22.898  0.00  0.00    +0.013 C 
ENDBRANCH  27  29
BRANCH  27  32
ATOM     32  N   UNL     1       7.864  -2.937  22.750  0.00  0.00    -0.269 N 
ATOM     33  H   UNL     1       8.667  -3.304  22.259  0.00  0.00    +0.153 HD
ATOM     34  C   UNL     1       7.577  -1.609  22.579  0.00  0.00    +0.401 C 
ATOM     35  O   UNL     1       6.563  -1.094  23.009  0.00  0.00    -0.226 OA
BRANCH  34  36
ATOM     36  O   UNL     1       8.546  -1.002  21.862  0.00  0.00    -0.445 OA
BRANCH  36  37
ATOM     37  C   UNL     1       9.600  -0.295  22.573  0.00  0.00    +0.107 C 
ATOM     38  C   UNL     1       9.944   1.020  21.865  0.00  0.00    +0.055 C 
ATOM     39  C   UNL     1      10.832  -1.216  22.500  0.00  0.00    +0.055 C 
ATOM     40  C   UNL     1       9.248  -0.054  24.048  0.00  0.00    +0.055 C 
ENDBRANCH  36  37
ENDBRANCH  34  36
ENDBRANCH  27  32
ENDBRANCH   1  27
BRANCH   5  41
ATOM     41  O   UNL     1       5.709  -6.353  27.423  0.00  0.00    -0.471 OA
BRANCH  41  42
ATOM     42  C   UNL     1       4.552  -6.773  28.065  0.00  0.00    +0.223 A 
ATOM     43  C   UNL     1       3.382  -6.883  27.299  0.00  0.00    +0.049 A 
ATOM     44  C   UNL     1       3.357  -6.744  25.893  0.00  0.00    +0.034 A 
ATOM     45  C   UNL     1       2.151  -6.776  25.200  0.00  0.00    +0.042 A 
ATOM     46 CL   UNL     1       2.142  -6.576  23.491  0.00  0.00    -0.084 Cl
ATOM     47  C   UNL     1       0.955  -6.951  25.882  0.00  0.00    +0.021 A 
ATOM     48  C   UNL     1       0.968  -7.119  27.268  0.00  0.00    +0.014 A 
ATOM     49  C   UNL     1       2.172  -7.096  28.005  0.00  0.00    +0.030 A 
ATOM     50  C   UNL     1       2.208  -7.245  29.410  0.00  0.00    +0.146 A 
ATOM     51  C   UNL     1       3.444  -7.171  30.040  0.00  0.00    +0.160 A 
ATOM     52  N   UNL     1       4.608  -6.937  29.403  0.00  0.00    -0.217 NA
BRANCH  50  53
ATOM     53  O   UNL     1       1.012  -7.444  30.050  0.00  0.00    -0.493 OA
ATOM     54  C   UNL     1       0.719  -8.768  30.480  0.00  0.00    +0.277 C 
ENDBRANCH  50  53
ENDBRANCH  41  42
ENDBRANCH   5  41
TORSDOF 14
ENDMDL
MODEL 9
REMARK VINA RESULT:      -6.2      3.000      9.255
REMARK  Name = 
REMARK  21 active torsions:
REMARK  status: ('A' for Active; 'I' for Inactive)
REMARK    1  A    between atoms: C_1  and  C_2
REMARK    2  A    between atoms: C_2  and  C_3
REMARK    3  A    between atoms: C_2  and  C_4
REMARK    4  A    between atoms: C_2  and  C_5
REMARK    5  A    between atoms: C_5  and  C_7
REMARK    6  A    between atoms: C_5  and  N_47
REMARK    7  A    between atoms: C_11  and  O_33
REMARK    8  A    between atoms: C_14  and  C_16
REMARK    9  A    between atoms: N_18  and  C_19
REMARK   10  A    between atoms: C_19  and  C_24
REMARK   11  A    between atoms: C_21  and  C_22
REMARK   12  A    between atoms: N_26  and  S_27
REMARK   13  A    between atoms: S_27  and  C_30
REMARK   14  A    between atoms: O_33  and  C_34
REMARK   15  A    between atoms: C_37  and  O_45
REMARK   16  A    between atoms: O_45  and  C_46
REMARK   17  A    between atoms: C_48  and  O_50
REMARK   18  A    between atoms: O_50  and  C_51
REMARK   19  A    between atoms: C_51  and  C_52
REMARK   20  A    between atoms: C_51  and  C_53
REMARK   21  A    between atoms: C_51  and  C_54
REMARK                            x       y       z     vdW  Elec       q    Type
REMARK                         _______ _______ _______ _____ _____    ______ ____
ROOT
ATOM      1  C   UNL     1       6.590   1.243  26.137  0.00  0.00    +0.237 C 
ATOM      2  N   UNL     1       7.341   0.376  25.352  0.00  0.00    -0.285 N 
ATOM      3  C   UNL     1       6.809  -0.556  24.352  0.00  0.00    +0.166 C 
ATOM      4  C   UNL     1       7.867  -0.594  23.234  0.00  0.00    +0.078 C 
ATOM      5  C   UNL     1       8.842   0.552  23.523  0.00  0.00    +0.195 C 
ATOM      6  C   UNL     1       8.720   0.736  25.030  0.00  0.00    +0.153 C 
ATOM      7  O   UNL     1       7.140   2.223  26.645  0.00  0.00    -0.274 OA
ENDROOT
BRANCH   3   8
ATOM      8  C   UNL     1       6.618  -2.012  24.818  0.00  0.00    +0.234 C 
ATOM      9  N   UNL     1       7.765  -2.678  25.205  0.00  0.00    -0.299 N 
ATOM     10  H   UNL     1       8.625  -2.161  25.350  0.00  0.00    +0.150 HD
ATOM     11  O   UNL     1       5.562  -2.621  24.628  0.00  0.00    -0.274 OA
BRANCH   9  12
ATOM     12  C   UNL     1       7.793  -4.129  25.246  0.00  0.00    +0.119 C 
ATOM     13  C   UNL     1       7.714  -4.994  23.985  0.00  0.00    +0.046 C 
ATOM     14  C   UNL     1       9.026  -4.787  24.661  0.00  0.00    +0.046 C 
BRANCH  12  15
ATOM     15  C   UNL     1       7.101  -4.751  26.441  0.00  0.00    +0.256 C 
ATOM     16  N   UNL     1       5.727  -4.975  26.307  0.00  0.00    -0.188 N 
ATOM     17  H   UNL     1       5.334  -5.012  25.362  0.00  0.00    +0.176 HD
ATOM     18  O   UNL     1       7.742  -5.021  27.442  0.00  0.00    -0.272 OA
BRANCH  16  19
ATOM     19  S   UNL     1       4.829  -5.762  27.465  0.00  0.00    +0.048 S 
ATOM     20  O   UNL     1       4.844  -4.940  28.655  0.00  0.00    -0.155 OA
ATOM     21  O   UNL     1       5.316  -7.126  27.501  0.00  0.00    -0.155 OA
BRANCH  19  22
ATOM     22  C   UNL     1       3.099  -5.802  26.894  0.00  0.00    +0.151 C 
ATOM     23  C   UNL     1       2.683  -4.786  25.868  0.00  0.00    +0.030 C 
ATOM     24  C   UNL     1       2.310  -4.585  27.312  0.00  0.00    +0.030 C 
ENDBRANCH  19  22
ENDBRANCH  16  19
ENDBRANCH  12  15
BRANCH  13  25
ATOM     25  C   UNL     1       7.492  -4.403  22.665  0.00  0.00    -0.028 C 
ATOM     26  C   UNL     1       6.906  -5.027  21.636  0.00  0.00    +0.004 C 
ENDBRANCH  13  25
ENDBRANCH   9  12
ENDBRANCH   3   8
BRANCH   1  27
ATOM     27  C   UNL     1       5.076   0.934  26.386  0.00  0.00    +0.168 C 
BRANCH  27  29
ATOM     28  C   UNL     1       4.383   2.582  28.193  0.00  0.00    +0.013 C 
ATOM     29  C   UNL     1       4.196   2.200  26.707  0.00  0.00    -0.011 C 
ATOM     30  C   UNL     1       4.636   3.452  25.904  0.00  0.00    +0.013 C 
ATOM     31  C   UNL     1       2.710   1.973  26.358  0.00  0.00    +0.013 C 
ENDBRANCH  27  29
BRANCH  27  32
ATOM     32  N   UNL     1       5.001  -0.080  27.440  0.00  0.00    -0.269 N 
ATOM     33  H   UNL     1       5.433   0.090  28.338  0.00  0.00    +0.153 HD
ATOM     34  C   UNL     1       4.091  -1.100  27.366  0.00  0.00    +0.401 C 
ATOM     35  O   UNL     1       3.411  -1.305  26.378  0.00  0.00    -0.226 OA
BRANCH  34  36
ATOM     36  O   UNL     1       4.053  -1.789  28.527  0.00  0.00    -0.445 OA
BRANCH  36  37
ATOM     37  C   UNL     1       3.160  -1.332  29.580  0.00  0.00    +0.107 C 
ATOM     38  C   UNL     1       3.854  -0.290  30.464  0.00  0.00    +0.055 C 
ATOM     39  C   UNL     1       2.870  -2.575  30.440  0.00  0.00    +0.055 C 
ATOM     40  C   UNL     1       1.833  -0.791  29.026  0.00  0.00    +0.055 C 
ENDBRANCH  36  37
ENDBRANCH  34  36
ENDBRANCH  27  32
ENDBRANCH   1  27
BRANCH   5  41
ATOM     41  O   UNL     1       8.444   1.761  22.857  0.00  0.00    -0.471 OA
BRANCH  41  42
ATOM     42  C   UNL     1       9.250   2.835  23.210  0.00  0.00    +0.223 A 
ATOM     43  C   UNL     1       8.644   4.092  23.343  0.00  0.00    +0.049 A 
ATOM     44  C   UNL     1       7.246   4.290  23.293  0.00  0.00    +0.034 A 
ATOM     45  C   UNL     1       6.710   5.573  23.344  0.00  0.00    +0.042 A 
ATOM     46 CL   UNL     1       5.006   5.793  23.253  0.00  0.00    -0.084 Cl
ATOM     47  C   UNL     1       7.545   6.678  23.448  0.00  0.00    +0.021 A 
ATOM     48  C   UNL     1       8.927   6.495  23.528  0.00  0.00    +0.014 A 
ATOM     49  C   UNL     1       9.506   5.208  23.484  0.00  0.00    +0.030 A 
ATOM     50  C   UNL     1      10.903   4.999  23.543  0.00  0.00    +0.146 A 
ATOM     51  C   UNL     1      11.369   3.694  23.456  0.00  0.00    +0.160 A 
ATOM     52  N   UNL     1      10.579   2.614  23.290  0.00  0.00    -0.217 NA
BRANCH  50  53
ATOM     53  O   UNL     1      11.697   6.109  23.675  0.00  0.00    -0.493 OA
ATOM     54  C   UNL     1      12.204   6.394  24.974  0.00  0.00    +0.277 C 
ENDBRANCH  50  53
ENDBRANCH  41  42
ENDBRANCH   5  41
TORSDOF 14
ENDMDL
