MODEL 1
REMARK VINA RESULT:      -5.5      0.000      0.000
REMARK  Name = 
REMARK  5 active torsions:
REMARK  status: ('A' for Active; 'I' for Inactive)
REMARK    1  A    between atoms: N_5  and  C_6
REMARK    2  A    between atoms: C_6  and  O_7
REMARK    3  A    between atoms: O_7  and  C_8
REMARK    4  A    between atoms: C_8  and  C_9
REMARK    5  A    between atoms: C_9  and  O_10
REMARK                            x       y       z     vdW  Elec       q    Type
REMARK                         _______ _______ _______ _____ _____    ______ ____
ROOT
ATOM      1  C   UNL     1       5.412  -3.851  23.547  0.00  0.00    +0.203 A 
ATOM      2  N   UNL     1       6.754  -3.724  23.283  0.00  0.00    -0.291 N 
ATOM      3  C   UNL     1       7.423  -4.397  24.265  0.00  0.00    +0.171 A 
ATOM      4  N   UNL     1       8.765  -4.565  24.369  0.00  0.00    -0.196 NA
ATOM      5  C   UNL     1       9.118  -5.270  25.411  0.00  0.00    +0.195 A 
ATOM      6  N   UNL     1      10.428  -5.548  25.633  0.00  0.00    -0.329 N 
ATOM      7  H   UNL     1      10.737  -5.740  26.575  0.00  0.00    +0.145 HD
ATOM      8  H   UNL     1      11.065  -4.972  25.092  0.00  0.00    +0.145 HD
ATOM      9  N   UNL     1       8.227  -5.775  26.336  0.00  0.00    -0.293 N 
ATOM     10  H   UNL     1       8.553  -6.325  27.111  0.00  0.00    +0.172 HD
ATOM     11  C   UNL     1       6.846  -5.641  26.257  0.00  0.00    +0.280 A 
ATOM     12  O   UNL     1       6.101  -6.141  27.093  0.00  0.00    -0.265 OA
ATOM     13  C   UNL     1       6.437  -4.874  25.101  0.00  0.00    +0.172 A 
ATOM     14  N   UNL     1       5.185  -4.544  24.646  0.00  0.00    -0.229 NA
ENDROOT
BRANCH   2  15
ATOM     15  C   UNL     1       7.327  -3.063  22.132  0.00  0.00    +0.287 C 
BRANCH  15  16
ATOM     16  O   UNL     1       7.877  -1.812  22.551  0.00  0.00    -0.357 OA
BRANCH  16  17
ATOM     17  C   UNL     1       9.083  -1.521  21.833  0.00  0.00    +0.190 C 
BRANCH  17  18
ATOM     18  C   UNL     1      10.223  -1.349  22.830  0.00  0.00    +0.184 C 
BRANCH  18  19
ATOM     19  O   UNL     1      10.535  -2.600  23.437  0.00  0.00    -0.393 OA
ATOM     20  H   UNL     1      11.421  -2.843  23.104  0.00  0.00    +0.209 HD
ENDBRANCH  18  19
ENDBRANCH  17  18
ENDBRANCH  16  17
ENDBRANCH  15  16
ENDBRANCH   2  15
TORSDOF 5
ENDMDL
MODEL 2
REMARK VINA RESULT:      -5.5      1.844      2.370
REMARK  Name = 
REMARK  5 active torsions:
REMARK  status: ('A' for Active; 'I' for Inactive)
REMARK    1  A    between atoms: N_5  and  C_6
REMARK    2  A    between atoms: C_6  and  O_7
REMARK    3  A    between atoms: O_7  and  C_8
REMARK    4  A    between atoms: C_8  and  C_9
REMARK    5  A    between atoms: C_9  and  O_10
REMARK                            x       y       z     vdW  Elec       q    Type
REMARK                         _______ _______ _______ _____ _____    ______ ____
ROOT
ATOM      1  C   UNL     1       7.163  -1.949  22.712  0.00  0.00    +0.203 A 
ATOM      2  N   UNL     1       8.479  -2.234  22.983  0.00  0.00    -0.291 N 
ATOM      3  C   UNL     1       8.492  -3.280  23.860  0.00  0.00    +0.171 A 
ATOM      4  N   UNL     1       9.583  -3.912  24.360  0.00  0.00    -0.196 NA
ATOM      5  C   UNL     1       9.287  -4.892  25.173  0.00  0.00    +0.195 A 
ATOM      6  N   UNL     1      10.275  -5.637  25.729  0.00  0.00    -0.329 N 
ATOM      7  H   UNL     1      10.100  -6.111  26.603  0.00  0.00    +0.145 HD
ATOM      8  H   UNL     1      11.195  -5.215  25.658  0.00  0.00    +0.145 HD
ATOM      9  N   UNL     1       7.997  -5.241  25.518  0.00  0.00    -0.293 N 
ATOM     10  H   UNL     1       7.826  -6.015  26.135  0.00  0.00    +0.172 HD
ATOM     11  C   UNL     1       6.853  -4.632  25.016  0.00  0.00    +0.280 A 
ATOM     12  O   UNL     1       5.730  -5.009  25.335  0.00  0.00    -0.265 OA
ATOM     13  C   UNL     1       7.163  -3.554  24.104  0.00  0.00    +0.172 A 
ATOM     14  N   UNL     1       6.337  -2.732  23.379  0.00  0.00    -0.229 NA
ENDROOT
BRANCH   2  15
ATOM     15  C   UNL     1       9.622  -1.588  22.379  0.00  0.00    +0.287 C 
BRANCH  15  16
ATOM     16  O   UNL     1      10.319  -0.855  23.390  0.00  0.00    -0.357 OA
BRANCH  16  17
ATOM     17  C   UNL     1      10.074   0.551  23.258  0.00  0.00    +0.190 C 
BRANCH  17  18
ATOM     18  C   UNL     1       9.758   0.863  21.800  0.00  0.00    +0.184 C 
BRANCH  18  19
ATOM     19  O   UNL     1      10.077   2.222  21.509  0.00  0.00    -0.393 OA
ATOM     20  H   UNL     1       9.750   2.739  22.271  0.00  0.00    +0.209 HD
ENDBRANCH  18  19
ENDBRANCH  17  18
ENDBRANCH  16  17
ENDBRANCH  15  16
ENDBRANCH   2  15
TORSDOF 5
ENDMDL
MODEL 3
REMARK VINA RESULT:      -5.4      3.181      5.348
REMARK  Name = 
REMARK  5 active torsions:
REMARK  status: ('A' for Active; 'I' for Inactive)
REMARK    1  A    between atoms: N_5  and  C_6
REMARK    2  A    between atoms: C_6  and  O_7
REMARK    3  A    between atoms: O_7  and  C_8
REMARK    4  A    between atoms: C_8  and  C_9
REMARK    5  A    between atoms: C_9  and  O_10
REMARK                            x       y       z     vdW  Elec       q    Type
REMARK                         _______ _______ _______ _____ _____    ______ ____
ROOT
ATOM      1  C   UNL     1       9.189  -1.354  21.720  0.00  0.00    +0.203 A 
ATOM      2  N   UNL     1       8.687  -1.949  22.851  0.00  0.00    -0.291 N 
ATOM      3  C   UNL     1       9.046  -1.166  23.911  0.00  0.00    +0.171 A 
ATOM      4  N   UNL     1       8.721  -1.359  25.214  0.00  0.00    -0.196 NA
ATOM      5  C   UNL     1       9.198  -0.436  26.007  0.00  0.00    +0.195 A 
ATOM      6  N   UNL     1       8.930  -0.478  27.337  0.00  0.00    -0.329 N 
ATOM      7  H   UNL     1       9.567  -0.031  27.981  0.00  0.00    +0.145 HD
ATOM      8  H   UNL     1       8.573  -1.374  27.655  0.00  0.00    +0.145 HD
ATOM      9  N   UNL     1       9.978   0.618  25.579  0.00  0.00    -0.293 N 
ATOM     10  H   UNL     1      10.304   1.309  26.231  0.00  0.00    +0.172 HD
ATOM     11  C   UNL     1      10.319   0.861  24.254  0.00  0.00    +0.280 A 
ATOM     12  O   UNL     1      10.989   1.836  23.929  0.00  0.00    -0.265 OA
ATOM     13  C   UNL     1       9.787  -0.144  23.360  0.00  0.00    +0.172 A 
ATOM     14  N   UNL     1       9.866  -0.255  21.994  0.00  0.00    -0.229 NA
ENDROOT
BRANCH   2  15
ATOM     15  C   UNL     1       7.865  -3.137  22.883  0.00  0.00    +0.287 C 
BRANCH  15  16
ATOM     16  O   UNL     1       8.652  -4.223  23.378  0.00  0.00    -0.357 OA
BRANCH  16  17
ATOM     17  C   UNL     1       7.999  -4.862  24.483  0.00  0.00    +0.190 C 
BRANCH  17  18
ATOM     18  C   UNL     1       8.986  -4.979  25.639  0.00  0.00    +0.184 C 
BRANCH  18  19
ATOM     19  O   UNL     1      10.093  -5.792  25.258  0.00  0.00    -0.393 OA
ATOM     20  H   UNL     1      10.812  -5.568  25.880  0.00  0.00    +0.209 HD
ENDBRANCH  18  19
ENDBRANCH  17  18
ENDBRANCH  16  17
ENDBRANCH  15  16
ENDBRANCH   2  15
TORSDOF 5
ENDMDL
MODEL 4
REMARK VINA RESULT:      -5.3      2.290      4.465
REMARK  Name = 
REMARK  5 active torsions:
REMARK  status: ('A' for Active; 'I' for Inactive)
REMARK    1  A    between atoms: N_5  and  C_6
REMARK    2  A    between atoms: C_6  and  O_7
REMARK    3  A    between atoms: O_7  and  C_8
REMARK    4  A    between atoms: C_8  and  C_9
REMARK    5  A    between atoms: C_9  and  O_10
REMARK                            x       y       z     vdW  Elec       q    Type
REMARK                         _______ _______ _______ _____ _____    ______ ____
ROOT
ATOM      1  C   UNL     1       7.145  -3.732  22.495  0.00  0.00    +0.203 A 
ATOM      2  N   UNL     1       6.136  -4.158  23.324  0.00  0.00    -0.291 N 
ATOM      3  C   UNL     1       6.726  -4.704  24.428  0.00  0.00    +0.171 A 
ATOM      4  N   UNL     1       6.100  -5.210  25.521  0.00  0.00    -0.196 NA
ATOM      5  C   UNL     1       6.926  -5.654  26.430  0.00  0.00    +0.195 A 
ATOM      6  N   UNL     1       6.448  -6.162  27.594  0.00  0.00    -0.329 N 
ATOM      7  H   UNL     1       7.010  -6.825  28.108  0.00  0.00    +0.145 HD
ATOM      8  H   UNL     1       5.458  -6.384  27.567  0.00  0.00    +0.145 HD
ATOM      9  N   UNL     1       8.299  -5.641  26.294  0.00  0.00    -0.293 N 
ATOM     10  H   UNL     1       8.889  -5.980  27.033  0.00  0.00    +0.172 HD
ATOM     11  C   UNL     1       8.980  -5.117  25.201  0.00  0.00    +0.280 A 
ATOM     12  O   UNL     1      10.205  -5.103  25.150  0.00  0.00    -0.265 OA
ATOM     13  C   UNL     1       8.079  -4.608  24.190  0.00  0.00    +0.172 A 
ATOM     14  N   UNL     1       8.339  -3.992  22.991  0.00  0.00    -0.229 NA
ENDROOT
BRANCH   2  15
ATOM     15  C   UNL     1       4.721  -3.980  23.088  0.00  0.00    +0.287 C 
BRANCH  15  16
ATOM     16  O   UNL     1       4.171  -5.225  22.651  0.00  0.00    -0.357 OA
BRANCH  16  17
ATOM     17  C   UNL     1       3.007  -5.564  23.415  0.00  0.00    +0.190 C 
BRANCH  17  18
ATOM     18  C   UNL     1       3.087  -7.034  23.811  0.00  0.00    +0.184 C 
BRANCH  18  19
ATOM     19  O   UNL     1       4.441  -7.402  24.059  0.00  0.00    -0.393 OA
ATOM     20  H   UNL     1       4.857  -6.620  24.471  0.00  0.00    +0.209 HD
ENDBRANCH  18  19
ENDBRANCH  17  18
ENDBRANCH  16  17
ENDBRANCH  15  16
ENDBRANCH   2  15
TORSDOF 5
ENDMDL
MODEL 5
REMARK VINA RESULT:      -5.3      2.346      2.681
REMARK  Name = 
REMARK  5 active torsions:
REMARK  status: ('A' for Active; 'I' for Inactive)
REMARK    1  A    between atoms: N_5  and  C_6
REMARK    2  A    between atoms: C_6  and  O_7
REMARK    3  A    between atoms: O_7  and  C_8
REMARK    4  A    between atoms: C_8  and  C_9
REMARK    5  A    between atoms: C_9  and  O_10
REMARK                            x       y       z     vdW  Elec       q    Type
REMARK                         _______ _______ _______ _____ _____    ______ ____
ROOT
ATOM      1  C   UNL     1       4.625  -3.611  25.362  0.00  0.00    +0.203 A 
ATOM      2  N   UNL     1       5.743  -3.644  24.565  0.00  0.00    -0.291 N 
ATOM      3  C   UNL     1       6.708  -4.323  25.253  0.00  0.00    +0.171 A 
ATOM      4  N   UNL     1       7.957  -4.626  24.820  0.00  0.00    -0.196 NA
ATOM      5  C   UNL     1       8.658  -5.299  25.694  0.00  0.00    +0.195 A 
ATOM      6  N   UNL     1       9.919  -5.701  25.391  0.00  0.00    -0.329 N 
ATOM      7  H   UNL     1      10.575  -5.867  26.141  0.00  0.00    +0.145 HD
ATOM      8  H   UNL     1      10.315  -5.231  24.584  0.00  0.00    +0.145 HD
ATOM      9  N   UNL     1       8.195  -5.648  26.946  0.00  0.00    -0.293 N 
ATOM     10  H   UNL     1       8.772  -6.181  27.574  0.00  0.00    +0.172 HD
ATOM     11  C   UNL     1       6.919  -5.372  27.422  0.00  0.00    +0.280 A 
ATOM     12  O   UNL     1       6.552  -5.737  28.534  0.00  0.00    -0.265 OA
ATOM     13  C   UNL     1       6.124  -4.639  26.460  0.00  0.00    +0.172 A 
ATOM     14  N   UNL     1       4.824  -4.206  26.522  0.00  0.00    -0.229 NA
ENDROOT
BRANCH   2  15
ATOM     15  C   UNL     1       5.835  -3.121  23.221  0.00  0.00    +0.287 C 
BRANCH  15  16
ATOM     16  O   UNL     1       5.146  -4.009  22.338  0.00  0.00    -0.357 OA
BRANCH  16  17
ATOM     17  C   UNL     1       6.051  -4.585  21.387  0.00  0.00    +0.190 C 
BRANCH  17  18
ATOM     18  C   UNL     1       6.318  -6.035  21.775  0.00  0.00    +0.184 C 
BRANCH  18  19
ATOM     19  O   UNL     1       7.647  -6.172  22.271  0.00  0.00    -0.393 OA
ATOM     20  H   UNL     1       8.217  -6.258  21.482  0.00  0.00    +0.209 HD
ENDBRANCH  18  19
ENDBRANCH  17  18
ENDBRANCH  16  17
ENDBRANCH  15  16
ENDBRANCH   2  15
TORSDOF 5
ENDMDL
MODEL 6
REMARK VINA RESULT:      -5.2      2.247      4.559
REMARK  Name = 
REMARK  5 active torsions:
REMARK  status: ('A' for Active; 'I' for Inactive)
REMARK    1  A    between atoms: N_5  and  C_6
REMARK    2  A    between atoms: C_6  and  O_7
REMARK    3  A    between atoms: O_7  and  C_8
REMARK    4  A    between atoms: C_8  and  C_9
REMARK    5  A    between atoms: C_9  and  O_10
REMARK                            x       y       z     vdW  Elec       q    Type
REMARK                         _______ _______ _______ _____ _____    ______ ____
ROOT
ATOM      1  C   UNL     1       6.379  -3.445  21.918  0.00  0.00    +0.203 A 
ATOM      2  N   UNL     1       6.676  -4.642  22.522  0.00  0.00    -0.291 N 
ATOM      3  C   UNL     1       7.758  -4.430  23.328  0.00  0.00    +0.171 A 
ATOM      4  N   UNL     1       8.357  -5.334  24.143  0.00  0.00    -0.196 NA
ATOM      5  C   UNL     1       9.368  -4.840  24.808  0.00  0.00    +0.195 A 
ATOM      6  N   UNL     1      10.049  -5.617  25.687  0.00  0.00    -0.329 N 
ATOM      7  H   UNL     1      11.009  -5.389  25.903  0.00  0.00    +0.145 HD
ATOM      8  H   UNL     1       9.869  -6.610  25.580  0.00  0.00    +0.145 HD
ATOM      9  N   UNL     1       9.809  -3.538  24.682  0.00  0.00    -0.293 N 
ATOM     10  H   UNL     1      10.582  -3.206  25.231  0.00  0.00    +0.172 HD
ATOM     11  C   UNL     1       9.214  -2.577  23.873  0.00  0.00    +0.280 A 
ATOM     12  O   UNL     1       9.631  -1.425  23.827  0.00  0.00    -0.265 OA
ATOM     13  C   UNL     1       8.084  -3.104  23.140  0.00  0.00    +0.172 A 
ATOM     14  N   UNL     1       7.217  -2.489  22.271  0.00  0.00    -0.229 NA
ENDROOT
BRANCH   2  15
ATOM     15  C   UNL     1       5.922  -5.867  22.378  0.00  0.00    +0.287 C 
BRANCH  15  16
ATOM     16  O   UNL     1       4.529  -5.545  22.355  0.00  0.00    -0.357 OA
BRANCH  16  17
ATOM     17  C   UNL     1       3.967  -5.623  23.671  0.00  0.00    +0.190 C 
BRANCH  17  18
ATOM     18  C   UNL     1       4.481  -6.885  24.354  0.00  0.00    +0.184 C 
BRANCH  18  19
ATOM     19  O   UNL     1       3.598  -7.975  24.097  0.00  0.00    -0.393 OA
ATOM     20  H   UNL     1       4.159  -8.690  23.737  0.00  0.00    +0.209 HD
ENDBRANCH  18  19
ENDBRANCH  17  18
ENDBRANCH  16  17
ENDBRANCH  15  16
ENDBRANCH   2  15
TORSDOF 5
ENDMDL
MODEL 7
REMARK VINA RESULT:      -4.9      2.198      5.585
REMARK  Name = 
REMARK  5 active torsions:
REMARK  status: ('A' for Active; 'I' for Inactive)
REMARK    1  A    between atoms: N_5  and  C_6
REMARK    2  A    between atoms: C_6  and  O_7
REMARK    3  A    between atoms: O_7  and  C_8
REMARK    4  A    between atoms: C_8  and  C_9
REMARK    5  A    between atoms: C_9  and  O_10
REMARK                            x       y       z     vdW  Elec       q    Type
REMARK                         _______ _______ _______ _____ _____    ______ ____
ROOT
ATOM      1  C   UNL     1       9.029  -4.521  25.316  0.00  0.00    +0.203 A 
ATOM      2  N   UNL     1       7.859  -3.810  25.412  0.00  0.00    -0.291 N 
ATOM      3  C   UNL     1       7.944  -2.772  24.529  0.00  0.00    +0.171 A 
ATOM      4  N   UNL     1       6.990  -1.844  24.267  0.00  0.00    -0.196 NA
ATOM      5  C   UNL     1       7.350  -0.974  23.360  0.00  0.00    +0.195 A 
ATOM      6  N   UNL     1       6.488  -0.001  22.971  0.00  0.00    -0.329 N 
ATOM      7  H   UNL     1       6.858   0.858  22.588  0.00  0.00    +0.145 HD
ATOM      8  H   UNL     1       5.702   0.124  23.599  0.00  0.00    +0.145 HD
ATOM      9  N   UNL     1       8.585  -0.972  22.744  0.00  0.00    -0.293 N 
ATOM     10  H   UNL     1       8.804  -0.289  22.041  0.00  0.00    +0.172 HD
ATOM     11  C   UNL     1       9.582  -1.913  22.971  0.00  0.00    +0.280 A 
ATOM     12  O   UNL     1      10.650  -1.880  22.367  0.00  0.00    -0.265 OA
ATOM     13  C   UNL     1       9.194  -2.892  23.962  0.00  0.00    +0.172 A 
ATOM     14  N   UNL     1       9.864  -3.989  24.444  0.00  0.00    -0.229 NA
ENDROOT
BRANCH   2  15
ATOM     15  C   UNL     1       6.727  -4.159  26.241  0.00  0.00    +0.287 C 
BRANCH  15  16
ATOM     16  O   UNL     1       6.414  -5.538  26.029  0.00  0.00    -0.357 OA
BRANCH  16  17
ATOM     17  C   UNL     1       5.480  -5.687  24.953  0.00  0.00    +0.190 C 
BRANCH  17  18
ATOM     18  C   UNL     1       4.556  -6.861  25.259  0.00  0.00    +0.184 C 
BRANCH  18  19
ATOM     19  O   UNL     1       4.307  -7.611  24.073  0.00  0.00    -0.393 OA
ATOM     20  H   UNL     1       3.415  -7.993  24.184  0.00  0.00    +0.209 HD
ENDBRANCH  18  19
ENDBRANCH  17  18
ENDBRANCH  16  17
ENDBRANCH  15  16
ENDBRANCH   2  15
TORSDOF 5
ENDMDL
MODEL 8
REMARK VINA RESULT:      -4.9      3.256      5.372
REMARK  Name = 
REMARK  5 active torsions:
REMARK  status: ('A' for Active; 'I' for Inactive)
REMARK    1  A    between atoms: N_5  and  C_6
REMARK    2  A    between atoms: C_6  and  O_7
REMARK    3  A    between atoms: O_7  and  C_8
REMARK    4  A    between atoms: C_8  and  C_9
REMARK    5  A    between atoms: C_9  and  O_10
REMARK                            x       y       z     vdW  Elec       q    Type
REMARK                         _______ _______ _______ _____ _____    ______ ____
ROOT
ATOM      1  C   UNL     1       9.034  -1.778  21.902  0.00  0.00    +0.203 A 
ATOM      2  N   UNL     1       8.365  -2.181  23.031  0.00  0.00    -0.291 N 
ATOM      3  C   UNL     1       8.800  -1.396  24.060  0.00  0.00    +0.171 A 
ATOM      4  N   UNL     1       8.370  -1.424  25.346  0.00  0.00    -0.196 NA
ATOM      5  C   UNL     1       8.962  -0.543  26.109  0.00  0.00    +0.195 A 
ATOM      6  N   UNL     1       8.614  -0.431  27.416  0.00  0.00    -0.329 N 
ATOM      7  H   UNL     1       9.284  -0.057  28.072  0.00  0.00    +0.145 HD
ATOM      8  H   UNL     1       8.080  -1.220  27.766  0.00  0.00    +0.145 HD
ATOM      9  N   UNL     1       9.947   0.317  25.668  0.00  0.00    -0.293 N 
ATOM     10  H   UNL     1      10.357   0.987  26.295  0.00  0.00    +0.172 HD
ATOM     11  C   UNL     1      10.404   0.390  24.358  0.00  0.00    +0.280 A 
ATOM     12  O   UNL     1      11.261   1.199  24.018  0.00  0.00    -0.265 OA
ATOM     13  C   UNL     1       9.749  -0.570  23.497  0.00  0.00    +0.172 A 
ATOM     14  N   UNL     1       9.885  -0.801  22.150  0.00  0.00    -0.229 NA
ENDROOT
BRANCH   2  15
ATOM     15  C   UNL     1       7.337  -3.196  23.083  0.00  0.00    +0.287 C 
BRANCH  15  16
ATOM     16  O   UNL     1       7.947  -4.447  23.411  0.00  0.00    -0.357 OA
BRANCH  16  17
ATOM     17  C   UNL     1       7.419  -5.500  22.595  0.00  0.00    +0.190 C 
BRANCH  17  18
ATOM     18  C   UNL     1       6.056  -5.074  22.059  0.00  0.00    +0.184 C 
BRANCH  18  19
ATOM     19  O   UNL     1       5.551  -6.061  21.163  0.00  0.00    -0.393 OA
ATOM     20  H   UNL     1       6.333  -6.429  20.708  0.00  0.00    +0.209 HD
ENDBRANCH  18  19
ENDBRANCH  17  18
ENDBRANCH  16  17
ENDBRANCH  15  16
ENDBRANCH   2  15
TORSDOF 5
ENDMDL
MODEL 9
REMARK VINA RESULT:      -4.9      1.750      3.286
REMARK  Name = 
REMARK  5 active torsions:
REMARK  status: ('A' for Active; 'I' for Inactive)
REMARK    1  A    between atoms: N_5  and  C_6
REMARK    2  A    between atoms: C_6  and  O_7
REMARK    3  A    between atoms: O_7  and  C_8
REMARK    4  A    between atoms: C_8  and  C_9
REMARK    5  A    between atoms: C_9  and  O_10
REMARK                            x       y       z     vdW  Elec       q    Type
REMARK                         _______ _______ _______ _____ _____    ______ ____
ROOT
ATOM      1  C   UNL     1       9.643  -3.056  24.215  0.00  0.00    +0.203 A 
ATOM      2  N   UNL     1       8.652  -2.831  23.292  0.00  0.00    -0.291 N 
ATOM      3  C   UNL     1       7.578  -3.590  23.660  0.00  0.00    +0.171 A 
ATOM      4  N   UNL     1       6.367  -3.639  23.051  0.00  0.00    -0.196 NA
ATOM      5  C   UNL     1       5.526  -4.449  23.638  0.00  0.00    +0.195 A 
ATOM      6  N   UNL     1       4.263  -4.581  23.160  0.00  0.00    -0.329 N 
ATOM      7  H   UNL     1       3.754  -5.435  23.344  0.00  0.00    +0.145 HD
ATOM      8  H   UNL     1       4.139  -4.214  22.222  0.00  0.00    +0.145 HD
ATOM      9  N   UNL     1       5.836  -5.207  24.749  0.00  0.00    -0.293 N 
ATOM     10  H   UNL     1       5.145  -5.802  25.170  0.00  0.00    +0.172 HD
ATOM     11  C   UNL     1       7.057  -5.174  25.412  0.00  0.00    +0.280 A 
ATOM     12  O   UNL     1       7.263  -5.846  26.417  0.00  0.00    -0.265 OA
ATOM     13  C   UNL     1       7.995  -4.270  24.784  0.00  0.00    +0.172 A 
ATOM     14  N   UNL     1       9.277  -3.928  25.135  0.00  0.00    -0.229 NA
ENDROOT
BRANCH   2  15
ATOM     15  C   UNL     1       8.725  -1.899  22.189  0.00  0.00    +0.287 C 
BRANCH  15  16
ATOM     16  O   UNL     1      10.077  -1.457  22.053  0.00  0.00    -0.357 OA
BRANCH  16  17
ATOM     17  C   UNL     1      10.180  -0.050  22.302  0.00  0.00    +0.190 C 
BRANCH  17  18
ATOM     18  C   UNL     1       9.139   0.679  21.460  0.00  0.00    +0.184 C 
BRANCH  18  19
ATOM     19  O   UNL     1       9.469   2.062  21.360  0.00  0.00    -0.393 OA
ATOM     20  H   UNL     1      10.306   2.170  21.852  0.00  0.00    +0.209 HD
ENDBRANCH  18  19
ENDBRANCH  17  18
ENDBRANCH  16  17
ENDBRANCH  15  16
ENDBRANCH   2  15
TORSDOF 5
ENDMDL
