MODEL 1
REMARK VINA RESULT:      -5.9      0.000      0.000
REMARK  Name = 
REMARK  6 active torsions:
REMARK  status: ('A' for Active; 'I' for Inactive)
REMARK    1  A    between atoms: C_3  and  C_19
REMARK    2  A    between atoms: N_5  and  C1*_6
REMARK    3  A    between atoms: C2*_8  and  O2*_18
REMARK    4  A    between atoms: C3*_10  and  O3*_17
REMARK    5  A    between atoms: C4*_12  and  C5*_15
REMARK    6  A    between atoms: C5*_15  and  O5*_16
REMARK                            x       y       z     vdW  Elec       q    Type
REMARK                         _______ _______ _______ _____ _____    ______ ____
ROOT
ATOM      1  C1* UNL     1       9.075  -1.800  23.755  0.00  0.00    +0.270 C 
ATOM      2  O4* UNL     1       8.115  -0.729  23.662  0.00  0.00    -0.344 OA
ATOM      3  C4* UNL     1       8.839   0.458  23.255  0.00  0.00    +0.177 C 
ATOM      4  C3* UNL     1      10.327   0.077  23.158  0.00  0.00    +0.178 C 
ATOM      5  C2* UNL     1      10.251  -1.410  22.851  0.00  0.00    +0.196 C 
ENDROOT
BRANCH   1   7
ATOM      6  C   UNL     1       8.558  -4.198  24.213  0.00  0.00    +0.223 A 
ATOM      7  N   UNL     1       8.409  -3.053  23.489  0.00  0.00    -0.220 N 
ATOM      8  N   UNL     1       7.615  -3.255  22.415  0.00  0.00    -0.142 NA
ATOM      9  C   UNL     1       7.291  -4.559  22.550  0.00  0.00    +0.236 A 
ATOM     10  N   UNL     1       7.881  -5.169  23.650  0.00  0.00    -0.211 NA
BRANCH   9  11
ATOM     11  C   UNL     1       6.414  -5.312  21.632  0.00  0.00    +0.281 C 
ATOM     12  N   UNL     1       6.198  -6.612  22.019  0.00  0.00    -0.323 N 
ATOM     13  H   UNL     1       5.598  -7.200  21.462  0.00  0.00    +0.145 HD
ATOM     14  H   UNL     1       6.617  -6.954  22.875  0.00  0.00    +0.145 HD
ATOM     15  O   UNL     1       5.906  -4.863  20.610  0.00  0.00    -0.267 OA
ENDBRANCH   9  11
ENDBRANCH   1   7
BRANCH   4  16
ATOM     16  O3* UNL     1      11.005   0.273  24.402  0.00  0.00    -0.386 OA
ATOM     17  H3* UNL     1      10.400  -0.009  25.113  0.00  0.00    +0.210 HD
ENDBRANCH   4  16
BRANCH   5  18
ATOM     18  O2* UNL     1      10.005  -1.568  21.451  0.00  0.00    -0.385 OA
ATOM     19  H2* UNL     1      10.047  -0.666  21.060  0.00  0.00    +0.210 HD
ENDBRANCH   5  18
BRANCH   3  20
ATOM     20  C5* UNL     1       8.539   1.588  24.244  0.00  0.00    +0.190 C 
BRANCH  20  21
ATOM     21  O5* UNL     1       8.670   1.153  25.600  0.00  0.00    -0.392 OA
ATOM     22  H5* UNL     1       8.146   0.342  25.711  0.00  0.00    +0.210 HD
ENDBRANCH  20  21
ENDBRANCH   3  20
TORSDOF 6
ENDMDL
MODEL 2
REMARK VINA RESULT:      -5.9      1.376      1.604
REMARK  Name = 
REMARK  6 active torsions:
REMARK  status: ('A' for Active; 'I' for Inactive)
REMARK    1  A    between atoms: C_3  and  C_19
REMARK    2  A    between atoms: N_5  and  C1*_6
REMARK    3  A    between atoms: C2*_8  and  O2*_18
REMARK    4  A    between atoms: C3*_10  and  O3*_17
REMARK    5  A    between atoms: C4*_12  and  C5*_15
REMARK    6  A    between atoms: C5*_15  and  O5*_16
REMARK                            x       y       z     vdW  Elec       q    Type
REMARK                         _______ _______ _______ _____ _____    ______ ____
ROOT
ATOM      1  C1* UNL     1       8.417  -1.553  23.338  0.00  0.00    +0.270 C 
ATOM      2  O4* UNL     1       8.370  -0.918  22.045  0.00  0.00    -0.344 OA
ATOM      3  C4* UNL     1       9.544  -0.075  21.942  0.00  0.00    +0.177 C 
ATOM      4  C3* UNL     1      10.299  -0.174  23.280  0.00  0.00    +0.178 C 
ATOM      5  C2* UNL     1       9.889  -1.554  23.770  0.00  0.00    +0.196 C 
ENDROOT
BRANCH   1   7
ATOM      6  C   UNL     1       7.558  -3.690  24.299  0.00  0.00    +0.223 A 
ATOM      7  N   UNL     1       7.739  -2.825  23.261  0.00  0.00    -0.220 N 
ATOM      8  N   UNL     1       7.275  -3.347  22.105  0.00  0.00    -0.142 NA
ATOM      9  C   UNL     1       6.800  -4.545  22.512  0.00  0.00    +0.236 A 
ATOM     10  N   UNL     1       6.983  -4.786  23.867  0.00  0.00    -0.211 NA
BRANCH   9  11
ATOM     11  C   UNL     1       6.159  -5.542  21.633  0.00  0.00    +0.281 C 
ATOM     12  N   UNL     1       5.774  -6.687  22.288  0.00  0.00    -0.323 N 
ATOM     13  H   UNL     1       5.312  -7.420  21.773  0.00  0.00    +0.145 HD
ATOM     14  H   UNL     1       5.928  -6.767  23.286  0.00  0.00    +0.145 HD
ATOM     15  O   UNL     1       5.968  -5.408  20.428  0.00  0.00    -0.267 OA
ENDBRANCH   9  11
ENDBRANCH   1   7
BRANCH   4  16
ATOM     16  O3* UNL     1       9.855   0.815  24.213  0.00  0.00    -0.386 OA
ATOM     17  H3* UNL     1      10.548   0.907  24.894  0.00  0.00    +0.210 HD
ENDBRANCH   4  16
BRANCH   5  18
ATOM     18  O2* UNL     1      10.703  -2.526  23.110  0.00  0.00    -0.385 OA
ATOM     19  H2* UNL     1      10.467  -2.482  22.156  0.00  0.00    +0.210 HD
ENDBRANCH   5  18
BRANCH   3  20
ATOM     20  C5* UNL     1       9.107   1.344  21.568  0.00  0.00    +0.190 C 
BRANCH  20  21
ATOM     21  O5* UNL     1      10.199   2.265  21.618  0.00  0.00    -0.392 OA
ATOM     22  H5* UNL     1      10.918   1.915  21.066  0.00  0.00    +0.210 HD
ENDBRANCH  20  21
ENDBRANCH   3  20
TORSDOF 6
ENDMDL
MODEL 3
REMARK VINA RESULT:      -5.7      2.223      2.851
REMARK  Name = 
REMARK  6 active torsions:
REMARK  status: ('A' for Active; 'I' for Inactive)
REMARK    1  A    between atoms: C_3  and  C_19
REMARK    2  A    between atoms: N_5  and  C1*_6
REMARK    3  A    between atoms: C2*_8  and  O2*_18
REMARK    4  A    between atoms: C3*_10  and  O3*_17
REMARK    5  A    between atoms: C4*_12  and  C5*_15
REMARK    6  A    between atoms: C5*_15  and  O5*_16
REMARK                            x       y       z     vdW  Elec       q    Type
REMARK                         _______ _______ _______ _____ _____    ______ ____
ROOT
ATOM      1  C1* UNL     1       8.980  -0.935  23.498  0.00  0.00    +0.270 C 
ATOM      2  O4* UNL     1       7.858  -0.284  22.871  0.00  0.00    -0.344 OA
ATOM      3  C4* UNL     1       8.394   0.749  22.008  0.00  0.00    +0.177 C 
ATOM      4  C3* UNL     1       9.923   0.746  22.182  0.00  0.00    +0.178 C 
ATOM      5  C2* UNL     1      10.190  -0.696  22.585  0.00  0.00    +0.196 C 
ENDROOT
BRANCH   1   7
ATOM      6  C   UNL     1       7.656  -3.025  23.165  0.00  0.00    +0.223 A 
ATOM      7  N   UNL     1       8.624  -2.302  23.797  0.00  0.00    -0.220 N 
ATOM      8  N   UNL     1       9.166  -3.001  24.818  0.00  0.00    -0.142 NA
ATOM      9  C   UNL     1       8.488  -4.167  24.747  0.00  0.00    +0.236 A 
ATOM     10  N   UNL     1       7.532  -4.196  23.739  0.00  0.00    -0.211 NA
BRANCH   9  11
ATOM     11  C   UNL     1       8.694  -5.320  25.645  0.00  0.00    +0.281 C 
ATOM     12  N   UNL     1       9.960  -5.850  25.579  0.00  0.00    -0.323 N 
ATOM     13  H   UNL     1      10.201  -6.631  26.169  0.00  0.00    +0.145 HD
ATOM     14  H   UNL     1      10.646  -5.429  24.964  0.00  0.00    +0.145 HD
ATOM     15  O   UNL     1       7.847  -5.797  26.393  0.00  0.00    -0.267 OA
ENDBRANCH   9  11
ENDBRANCH   1   7
BRANCH   4  16
ATOM     16  O3* UNL     1      10.337   1.620  23.235  0.00  0.00    -0.386 OA
ATOM     17  H3* UNL     1      11.250   1.904  23.038  0.00  0.00    +0.210 HD
ENDBRANCH   4  16
BRANCH   5  18
ATOM     18  O2* UNL     1      10.211  -1.498  21.402  0.00  0.00    -0.385 OA
ATOM     19  H2* UNL     1       9.763  -2.343  21.633  0.00  0.00    +0.210 HD
ENDBRANCH   5  18
BRANCH   3  20
ATOM     20  C5* UNL     1       7.722   2.081  22.351  0.00  0.00    +0.190 C 
BRANCH  20  21
ATOM     21  O5* UNL     1       8.503   3.196  21.913  0.00  0.00    -0.392 OA
ATOM     22  H5* UNL     1       8.582   3.150  20.946  0.00  0.00    +0.210 HD
ENDBRANCH  20  21
ENDBRANCH   3  20
TORSDOF 6
ENDMDL
MODEL 4
REMARK VINA RESULT:      -5.6      2.451      3.549
REMARK  Name = 
REMARK  6 active torsions:
REMARK  status: ('A' for Active; 'I' for Inactive)
REMARK    1  A    between atoms: C_3  and  C_19
REMARK    2  A    between atoms: N_5  and  C1*_6
REMARK    3  A    between atoms: C2*_8  and  O2*_18
REMARK    4  A    between atoms: C3*_10  and  O3*_17
REMARK    5  A    between atoms: C4*_12  and  C5*_15
REMARK    6  A    between atoms: C5*_15  and  O5*_16
REMARK                            x       y       z     vdW  Elec       q    Type
REMARK                         _______ _______ _______ _____ _____    ______ ____
ROOT
ATOM      1  C1* UNL     1       8.616  -0.531  23.904  0.00  0.00    +0.270 C 
ATOM      2  O4* UNL     1       9.723  -0.199  23.043  0.00  0.00    -0.344 OA
ATOM      3  C4* UNL     1      10.118   1.158  23.362  0.00  0.00    +0.177 C 
ATOM      4  C3* UNL     1       9.146   1.678  24.437  0.00  0.00    +0.178 C 
ATOM      5  C2* UNL     1       8.721   0.391  25.126  0.00  0.00    +0.196 C 
ENDROOT
BRANCH   1   7
ATOM      6  C   UNL     1       8.285  -2.908  23.217  0.00  0.00    +0.223 A 
ATOM      7  N   UNL     1       8.613  -1.956  24.136  0.00  0.00    -0.220 N 
ATOM      8  N   UNL     1       8.855  -2.509  25.345  0.00  0.00    -0.142 NA
ATOM      9  C   UNL     1       8.673  -3.823  25.091  0.00  0.00    +0.236 A 
ATOM     10  N   UNL     1       8.301  -4.091  23.780  0.00  0.00    -0.211 NA
BRANCH   9  11
ATOM     11  C   UNL     1       8.825  -4.905  26.083  0.00  0.00    +0.281 C 
ATOM     12  N   UNL     1       9.744  -5.859  25.722  0.00  0.00    -0.323 N 
ATOM     13  H   UNL     1       9.929  -6.630  26.345  0.00  0.00    +0.145 HD
ATOM     14  H   UNL     1      10.250  -5.760  24.849  0.00  0.00    +0.145 HD
ATOM     15  O   UNL     1       8.210  -4.987  27.142  0.00  0.00    -0.267 OA
ENDBRANCH   9  11
ENDBRANCH   1   7
BRANCH   4  16
ATOM     16  O3* UNL     1       8.002   2.308  23.855  0.00  0.00    -0.386 OA
ATOM     17  H3* UNL     1       7.274   2.248  24.502  0.00  0.00    +0.210 HD
ENDBRANCH   4  16
BRANCH   5  18
ATOM     18  O2* UNL     1       9.738   0.025  26.062  0.00  0.00    -0.385 OA
ATOM     19  H2* UNL     1      10.445   0.705  25.982  0.00  0.00    +0.210 HD
ENDBRANCH   5  18
BRANCH   3  20
ATOM     20  C5* UNL     1      10.138   1.986  22.074  0.00  0.00    +0.190 C 
BRANCH  20  21
ATOM     21  O5* UNL     1       9.069   1.625  21.196  0.00  0.00    -0.392 OA
ATOM     22  H5* UNL     1       9.200   2.088  20.352  0.00  0.00    +0.210 HD
ENDBRANCH  20  21
ENDBRANCH   3  20
TORSDOF 6
ENDMDL
MODEL 5
REMARK VINA RESULT:      -5.6      3.190      5.933
REMARK  Name = 
REMARK  6 active torsions:
REMARK  status: ('A' for Active; 'I' for Inactive)
REMARK    1  A    between atoms: C_3  and  C_19
REMARK    2  A    between atoms: N_5  and  C1*_6
REMARK    3  A    between atoms: C2*_8  and  O2*_18
REMARK    4  A    between atoms: C3*_10  and  O3*_17
REMARK    5  A    between atoms: C4*_12  and  C5*_15
REMARK    6  A    between atoms: C5*_15  and  O5*_16
REMARK                            x       y       z     vdW  Elec       q    Type
REMARK                         _______ _______ _______ _____ _____    ______ ____
ROOT
ATOM      1  C1* UNL     1       8.257  -1.978  24.652  0.00  0.00    +0.270 C 
ATOM      2  O4* UNL     1       8.467  -2.430  26.004  0.00  0.00    -0.344 OA
ATOM      3  C4* UNL     1       8.703  -3.859  25.944  0.00  0.00    +0.177 C 
ATOM      4  C3* UNL     1       8.565  -4.285  24.471  0.00  0.00    +0.178 C 
ATOM      5  C2* UNL     1       8.938  -3.005  23.738  0.00  0.00    +0.196 C 
ENDROOT
BRANCH   1   7
ATOM      6  C   UNL     1       8.340   0.399  25.408  0.00  0.00    +0.223 A 
ATOM      7  N   UNL     1       8.679  -0.602  24.546  0.00  0.00    -0.220 N 
ATOM      8  N   UNL     1       9.400  -0.127  23.508  0.00  0.00    -0.142 NA
ATOM      9  C   UNL     1       9.485   1.188  23.806  0.00  0.00    +0.236 A 
ATOM     10  N   UNL     1       8.817   1.539  24.972  0.00  0.00    -0.211 NA
BRANCH   9  11
ATOM     11  C   UNL     1      10.191   2.196  22.991  0.00  0.00    +0.281 C 
ATOM     12  N   UNL     1       9.940   2.088  21.644  0.00  0.00    -0.323 N 
ATOM     13  H   UNL     1      10.366   2.744  21.008  0.00  0.00    +0.145 HD
ATOM     14  H   UNL     1       9.305   1.373  21.310  0.00  0.00    +0.145 HD
ATOM     15  O   UNL     1      10.940   3.063  23.427  0.00  0.00    -0.267 OA
ENDBRANCH   9  11
ENDBRANCH   1   7
BRANCH   4  16
ATOM     16  O3* UNL     1       7.219  -4.644  24.148  0.00  0.00    -0.386 OA
ATOM     17  H3* UNL     1       7.156  -5.616  24.198  0.00  0.00    +0.210 HD
ENDBRANCH   4  16
BRANCH   5  18
ATOM     18  O2* UNL     1      10.363  -2.911  23.694  0.00  0.00    -0.385 OA
ATOM     19  H2* UNL     1      10.593  -2.612  22.785  0.00  0.00    +0.210 HD
ENDBRANCH   5  18
BRANCH   3  20
ATOM     20  C5* UNL     1       7.735  -4.563  26.898  0.00  0.00    +0.190 C 
BRANCH  20  21
ATOM     21  O5* UNL     1       7.928  -5.980  26.897  0.00  0.00    -0.392 OA
ATOM     22  H5* UNL     1       7.086  -6.401  26.653  0.00  0.00    +0.210 HD
ENDBRANCH  20  21
ENDBRANCH   3  20
TORSDOF 6
ENDMDL
MODEL 6
REMARK VINA RESULT:      -5.5      3.080      5.554
REMARK  Name = 
REMARK  6 active torsions:
REMARK  status: ('A' for Active; 'I' for Inactive)
REMARK    1  A    between atoms: C_3  and  C_19
REMARK    2  A    between atoms: N_5  and  C1*_6
REMARK    3  A    between atoms: C2*_8  and  O2*_18
REMARK    4  A    between atoms: C3*_10  and  O3*_17
REMARK    5  A    between atoms: C4*_12  and  C5*_15
REMARK    6  A    between atoms: C5*_15  and  O5*_16
REMARK                            x       y       z     vdW  Elec       q    Type
REMARK                         _______ _______ _______ _____ _____    ______ ____
ROOT
ATOM      1  C1* UNL     1       8.045  -2.577  24.185  0.00  0.00    +0.270 C 
ATOM      2  O4* UNL     1       9.124  -3.334  24.768  0.00  0.00    -0.344 OA
ATOM      3  C4* UNL     1       8.604  -4.652  25.072  0.00  0.00    +0.177 C 
ATOM      4  C3* UNL     1       7.111  -4.654  24.698  0.00  0.00    +0.178 C 
ATOM      5  C2* UNL     1       7.060  -3.600  23.603  0.00  0.00    +0.196 C 
ENDROOT
BRANCH   1   7
ATOM      6  C   UNL     1       9.776  -1.700  22.615  0.00  0.00    +0.223 A 
ATOM      7  N   UNL     1       8.595  -1.589  23.288  0.00  0.00    -0.220 N 
ATOM      8  N   UNL     1       8.028  -0.381  23.080  0.00  0.00    -0.142 NA
ATOM      9  C   UNL     1       8.915   0.203  22.246  0.00  0.00    +0.236 A 
ATOM     10  N   UNL     1      10.018  -0.591  21.959  0.00  0.00    -0.211 NA
BRANCH   9  11
ATOM     11  C   UNL     1       8.778   1.561  21.684  0.00  0.00    +0.281 C 
ATOM     12  N   UNL     1       9.971   2.233  21.572  0.00  0.00    -0.323 N 
ATOM     13  H   UNL     1       9.980   3.163  21.182  0.00  0.00    +0.145 HD
ATOM     14  H   UNL     1      10.831   1.775  21.851  0.00  0.00    +0.145 HD
ATOM     15  O   UNL     1       7.723   2.083  21.338  0.00  0.00    -0.267 OA
ENDBRANCH   9  11
ENDBRANCH   1   7
BRANCH   4  16
ATOM     16  O3* UNL     1       6.290  -4.242  25.794  0.00  0.00    -0.386 OA
ATOM     17  H3* UNL     1       6.769  -3.538  26.271  0.00  0.00    +0.210 HD
ENDBRANCH   4  16
BRANCH   5  18
ATOM     18  O2* UNL     1       7.482  -4.203  22.378  0.00  0.00    -0.385 OA
ATOM     19  H2* UNL     1       6.745  -4.787  22.089  0.00  0.00    +0.210 HD
ENDBRANCH   5  18
BRANCH   3  20
ATOM     20  C5* UNL     1       8.887  -4.972  26.542  0.00  0.00    +0.190 C 
BRANCH  20  21
ATOM     21  O5* UNL     1       8.022  -5.998  27.037  0.00  0.00    -0.392 OA
ATOM     22  H5* UNL     1       7.324  -5.577  27.567  0.00  0.00    +0.210 HD
ENDBRANCH  20  21
ENDBRANCH   3  20
TORSDOF 6
ENDMDL
MODEL 7
REMARK VINA RESULT:      -5.5      1.973      2.511
REMARK  Name = 
REMARK  6 active torsions:
REMARK  status: ('A' for Active; 'I' for Inactive)
REMARK    1  A    between atoms: C_3  and  C_19
REMARK    2  A    between atoms: N_5  and  C1*_6
REMARK    3  A    between atoms: C2*_8  and  O2*_18
REMARK    4  A    between atoms: C3*_10  and  O3*_17
REMARK    5  A    between atoms: C4*_12  and  C5*_15
REMARK    6  A    between atoms: C5*_15  and  O5*_16
REMARK                            x       y       z     vdW  Elec       q    Type
REMARK                         _______ _______ _______ _____ _____    ______ ____
ROOT
ATOM      1  C1* UNL     1       9.039  -0.498  22.737  0.00  0.00    +0.270 C 
ATOM      2  O4* UNL     1       9.646   0.242  23.813  0.00  0.00    -0.344 OA
ATOM      3  C4* UNL     1       9.252   1.627  23.654  0.00  0.00    +0.177 C 
ATOM      4  C3* UNL     1       8.409   1.719  22.369  0.00  0.00    +0.178 C 
ATOM      5  C2* UNL     1       7.824   0.318  22.277  0.00  0.00    +0.196 C 
ENDROOT
BRANCH   1   7
ATOM      6  C   UNL     1       9.632  -2.575  23.988  0.00  0.00    +0.223 A 
ATOM      7  N   UNL     1       8.812  -1.856  23.169  0.00  0.00    -0.220 N 
ATOM      8  N   UNL     1       7.781  -2.610  22.729  0.00  0.00    -0.142 NA
ATOM      9  C   UNL     1       8.021  -3.792  23.336  0.00  0.00    +0.236 A 
ATOM     10  N   UNL     1       9.176  -3.798  24.108  0.00  0.00    -0.211 NA
BRANCH   9  11
ATOM     11  C   UNL     1       7.177  -4.996  23.207  0.00  0.00    +0.281 C 
ATOM     12  N   UNL     1       7.366  -5.676  22.029  0.00  0.00    -0.323 N 
ATOM     13  H   UNL     1       6.844  -6.522  21.857  0.00  0.00    +0.145 HD
ATOM     14  H   UNL     1       8.049  -5.340  21.361  0.00  0.00    +0.145 HD
ATOM     15  O   UNL     1       6.369  -5.389  24.042  0.00  0.00    -0.267 OA
ENDBRANCH   9  11
ENDBRANCH   1   7
BRANCH   4  16
ATOM     16  O3* UNL     1       9.220   1.973  21.220  0.00  0.00    -0.386 OA
ATOM     17  H3* UNL     1       9.287   2.941  21.117  0.00  0.00    +0.210 HD
ENDBRANCH   4  16
BRANCH   5  18
ATOM     18  O2* UNL     1       6.693   0.244  23.149  0.00  0.00    -0.385 OA
ATOM     19  H2* UNL     1       5.983  -0.212  22.642  0.00  0.00    +0.210 HD
ENDBRANCH   5  18
BRANCH   3  20
ATOM     20  C5* UNL     1      10.508   2.504  23.649  0.00  0.00    +0.190 C 
BRANCH  20  21
ATOM     21  O5* UNL     1      10.238   3.811  23.134  0.00  0.00    -0.392 OA
ATOM     22  H5* UNL     1      11.087   4.237  22.926  0.00  0.00    +0.210 HD
ENDBRANCH  20  21
ENDBRANCH   3  20
TORSDOF 6
ENDMDL
MODEL 8
REMARK VINA RESULT:      -5.4      2.586      3.494
REMARK  Name = 
REMARK  6 active torsions:
REMARK  status: ('A' for Active; 'I' for Inactive)
REMARK    1  A    between atoms: C_3  and  C_19
REMARK    2  A    between atoms: N_5  and  C1*_6
REMARK    3  A    between atoms: C2*_8  and  O2*_18
REMARK    4  A    between atoms: C3*_10  and  O3*_17
REMARK    5  A    between atoms: C4*_12  and  C5*_15
REMARK    6  A    between atoms: C5*_15  and  O5*_16
REMARK                            x       y       z     vdW  Elec       q    Type
REMARK                         _______ _______ _______ _____ _____    ______ ____
ROOT
ATOM      1  C1* UNL     1       9.325  -2.826  23.800  0.00  0.00    +0.270 C 
ATOM      2  O4* UNL     1       9.473  -1.531  24.414  0.00  0.00    -0.344 OA
ATOM      3  C4* UNL     1       9.151  -0.542  23.406  0.00  0.00    +0.177 C 
ATOM      4  C3* UNL     1       8.852  -1.299  22.099  0.00  0.00    +0.178 C 
ATOM      5  C2* UNL     1       8.363  -2.641  22.620  0.00  0.00    +0.196 C 
ENDROOT
BRANCH   1   7
ATOM      6  C   UNL     1       9.751  -4.824  25.234  0.00  0.00    +0.223 A 
ATOM      7  N   UNL     1       8.969  -3.790  24.813  0.00  0.00    -0.220 N 
ATOM      8  N   UNL     1       7.756  -3.824  25.407  0.00  0.00    -0.142 NA
ATOM      9  C   UNL     1       7.867  -4.909  26.204  0.00  0.00    +0.236 A 
ATOM     10  N   UNL     1       9.092  -5.555  26.098  0.00  0.00    -0.211 NA
BRANCH   9  11
ATOM     11  C   UNL     1       6.809  -5.408  27.104  0.00  0.00    +0.281 C 
ATOM     12  N   UNL     1       5.914  -6.248  26.488  0.00  0.00    -0.323 N 
ATOM     13  H   UNL     1       5.164  -6.653  27.027  0.00  0.00    +0.145 HD
ATOM     14  H   UNL     1       6.036  -6.478  25.509  0.00  0.00    +0.145 HD
ATOM     15  O   UNL     1       6.697  -5.126  28.293  0.00  0.00    -0.267 OA
ENDBRANCH   9  11
ENDBRANCH   1   7
BRANCH   4  16
ATOM     16  O3* UNL     1      10.033  -1.492  21.318  0.00  0.00    -0.386 OA
ATOM     17  H3* UNL     1      10.470  -0.625  21.226  0.00  0.00    +0.210 HD
ENDBRANCH   4  16
BRANCH   5  18
ATOM     18  O2* UNL     1       6.988  -2.507  22.988  0.00  0.00    -0.385 OA
ATOM     19  H2* UNL     1       6.747  -3.335  23.463  0.00  0.00    +0.210 HD
ENDBRANCH   5  18
BRANCH   3  20
ATOM     20  C5* UNL     1      10.305   0.460  23.306  0.00  0.00    +0.190 C 
BRANCH  20  21
ATOM     21  O5* UNL     1      10.222   1.245  22.113  0.00  0.00    -0.392 OA
ATOM     22  H5* UNL     1       9.755   2.070  22.325  0.00  0.00    +0.210 HD
ENDBRANCH  20  21
ENDBRANCH   3  20
TORSDOF 6
ENDMDL
MODEL 9
REMARK VINA RESULT:      -5.4      2.721      5.867
REMARK  Name = 
REMARK  6 active torsions:
REMARK  status: ('A' for Active; 'I' for Inactive)
REMARK    1  A    between atoms: C_3  and  C_19
REMARK    2  A    between atoms: N_5  and  C1*_6
REMARK    3  A    between atoms: C2*_8  and  O2*_18
REMARK    4  A    between atoms: C3*_10  and  O3*_17
REMARK    5  A    between atoms: C4*_12  and  C5*_15
REMARK    6  A    between atoms: C5*_15  and  O5*_16
REMARK                            x       y       z     vdW  Elec       q    Type
REMARK                         _______ _______ _______ _____ _____    ______ ____
ROOT
ATOM      1  C1* UNL     1       8.010  -3.139  23.312  0.00  0.00    +0.270 C 
ATOM      2  O4* UNL     1       7.476  -3.810  22.154  0.00  0.00    -0.344 OA
ATOM      3  C4* UNL     1       6.302  -4.539  22.588  0.00  0.00    +0.177 C 
ATOM      4  C3* UNL     1       6.170  -4.333  24.108  0.00  0.00    +0.178 C 
ATOM      5  C2* UNL     1       6.848  -2.986  24.302  0.00  0.00    +0.196 C 
ENDROOT
BRANCH   1   7
ATOM      6  C   UNL     1      10.038  -1.728  22.955  0.00  0.00    +0.223 A 
ATOM      7  N   UNL     1       8.693  -1.940  22.887  0.00  0.00    -0.220 N 
ATOM      8  N   UNL     1       8.048  -0.838  22.446  0.00  0.00    -0.142 NA
ATOM      9  C   UNL     1       9.071   0.020  22.243  0.00  0.00    +0.236 A 
ATOM     10  N   UNL     1      10.314  -0.506  22.571  0.00  0.00    -0.211 NA
BRANCH   9  11
ATOM     11  C   UNL     1       8.928   1.401  21.742  0.00  0.00    +0.281 C 
ATOM     12  N   UNL     1      10.114   2.092  21.686  0.00  0.00    -0.323 N 
ATOM     13  H   UNL     1      10.119   3.039  21.340  0.00  0.00    +0.145 HD
ATOM     14  H   UNL     1      10.974   1.632  21.961  0.00  0.00    +0.145 HD
ATOM     15  O   UNL     1       7.874   1.925  21.398  0.00  0.00    -0.267 OA
ENDBRANCH   9  11
ENDBRANCH   1   7
BRANCH   4  16
ATOM     16  O3* UNL     1       6.879  -5.334  24.842  0.00  0.00    -0.386 OA
ATOM     17  H3* UNL     1       7.613  -5.645  24.279  0.00  0.00    +0.210 HD
ENDBRANCH   4  16
BRANCH   5  18
ATOM     18  O2* UNL     1       5.912  -1.958  23.968  0.00  0.00    -0.385 OA
ATOM     19  H2* UNL     1       6.310  -1.455  23.221  0.00  0.00    +0.210 HD
ENDBRANCH   5  18
BRANCH   3  20
ATOM     20  C5* UNL     1       6.439  -6.003  22.159  0.00  0.00    +0.190 C 
BRANCH  20  21
ATOM     21  O5* UNL     1       5.432  -6.825  22.755  0.00  0.00    -0.392 OA
ATOM     22  H5* UNL     1       5.429  -6.657  23.712  0.00  0.00    +0.210 HD
ENDBRANCH  20  21
ENDBRANCH   3  20
TORSDOF 6
ENDMDL
