MODEL 1
REMARK VINA RESULT:      -4.9      0.000      0.000
REMARK  Name = 
REMARK  19 active torsions:
REMARK  status: ('A' for Active; 'I' for Inactive)
REMARK    1  A    between atoms: C_1  and  C_2
REMARK    2  A    between atoms: C_2  and  C_3
REMARK    3  A    between atoms: C_2  and  C_4
REMARK    4  A    between atoms: C_4  and  C_6
REMARK    5  A    between atoms: C_4  and  N_66
REMARK    6  A    between atoms: C_12  and  C_14
REMARK    7  A    between atoms: C_17  and  C_19
REMARK    8  A    between atoms: C_26  and  C_60
REMARK    9  A    between atoms: C_35  and  C_37
REMARK   10  A    between atoms: C_40  and  C_42
REMARK   11  A    between atoms: C_48  and  C_50
REMARK   12  A    between atoms: C_50  and  C_52
REMARK   13  A    between atoms: C_50  and  N_55
REMARK   14  A    between atoms: C_52  and  C_53
REMARK   15  A    between atoms: C_52  and  C_54
REMARK   16  A    between atoms: C_56  and  O_58
REMARK   17  A    between atoms: O_58  and  C_59
REMARK   18  A    between atoms: C_67  and  O_69
REMARK   19  A    between atoms: O_69  and  C_70
REMARK                            x       y       z     vdW  Elec       q    Type
REMARK                         _______ _______ _______ _____ _____    ______ ____
ROOT
ATOM      1  C   UNL     1       6.616   4.375  25.659  0.00  0.00    +0.002 A 
ATOM      2  C   UNL     1       5.360   4.930  25.394  0.00  0.00    +0.012 A 
ATOM      3  C   UNL     1       4.193   4.203  25.634  0.00  0.00    +0.027 A 
ATOM      4  C   UNL     1       4.334   2.900  26.137  0.00  0.00    +0.053 A 
ATOM      5  N   UNL     1       3.406   1.971  26.547  0.00  0.00    -0.300 N 
ATOM      6  C   UNL     1       4.024   0.807  26.943  0.00  0.00    +0.057 A 
ATOM      7  C   UNL     1       5.378   0.990  26.820  0.00  0.00    +0.036 A 
ATOM      8  C   UNL     1       3.186  -0.286  27.379  0.00  0.00    +0.040 A 
ATOM      9  C   UNL     1       3.658  -1.364  28.128  0.00  0.00    +0.014 A 
ATOM     10  C   UNL     1       2.775  -2.373  28.524  0.00  0.00    +0.009 A 
ATOM     11  C   UNL     1       1.427  -2.328  28.140  0.00  0.00    +0.012 A 
ATOM     12  C   UNL     1       0.979  -1.247  27.366  0.00  0.00    +0.054 A 
ATOM     13  C   UNL     1       1.835  -0.213  27.037  0.00  0.00    +0.133 A 
ATOM     14  O   UNL     1       1.292   0.865  26.373  0.00  0.00    -0.464 OA
ATOM     15  C   UNL     1       1.951   2.129  26.671  0.00  0.00    +0.308 C 
ATOM     16  C   UNL     1       5.586   2.309  26.346  0.00  0.00    +0.001 A 
ATOM     17  C   UNL     1       6.747   3.053  26.087  0.00  0.00    +0.020 A 
ENDROOT
BRANCH  15  18
ATOM     18  C   UNL     1       1.487   2.673  28.028  0.00  0.00    +0.014 A 
ATOM     19  C   UNL     1       1.500   4.063  28.243  0.00  0.00    +0.009 A 
ATOM     20  C   UNL     1       1.028   4.617  29.439  0.00  0.00    +0.000 A 
ATOM     21  C   UNL     1       0.544   3.784  30.446  0.00  0.00    +0.000 A 
ATOM     22  C   UNL     1       0.537   2.405  30.261  0.00  0.00    +0.000 A 
ATOM     23  C   UNL     1       1.007   1.854  29.066  0.00  0.00    +0.009 A 
ENDBRANCH  15  18
BRANCH   1  26
ATOM     24  C   UNL     1       9.625   6.207  24.820  0.00  0.00    +0.241 C 
ATOM     25  N   UNL     1       8.480   5.344  24.418  0.00  0.00    -0.254 NA
ATOM     26  C   UNL     1       7.813   5.194  25.512  0.00  0.00    +0.086 C 
ATOM     27  C   UNL     1       8.387   6.019  26.591  0.00  0.00    +0.135 C 
ATOM     28  N   UNL     1       9.414   6.695  26.206  0.00  0.00    -0.261 NA
BRANCH  24  31
ATOM     29  C   UNL     1      10.941   3.388  23.067  0.00  0.00    +0.237 C 
ATOM     30  N   UNL     1      11.202   4.706  23.420  0.00  0.00    -0.293 N 
ATOM     31  C   UNL     1      10.983   5.429  24.699  0.00  0.00    +0.122 C 
ATOM     32  C   UNL     1      12.175   6.427  24.783  0.00  0.00    +0.028 C 
ATOM     33  C   UNL     1      12.967   6.257  23.491  0.00  0.00    +0.021 C 
ATOM     34  C   UNL     1      12.039   5.513  22.552  0.00  0.00    +0.108 C 
ATOM     35  O   UNL     1      11.433   2.916  22.031  0.00  0.00    -0.274 OA
BRANCH  29  36
ATOM     36  C   UNL     1       9.948   2.501  23.901  0.00  0.00    +0.165 C 
BRANCH  36  37
ATOM     37  N   UNL     1       8.651   2.516  23.213  0.00  0.00    -0.270 N 
ATOM     38  H   UNL     1       8.002   3.254  23.459  0.00  0.00    +0.153 HD
ATOM     39  C   UNL     1       8.324   1.768  22.117  0.00  0.00    +0.401 C 
ATOM     40  O   UNL     1       9.037   0.964  21.548  0.00  0.00    -0.226 OA
BRANCH  39  41
ATOM     41  O   UNL     1       7.050   2.055  21.752  0.00  0.00    -0.454 OA
ATOM     42  C   UNL     1       6.638   3.373  22.122  0.00  0.00    +0.282 C 
ENDBRANCH  39  41
ENDBRANCH  36  37
BRANCH  36  44
ATOM     43  C   UNL     1      11.891   0.874  24.492  0.00  0.00    +0.009 C 
ATOM     44  C   UNL     1      10.410   1.026  24.136  0.00  0.00    +0.012 C 
ATOM     45  C   UNL     1       9.578   0.342  25.240  0.00  0.00    +0.009 C 
ENDBRANCH  36  44
ENDBRANCH  29  36
ENDBRANCH  24  31
ENDBRANCH   1  26
BRANCH  11  46
ATOM     46  C   UNL     1       0.443  -3.368  28.611  0.00  0.00    +0.321 C 
ATOM     47  N   UNL     1       0.595  -4.628  27.846  0.00  0.00    -0.064 NA
ATOM     48  C   UNL     1       0.974  -5.509  28.727  0.00  0.00    +0.357 C 
ATOM     49  N   UNL     1       0.997  -5.099  30.047  0.00  0.00    -0.047 NA
ATOM     50  C   UNL     1       0.714  -3.846  30.000  0.00  0.00    +0.284 C 
BRANCH  48  51
ATOM     51  C   UNL     1       1.456  -6.932  28.381  0.00  0.00    +0.197 C 
ATOM     52  N   UNL     1       2.865  -6.975  27.934  0.00  0.00    -0.285 N 
ATOM     53  C   UNL     1       3.402  -7.054  26.661  0.00  0.00    +0.237 C 
ATOM     54  O   UNL     1       4.628  -7.147  26.521  0.00  0.00    -0.274 OA
ATOM     55  C   UNL     1       3.757  -7.152  29.072  0.00  0.00    +0.109 C 
ATOM     56  C   UNL     1       2.856  -7.331  30.284  0.00  0.00    +0.021 C 
ATOM     57  C   UNL     1       1.528  -7.768  29.673  0.00  0.00    +0.037 C 
BRANCH  53  58
ATOM     58  C   UNL     1       2.470  -6.990  25.422  0.00  0.00    +0.165 C 
BRANCH  58  59
ATOM     59  N   UNL     1       3.147  -6.275  24.354  0.00  0.00    -0.270 N 
ATOM     60  H   UNL     1       3.999  -6.650  23.957  0.00  0.00    +0.153 HD
ATOM     61  C   UNL     1       2.873  -4.972  24.087  0.00  0.00    +0.401 C 
ATOM     62  O   UNL     1       2.001  -4.320  24.638  0.00  0.00    -0.226 OA
BRANCH  61  63
ATOM     63  O   UNL     1       3.714  -4.508  23.131  0.00  0.00    -0.454 OA
ATOM     64  C   UNL     1       4.583  -5.517  22.621  0.00  0.00    +0.282 C 
ENDBRANCH  61  63
ENDBRANCH  58  59
BRANCH  58  65
ATOM     65  C   UNL     1       1.952  -8.367  24.913  0.00  0.00    +0.012 C 
ATOM     66  C   UNL     1       1.269  -8.230  23.546  0.00  0.00    +0.009 C 
ATOM     67  C   UNL     1       1.106  -9.176  25.908  0.00  0.00    +0.009 C 
ENDBRANCH  58  65
ENDBRANCH  53  58
ENDBRANCH  48  51
ENDBRANCH  11  46
TORSDOF 13
ENDMDL
MODEL 2
REMARK VINA RESULT:      -2.7      2.431     12.020
REMARK  Name = 
REMARK  19 active torsions:
REMARK  status: ('A' for Active; 'I' for Inactive)
REMARK    1  A    between atoms: C_1  and  C_2
REMARK    2  A    between atoms: C_2  and  C_3
REMARK    3  A    between atoms: C_2  and  C_4
REMARK    4  A    between atoms: C_4  and  C_6
REMARK    5  A    between atoms: C_4  and  N_66
REMARK    6  A    between atoms: C_12  and  C_14
REMARK    7  A    between atoms: C_17  and  C_19
REMARK    8  A    between atoms: C_26  and  C_60
REMARK    9  A    between atoms: C_35  and  C_37
REMARK   10  A    between atoms: C_40  and  C_42
REMARK   11  A    between atoms: C_48  and  C_50
REMARK   12  A    between atoms: C_50  and  C_52
REMARK   13  A    between atoms: C_50  and  N_55
REMARK   14  A    between atoms: C_52  and  C_53
REMARK   15  A    between atoms: C_52  and  C_54
REMARK   16  A    between atoms: C_56  and  O_58
REMARK   17  A    between atoms: O_58  and  C_59
REMARK   18  A    between atoms: C_67  and  O_69
REMARK   19  A    between atoms: O_69  and  C_70
REMARK                            x       y       z     vdW  Elec       q    Type
REMARK                         _______ _______ _______ _____ _____    ______ ____
ROOT
ATOM      1  C   UNL     1       4.043  -3.856  28.898  0.00  0.00    +0.002 A 
ATOM      2  C   UNL     1       3.967  -3.288  30.174  0.00  0.00    +0.012 A 
ATOM      3  C   UNL     1       4.301  -1.948  30.379  0.00  0.00    +0.027 A 
ATOM      4  C   UNL     1       4.722  -1.207  29.264  0.00  0.00    +0.053 A 
ATOM      5  N   UNL     1       5.038   0.123  29.114  0.00  0.00    -0.300 N 
ATOM      6  C   UNL     1       5.429   0.389  27.822  0.00  0.00    +0.057 A 
ATOM      7  C   UNL     1       5.337  -0.780  27.110  0.00  0.00    +0.036 A 
ATOM      8  C   UNL     1       5.823   1.741  27.502  0.00  0.00    +0.040 A 
ATOM      9  C   UNL     1       5.895   2.232  26.198  0.00  0.00    +0.014 A 
ATOM     10  C   UNL     1       6.270   3.560  25.977  0.00  0.00    +0.009 A 
ATOM     11  C   UNL     1       6.612   4.390  27.053  0.00  0.00    +0.012 A 
ATOM     12  C   UNL     1       6.556   3.869  28.355  0.00  0.00    +0.054 A 
ATOM     13  C   UNL     1       6.115   2.579  28.579  0.00  0.00    +0.133 A 
ATOM     14  O   UNL     1       5.982   2.179  29.891  0.00  0.00    -0.464 OA
ATOM     15  C   UNL     1       4.921   1.205  30.100  0.00  0.00    +0.308 C 
ATOM     16  C   UNL     1       4.864  -1.780  27.995  0.00  0.00    +0.001 A 
ATOM     17  C   UNL     1       4.535  -3.131  27.811  0.00  0.00    +0.020 A 
ENDROOT
BRANCH  15  18
ATOM     18  C   UNL     1       3.551   1.894  30.124  0.00  0.00    +0.014 A 
ATOM     19  C   UNL     1       3.494   3.285  30.324  0.00  0.00    +0.009 A 
ATOM     20  C   UNL     1       2.275   3.974  30.292  0.00  0.00    +0.000 A 
ATOM     21  C   UNL     1       1.090   3.276  30.068  0.00  0.00    +0.000 A 
ATOM     22  C   UNL     1       1.121   1.898  29.884  0.00  0.00    +0.000 A 
ATOM     23  C   UNL     1       2.339   1.212  29.914  0.00  0.00    +0.009 A 
ENDBRANCH  15  18
BRANCH   1  26
ATOM     24  C   UNL     1       3.050  -7.189  27.885  0.00  0.00    +0.241 C 
ATOM     25  N   UNL     1       3.769  -5.913  27.614  0.00  0.00    -0.254 NA
ATOM     26  C   UNL     1       3.578  -5.222  28.686  0.00  0.00    +0.086 C 
ATOM     27  C   UNL     1       2.879  -6.024  29.707  0.00  0.00    +0.135 C 
ATOM     28  N   UNL     1       2.615  -7.219  29.304  0.00  0.00    -0.261 NA
BRANCH  24  31
ATOM     29  C   UNL     1       2.439  -7.516  24.383  0.00  0.00    +0.237 C 
ATOM     30  N   UNL     1       2.110  -8.037  25.627  0.00  0.00    -0.293 N 
ATOM     31  C   UNL     1       1.826  -7.359  26.919  0.00  0.00    +0.122 C 
ATOM     32  C   UNL     1       0.742  -8.253  27.589  0.00  0.00    +0.028 C 
ATOM     33  C   UNL     1       0.529  -9.440  26.655  0.00  0.00    +0.021 C 
ATOM     34  C   UNL     1       1.726  -9.433  25.726  0.00  0.00    +0.108 C 
ATOM     35  O   UNL     1       2.386  -8.238  23.376  0.00  0.00    -0.274 OA
BRANCH  29  36
ATOM     36  C   UNL     1       2.976  -6.048  24.228  0.00  0.00    +0.165 C 
BRANCH  36  37
ATOM     37  N   UNL     1       3.929  -6.037  23.111  0.00  0.00    -0.270 N 
ATOM     38  H   UNL     1       3.575  -5.766  22.200  0.00  0.00    +0.153 HD
ATOM     39  C   UNL     1       5.287  -6.138  23.223  0.00  0.00    +0.401 C 
ATOM     40  O   UNL     1       5.922  -6.269  24.251  0.00  0.00    -0.226 OA
BRANCH  39  41
ATOM     41  O   UNL     1       5.837  -6.077  21.985  0.00  0.00    -0.454 OA
ATOM     42  C   UNL     1       7.247  -5.844  22.002  0.00  0.00    +0.282 C 
ENDBRANCH  39  41
ENDBRANCH  36  37
BRANCH  36  44
ATOM     43  C   UNL     1       0.443  -5.451  24.201  0.00  0.00    +0.009 C 
ATOM     44  C   UNL     1       1.878  -4.957  24.003  0.00  0.00    +0.012 C 
ATOM     45  C   UNL     1       2.097  -3.737  24.920  0.00  0.00    +0.009 C 
ENDBRANCH  36  44
ENDBRANCH  29  36
ENDBRANCH  24  31
ENDBRANCH   1  26
BRANCH  11  46
ATOM     46  C   UNL     1       6.952   5.844  26.845  0.00  0.00    +0.321 C 
ATOM     47  N   UNL     1       8.013   5.999  25.822  0.00  0.00    -0.064 NA
ATOM     48  C   UNL     1       7.445   6.651  24.849  0.00  0.00    +0.357 C 
ATOM     49  N   UNL     1       6.158   7.104  25.071  0.00  0.00    -0.047 NA
ATOM     50  C   UNL     1       5.842   6.624  26.221  0.00  0.00    +0.284 C 
BRANCH  48  51
ATOM     51  C   UNL     1       8.087   6.882  23.465  0.00  0.00    +0.197 C 
ATOM     52  N   UNL     1       8.767   5.682  22.934  0.00  0.00    -0.285 N 
ATOM     53  C   UNL     1      10.110   5.344  22.914  0.00  0.00    +0.237 C 
ATOM     54  O   UNL     1      10.468   4.304  22.348  0.00  0.00    -0.274 OA
ATOM     55  C   UNL     1       7.839   4.869  22.160  0.00  0.00    +0.109 C 
ATOM     56  C   UNL     1       6.535   5.650  22.118  0.00  0.00    +0.021 C 
ATOM     57  C   UNL     1       6.973   7.080  22.420  0.00  0.00    +0.037 C 
BRANCH  53  58
ATOM     58  C   UNL     1      11.147   6.251  23.627  0.00  0.00    +0.165 C 
BRANCH  58  59
ATOM     59  N   UNL     1      10.858   6.275  25.050  0.00  0.00    -0.270 N 
ATOM     60  H   UNL     1       9.904   6.180  25.374  0.00  0.00    +0.153 HD
ATOM     61  C   UNL     1      11.762   6.743  25.951  0.00  0.00    +0.401 C 
ATOM     62  O   UNL     1      12.896   7.096  25.673  0.00  0.00    -0.226 OA
BRANCH  61  63
ATOM     63  O   UNL     1      11.212   6.768  27.188  0.00  0.00    -0.454 OA
ATOM     64  C   UNL     1      12.186   6.731  28.228  0.00  0.00    +0.282 C 
ENDBRANCH  61  63
ENDBRANCH  58  59
BRANCH  58  65
ATOM     65  C   UNL     1      12.636   5.873  23.379  0.00  0.00    +0.012 C 
ATOM     66  C   UNL     1      13.090   6.301  21.977  0.00  0.00    +0.009 C 
ATOM     67  C   UNL     1      13.024   4.421  23.699  0.00  0.00    +0.009 C 
ENDBRANCH  58  65
ENDBRANCH  53  58
ENDBRANCH  48  51
ENDBRANCH  11  46
TORSDOF 13
ENDMDL
MODEL 3
REMARK VINA RESULT:      -2.4      1.991     11.514
REMARK  Name = 
REMARK  19 active torsions:
REMARK  status: ('A' for Active; 'I' for Inactive)
REMARK    1  A    between atoms: C_1  and  C_2
REMARK    2  A    between atoms: C_2  and  C_3
REMARK    3  A    between atoms: C_2  and  C_4
REMARK    4  A    between atoms: C_4  and  C_6
REMARK    5  A    between atoms: C_4  and  N_66
REMARK    6  A    between atoms: C_12  and  C_14
REMARK    7  A    between atoms: C_17  and  C_19
REMARK    8  A    between atoms: C_26  and  C_60
REMARK    9  A    between atoms: C_35  and  C_37
REMARK   10  A    between atoms: C_40  and  C_42
REMARK   11  A    between atoms: C_48  and  C_50
REMARK   12  A    between atoms: C_50  and  C_52
REMARK   13  A    between atoms: C_50  and  N_55
REMARK   14  A    between atoms: C_52  and  C_53
REMARK   15  A    between atoms: C_52  and  C_54
REMARK   16  A    between atoms: C_56  and  O_58
REMARK   17  A    between atoms: O_58  and  C_59
REMARK   18  A    between atoms: C_67  and  O_69
REMARK   19  A    between atoms: O_69  and  C_70
REMARK                            x       y       z     vdW  Elec       q    Type
REMARK                         _______ _______ _______ _____ _____    ______ ____
ROOT
ATOM      1  C   UNL     1       1.750  -3.260  28.011  0.00  0.00    +0.002 A 
ATOM      2  C   UNL     1       0.999  -2.361  28.775  0.00  0.00    +0.012 A 
ATOM      3  C   UNL     1       1.433  -1.047  28.961  0.00  0.00    +0.027 A 
ATOM      4  C   UNL     1       2.648  -0.675  28.365  0.00  0.00    +0.053 A 
ATOM      5  N   UNL     1       3.300   0.534  28.290  0.00  0.00    -0.300 N 
ATOM      6  C   UNL     1       4.492   0.404  27.615  0.00  0.00    +0.057 A 
ATOM      7  C   UNL     1       4.605  -0.903  27.215  0.00  0.00    +0.036 A 
ATOM      8  C   UNL     1       5.316   1.581  27.471  0.00  0.00    +0.040 A 
ATOM      9  C   UNL     1       6.344   1.690  26.534  0.00  0.00    +0.014 A 
ATOM     10  C   UNL     1       7.084   2.873  26.449  0.00  0.00    +0.009 A 
ATOM     11  C   UNL     1       6.826   3.935  27.327  0.00  0.00    +0.012 A 
ATOM     12  C   UNL     1       5.805   3.796  28.279  0.00  0.00    +0.054 A 
ATOM     13  C   UNL     1       5.025   2.656  28.313  0.00  0.00    +0.133 A 
ATOM     14  O   UNL     1       3.971   2.642  29.200  0.00  0.00    -0.464 OA
ATOM     15  C   UNL     1       2.836   1.849  28.748  0.00  0.00    +0.308 C 
ATOM     16  C   UNL     1       3.440  -1.583  27.652  0.00  0.00    +0.001 A 
ATOM     17  C   UNL     1       2.993  -2.902  27.486  0.00  0.00    +0.020 A 
ENDROOT
BRANCH  15  18
ATOM     18  C   UNL     1       2.013   2.627  27.713  0.00  0.00    +0.014 A 
ATOM     19  C   UNL     1       1.548   3.913  28.041  0.00  0.00    +0.009 A 
ATOM     20  C   UNL     1       0.847   4.691  27.112  0.00  0.00    +0.000 A 
ATOM     21  C   UNL     1       0.591   4.187  25.838  0.00  0.00    +0.000 A 
ATOM     22  C   UNL     1       1.027   2.910  25.497  0.00  0.00    +0.000 A 
ATOM     23  C   UNL     1       1.729   2.136  26.425  0.00  0.00    +0.009 A 
ENDBRANCH  15  18
BRANCH   1  26
ATOM     24  C   UNL     1       0.464  -6.641  27.830  0.00  0.00    +0.241 C 
ATOM     25  N   UNL     1       0.859  -5.446  28.627  0.00  0.00    -0.254 NA
ATOM     26  C   UNL     1       1.220  -4.590  27.733  0.00  0.00    +0.086 C 
ATOM     27  C   UNL     1       0.962  -5.108  26.377  0.00  0.00    +0.135 C 
ATOM     28  N   UNL     1       0.443  -6.288  26.389  0.00  0.00    -0.261 NA
BRANCH  24  31
ATOM     29  C   UNL     1       3.908  -7.164  28.615  0.00  0.00    +0.237 C 
ATOM     30  N   UNL     1       2.616  -7.541  28.954  0.00  0.00    -0.293 N 
ATOM     31  C   UNL     1       1.437  -7.843  28.100  0.00  0.00    +0.122 C 
ATOM     32  C   UNL     1       0.687  -8.970  28.868  0.00  0.00    +0.028 C 
ATOM     33  C   UNL     1       1.458  -9.190  30.165  0.00  0.00    +0.021 C 
ATOM     34  C   UNL     1       2.342  -7.968  30.313  0.00  0.00    +0.108 C 
ATOM     35  O   UNL     1       4.809  -7.209  29.465  0.00  0.00    -0.274 OA
BRANCH  29  36
ATOM     36  C   UNL     1       4.243  -6.580  27.195  0.00  0.00    +0.165 C 
BRANCH  36  37
ATOM     37  N   UNL     1       5.651  -6.168  27.202  0.00  0.00    -0.270 N 
ATOM     38  H   UNL     1       6.299  -6.713  26.643  0.00  0.00    +0.153 HD
ATOM     39  C   UNL     1       6.134  -4.994  27.708  0.00  0.00    +0.401 C 
ATOM     40  O   UNL     1       5.488  -4.115  28.243  0.00  0.00    -0.226 OA
BRANCH  39  41
ATOM     41  O   UNL     1       7.478  -4.956  27.527  0.00  0.00    -0.454 OA
ATOM     42  C   UNL     1       7.904  -3.902  26.661  0.00  0.00    +0.282 C 
ENDBRANCH  39  41
ENDBRANCH  36  37
BRANCH  36  44
ATOM     43  C   UNL     1       2.509  -7.651  25.576  0.00  0.00    +0.009 C 
ATOM     44  C   UNL     1       3.977  -7.550  25.997  0.00  0.00    +0.012 C 
ATOM     45  C   UNL     1       4.806  -7.159  24.758  0.00  0.00    +0.009 C 
ENDBRANCH  36  44
ENDBRANCH  29  36
ENDBRANCH  24  31
ENDBRANCH   1  26
BRANCH  11  46
ATOM     46  C   UNL     1       7.565   5.244  27.210  0.00  0.00    +0.321 C 
ATOM     47  N   UNL     1       8.683   5.139  26.244  0.00  0.00    -0.064 NA
ATOM     48  C   UNL     1       8.371   5.961  25.283  0.00  0.00    +0.357 C 
ATOM     49  N   UNL     1       7.248   6.744  25.474  0.00  0.00    -0.047 NA
ATOM     50  C   UNL     1       6.748   6.325  26.582  0.00  0.00    +0.284 C 
BRANCH  48  51
ATOM     51  C   UNL     1       9.127   6.058  23.942  0.00  0.00    +0.197 C 
ATOM     52  N   UNL     1       8.995   4.842  23.111  0.00  0.00    -0.285 N 
ATOM     53  C   UNL     1       9.866   3.783  22.921  0.00  0.00    +0.237 C 
ATOM     54  O   UNL     1       9.574   2.891  22.115  0.00  0.00    -0.274 OA
ATOM     55  C   UNL     1       7.828   4.941  22.245  0.00  0.00    +0.109 C 
ATOM     56  C   UNL     1       7.256   6.332  22.471  0.00  0.00    +0.021 C 
ATOM     57  C   UNL     1       8.438   7.106  23.049  0.00  0.00    +0.037 C 
BRANCH  53  58
ATOM     58  C   UNL     1      11.181   3.706  23.741  0.00  0.00    +0.165 C 
BRANCH  58  59
ATOM     59  N   UNL     1      11.580   2.316  23.869  0.00  0.00    -0.270 N 
ATOM     60  H   UNL     1      12.427   1.990  23.421  0.00  0.00    +0.153 HD
ATOM     61  C   UNL     1      10.706   1.361  24.285  0.00  0.00    +0.401 C 
ATOM     62  O   UNL     1       9.567   1.583  24.663  0.00  0.00    -0.226 OA
BRANCH  61  63
ATOM     63  O   UNL     1      11.284   0.139  24.208  0.00  0.00    -0.454 OA
ATOM     64  C   UNL     1      10.384  -0.872  23.761  0.00  0.00    +0.282 C 
ENDBRANCH  61  63
ENDBRANCH  58  59
BRANCH  58  65
ATOM     65  C   UNL     1      12.357   4.561  23.185  0.00  0.00    +0.012 C 
ATOM     66  C   UNL     1      12.361   5.966  23.805  0.00  0.00    +0.009 C 
ATOM     67  C   UNL     1      12.497   4.599  21.656  0.00  0.00    +0.009 C 
ENDBRANCH  58  65
ENDBRANCH  53  58
ENDBRANCH  48  51
ENDBRANCH  11  46
TORSDOF 13
ENDMDL
