MODEL 1
REMARK VINA RESULT:      -6.3      0.000      0.000
REMARK  Name = 
REMARK  6 active torsions:
REMARK  status: ('A' for Active; 'I' for Inactive)
REMARK    1  A    between atoms: C_3  and  C_18
REMARK    2  A    between atoms: N_5  and  C1*_6
REMARK    3  A    between atoms: C2*_7  and  O2*_17
REMARK    4  A    between atoms: C3*_9  and  O3*_16
REMARK    5  A    between atoms: C4*_11  and  C5*_14
REMARK    6  A    between atoms: C5*_14  and  O5*_15
REMARK                            x       y       z     vdW  Elec       q    Type
REMARK                         _______ _______ _______ _____ _____    ______ ____
ROOT
ATOM      1  C1* UNL     1       8.109  -1.634  23.310  0.00  0.00    +0.270 C 
ATOM      2  O4* UNL     1       7.790  -0.315  22.818  0.00  0.00    -0.344 OA
ATOM      3  C4* UNL     1       9.017   0.460  22.876  0.00  0.00    +0.177 C 
ATOM      4  C3* UNL     1      10.141  -0.498  23.296  0.00  0.00    +0.178 C 
ATOM      5  C2* UNL     1       9.576  -1.870  22.960  0.00  0.00    +0.196 C 
ENDROOT
BRANCH   1   7
ATOM      6  C   UNL     1       5.819  -2.478  22.815  0.00  0.00    +0.223 A 
ATOM      7  N   UNL     1       7.174  -2.614  22.794  0.00  0.00    -0.220 N 
ATOM      8  N   UNL     1       7.538  -3.783  22.211  0.00  0.00    -0.142 NA
ATOM      9  C   UNL     1       6.328  -4.314  21.895  0.00  0.00    +0.236 A 
ATOM     10  N   UNL     1       5.258  -3.522  22.268  0.00  0.00    -0.211 NA
BRANCH   9  11
ATOM     11  C   UNL     1       6.146  -5.617  21.218  0.00  0.00    +0.281 C 
ATOM     12  N   UNL     1       6.163  -6.712  22.043  0.00  0.00    -0.323 N 
ATOM     13  H   UNL     1       6.047  -7.627  21.636  0.00  0.00    +0.145 HD
ATOM     14  H   UNL     1       6.286  -6.586  23.038  0.00  0.00    +0.145 HD
ATOM     15  O   UNL     1       5.989  -5.759  20.007  0.00  0.00    -0.267 OA
ENDBRANCH   9  11
ENDBRANCH   1   7
BRANCH   4  16
ATOM     16  O3* UNL     1      10.318  -0.432  24.726  0.00  0.00    -0.386 OA
ATOM     17  H3* UNL     1      11.258  -0.217  24.881  0.00  0.00    +0.210 HD
ENDBRANCH   4  16
BRANCH   5  18
ATOM     18  O2* UNL     1      10.200  -2.894  23.735  0.00  0.00    -0.385 OA
ATOM     19  H2* UNL     1      11.064  -3.081  23.322  0.00  0.00    +0.210 HD
ENDBRANCH   5  18
BRANCH   3  20
ATOM     20  C5* UNL     1       9.252   1.093  21.505  0.00  0.00    +0.190 C 
BRANCH  20  21
ATOM     21  O5* UNL     1      10.158   2.188  21.609  0.00  0.00    -0.392 OA
ATOM     22  H5* UNL     1      10.675   2.039  22.425  0.00  0.00    +0.210 HD
ENDBRANCH  20  21
ENDBRANCH   3  20
TORSDOF 6
ENDMDL
MODEL 2
REMARK VINA RESULT:      -6.0      3.197      3.723
REMARK  Name = 
REMARK  6 active torsions:
REMARK  status: ('A' for Active; 'I' for Inactive)
REMARK    1  A    between atoms: C_3  and  C_18
REMARK    2  A    between atoms: N_5  and  C1*_6
REMARK    3  A    between atoms: C2*_7  and  O2*_17
REMARK    4  A    between atoms: C3*_9  and  O3*_16
REMARK    5  A    between atoms: C4*_11  and  C5*_14
REMARK    6  A    between atoms: C5*_14  and  O5*_15
REMARK                            x       y       z     vdW  Elec       q    Type
REMARK                         _______ _______ _______ _____ _____    ______ ____
ROOT
ATOM      1  C1* UNL     1       9.178  -0.077  23.487  0.00  0.00    +0.270 C 
ATOM      2  O4* UNL     1       8.274   0.918  24.011  0.00  0.00    -0.344 OA
ATOM      3  C4* UNL     1       8.011   1.852  22.931  0.00  0.00    +0.177 C 
ATOM      4  C3* UNL     1       8.691   1.294  21.672  0.00  0.00    +0.178 C 
ATOM      5  C2* UNL     1       8.874  -0.181  21.996  0.00  0.00    +0.196 C 
ENDROOT
BRANCH   1   7
ATOM      6  C   UNL     1       8.592  -1.409  25.508  0.00  0.00    +0.223 A 
ATOM      7  N   UNL     1       9.072  -1.313  24.238  0.00  0.00    -0.220 N 
ATOM      8  N   UNL     1       9.424  -2.531  23.756  0.00  0.00    -0.142 NA
ATOM      9  C   UNL     1       9.122  -3.335  24.809  0.00  0.00    +0.236 A 
ATOM     10  N   UNL     1       8.614  -2.653  25.901  0.00  0.00    -0.211 NA
BRANCH   9  11
ATOM     11  C   UNL     1       9.312  -4.801  24.814  0.00  0.00    +0.281 C 
ATOM     12  N   UNL     1      10.147  -5.279  25.791  0.00  0.00    -0.323 N 
ATOM     13  H   UNL     1      10.317  -6.272  25.842  0.00  0.00    +0.145 HD
ATOM     14  H   UNL     1      10.573  -4.635  26.444  0.00  0.00    +0.145 HD
ATOM     15  O   UNL     1       8.784  -5.577  24.021  0.00  0.00    -0.267 OA
ENDBRANCH   9  11
ENDBRANCH   1   7
BRANCH   4  16
ATOM     16  O3* UNL     1      10.002   1.881  21.535  0.00  0.00    -0.386 OA
ATOM     17  H3* UNL     1       9.887   2.701  21.016  0.00  0.00    +0.210 HD
ENDBRANCH   4  16
BRANCH   5  18
ATOM     18  O2* UNL     1       9.929  -0.755  21.225  0.00  0.00    -0.385 OA
ATOM     19  H2* UNL     1       9.841  -0.413  20.316  0.00  0.00    +0.210 HD
ENDBRANCH   5  18
BRANCH   3  20
ATOM     20  C5* UNL     1       6.498   1.998  22.778  0.00  0.00    +0.190 C 
BRANCH  20  21
ATOM     21  O5* UNL     1       5.819   1.024  23.567  0.00  0.00    -0.392 OA
ATOM     22  H5* UNL     1       5.411   0.397  22.937  0.00  0.00    +0.210 HD
ENDBRANCH  20  21
ENDBRANCH   3  20
TORSDOF 6
ENDMDL
MODEL 3
REMARK VINA RESULT:      -5.9      2.782      3.374
REMARK  Name = 
REMARK  6 active torsions:
REMARK  status: ('A' for Active; 'I' for Inactive)
REMARK    1  A    between atoms: C_3  and  C_18
REMARK    2  A    between atoms: N_5  and  C1*_6
REMARK    3  A    between atoms: C2*_7  and  O2*_17
REMARK    4  A    between atoms: C3*_9  and  O3*_16
REMARK    5  A    between atoms: C4*_11  and  C5*_14
REMARK    6  A    between atoms: C5*_14  and  O5*_15
REMARK                            x       y       z     vdW  Elec       q    Type
REMARK                         _______ _______ _______ _____ _____    ______ ____
ROOT
ATOM      1  C1* UNL     1       8.365  -0.454  24.402  0.00  0.00    +0.270 C 
ATOM      2  O4* UNL     1       7.757   0.050  23.194  0.00  0.00    -0.344 OA
ATOM      3  C4* UNL     1       8.267   1.397  23.001  0.00  0.00    +0.177 C 
ATOM      4  C3* UNL     1       9.332   1.639  24.081  0.00  0.00    +0.178 C 
ATOM      5  C2* UNL     1       9.724   0.232  24.509  0.00  0.00    +0.196 C 
ENDROOT
BRANCH   1   7
ATOM      6  C   UNL     1       8.137  -2.679  23.307  0.00  0.00    +0.223 A 
ATOM      7  N   UNL     1       8.391  -1.904  24.397  0.00  0.00    -0.220 N 
ATOM      8  N   UNL     1       8.690  -2.664  25.479  0.00  0.00    -0.142 NA
ATOM      9  C   UNL     1       8.598  -3.917  24.960  0.00  0.00    +0.236 A 
ATOM     10  N   UNL     1       8.250  -3.941  23.622  0.00  0.00    -0.211 NA
BRANCH   9  11
ATOM     11  C   UNL     1       8.838  -5.154  25.734  0.00  0.00    +0.281 C 
ATOM     12  N   UNL     1      10.101  -5.678  25.622  0.00  0.00    -0.323 N 
ATOM     13  H   UNL     1      10.322  -6.523  26.126  0.00  0.00    +0.145 HD
ATOM     14  H   UNL     1      10.787  -5.210  25.046  0.00  0.00    +0.145 HD
ATOM     15  O   UNL     1       8.000  -5.712  26.438  0.00  0.00    -0.267 OA
ENDBRANCH   9  11
ENDBRANCH   1   7
BRANCH   4  16
ATOM     16  O3* UNL     1       8.725   2.291  25.216  0.00  0.00    -0.386 OA
ATOM     17  H3* UNL     1       8.138   1.632  25.635  0.00  0.00    +0.210 HD
ENDBRANCH   4  16
BRANCH   5  18
ATOM     18  O2* UNL     1      10.277   0.224  25.825  0.00  0.00    -0.385 OA
ATOM     19  H2* UNL     1      10.829   1.024  25.909  0.00  0.00    +0.210 HD
ENDBRANCH   5  18
BRANCH   3  20
ATOM     20  C5* UNL     1       8.820   1.504  21.581  0.00  0.00    +0.190 C 
BRANCH  20  21
ATOM     21  O5* UNL     1      10.061   2.204  21.580  0.00  0.00    -0.392 OA
ATOM     22  H5* UNL     1      10.089   2.710  20.743  0.00  0.00    +0.210 HD
ENDBRANCH  20  21
ENDBRANCH   3  20
TORSDOF 6
ENDMDL
MODEL 4
REMARK VINA RESULT:      -5.9      2.547      3.819
REMARK  Name = 
REMARK  6 active torsions:
REMARK  status: ('A' for Active; 'I' for Inactive)
REMARK    1  A    between atoms: C_3  and  C_18
REMARK    2  A    between atoms: N_5  and  C1*_6
REMARK    3  A    between atoms: C2*_7  and  O2*_17
REMARK    4  A    between atoms: C3*_9  and  O3*_16
REMARK    5  A    between atoms: C4*_11  and  C5*_14
REMARK    6  A    between atoms: C5*_14  and  O5*_15
REMARK                            x       y       z     vdW  Elec       q    Type
REMARK                         _______ _______ _______ _____ _____    ______ ____
ROOT
ATOM      1  C1* UNL     1       8.863  -0.953  22.730  0.00  0.00    +0.270 C 
ATOM      2  O4* UNL     1      10.194  -0.450  22.973  0.00  0.00    -0.344 OA
ATOM      3  C4* UNL     1      10.132   0.991  22.801  0.00  0.00    +0.177 C 
ATOM      4  C3* UNL     1       8.657   1.360  22.579  0.00  0.00    +0.178 C 
ATOM      5  C2* UNL     1       7.908   0.162  23.143  0.00  0.00    +0.196 C 
ENDROOT
BRANCH   1   7
ATOM      6  C   UNL     1       7.851  -3.219  22.942  0.00  0.00    +0.223 A 
ATOM      7  N   UNL     1       8.667  -2.227  23.394  0.00  0.00    -0.220 N 
ATOM      8  N   UNL     1       9.291  -2.593  24.541  0.00  0.00    -0.142 NA
ATOM      9  C   UNL     1       8.796  -3.844  24.729  0.00  0.00    +0.236 A 
ATOM     10  N   UNL     1       7.900  -4.240  23.753  0.00  0.00    -0.211 NA
BRANCH   9  11
ATOM     11  C   UNL     1       9.162  -4.718  25.865  0.00  0.00    +0.281 C 
ATOM     12  N   UNL     1      10.183  -5.599  25.619  0.00  0.00    -0.323 N 
ATOM     13  H   UNL     1      10.474  -6.223  26.356  0.00  0.00    +0.145 HD
ATOM     14  H   UNL     1      10.629  -5.607  24.712  0.00  0.00    +0.145 HD
ATOM     15  O   UNL     1       8.618  -4.697  26.967  0.00  0.00    -0.267 OA
ENDBRANCH   9  11
ENDBRANCH   1   7
BRANCH   4  16
ATOM     16  O3* UNL     1       8.387   1.423  21.163  0.00  0.00    -0.386 OA
ATOM     17  H3* UNL     1       8.376   2.370  20.923  0.00  0.00    +0.210 HD
ENDBRANCH   4  16
BRANCH   5  18
ATOM     18  O2* UNL     1       6.603   0.051  22.574  0.00  0.00    -0.385 OA
ATOM     19  H2* UNL     1       6.160   0.911  22.700  0.00  0.00    +0.210 HD
ENDBRANCH   5  18
BRANCH   3  20
ATOM     20  C5* UNL     1      10.733   1.651  24.041  0.00  0.00    +0.190 C 
BRANCH  20  21
ATOM     21  O5* UNL     1      10.634   0.782  25.167  0.00  0.00    -0.392 OA
ATOM     22  H5* UNL     1      10.748  -0.126  24.822  0.00  0.00    +0.210 HD
ENDBRANCH  20  21
ENDBRANCH   3  20
TORSDOF 6
ENDMDL
MODEL 5
REMARK VINA RESULT:      -5.7      3.053      6.038
REMARK  Name = 
REMARK  6 active torsions:
REMARK  status: ('A' for Active; 'I' for Inactive)
REMARK    1  A    between atoms: C_3  and  C_18
REMARK    2  A    between atoms: N_5  and  C1*_6
REMARK    3  A    between atoms: C2*_7  and  O2*_17
REMARK    4  A    between atoms: C3*_9  and  O3*_16
REMARK    5  A    between atoms: C4*_11  and  C5*_14
REMARK    6  A    between atoms: C5*_14  and  O5*_15
REMARK                            x       y       z     vdW  Elec       q    Type
REMARK                         _______ _______ _______ _____ _____    ______ ____
ROOT
ATOM      1  C1* UNL     1       9.420  -2.784  24.586  0.00  0.00    +0.270 C 
ATOM      2  O4* UNL     1       9.057  -3.960  23.832  0.00  0.00    -0.344 OA
ATOM      3  C4* UNL     1       8.311  -4.821  24.733  0.00  0.00    +0.177 C 
ATOM      4  C3* UNL     1       8.111  -4.043  26.043  0.00  0.00    +0.178 C 
ATOM      5  C2* UNL     1       8.319  -2.595  25.626  0.00  0.00    +0.196 C 
ENDROOT
BRANCH   1   7
ATOM      6  C   UNL     1       9.658  -1.730  22.343  0.00  0.00    +0.223 A 
ATOM      7  N   UNL     1       9.651  -1.659  23.703  0.00  0.00    -0.220 N 
ATOM      8  N   UNL     1       9.872  -0.389  24.126  0.00  0.00    -0.142 NA
ATOM      9  C   UNL     1      10.005   0.269  22.945  0.00  0.00    +0.236 A 
ATOM     10  N   UNL     1       9.883  -0.548  21.836  0.00  0.00    -0.211 NA
BRANCH   9  11
ATOM     11  C   UNL     1      10.261   1.721  22.830  0.00  0.00    +0.281 C 
ATOM     12  N   UNL     1       9.982   2.268  21.604  0.00  0.00    -0.323 N 
ATOM     13  H   UNL     1      10.140   3.255  21.465  0.00  0.00    +0.145 HD
ATOM     14  H   UNL     1       9.620   1.681  20.865  0.00  0.00    +0.145 HD
ATOM     15  O   UNL     1      10.695   2.428  23.736  0.00  0.00    -0.267 OA
ENDBRANCH   9  11
ENDBRANCH   1   7
BRANCH   4  16
ATOM     16  O3* UNL     1       9.160  -4.390  26.970  0.00  0.00    -0.386 OA
ATOM     17  H3* UNL     1       8.826  -4.173  27.862  0.00  0.00    +0.210 HD
ENDBRANCH   4  16
BRANCH   5  18
ATOM     18  O2* UNL     1       8.702  -1.784  26.737  0.00  0.00    -0.385 OA
ATOM     19  H2* UNL     1       9.618  -1.491  26.577  0.00  0.00    +0.210 HD
ENDBRANCH   5  18
BRANCH   3  20
ATOM     20  C5* UNL     1       6.994  -5.200  24.057  0.00  0.00    +0.190 C 
BRANCH  20  21
ATOM     21  O5* UNL     1       7.170  -5.309  22.647  0.00  0.00    -0.392 OA
ATOM     22  H5* UNL     1       7.142  -6.265  22.441  0.00  0.00    +0.210 HD
ENDBRANCH  20  21
ENDBRANCH   3  20
TORSDOF 6
ENDMDL
MODEL 6
REMARK VINA RESULT:      -5.7      1.924      3.332
REMARK  Name = 
REMARK  6 active torsions:
REMARK  status: ('A' for Active; 'I' for Inactive)
REMARK    1  A    between atoms: C_3  and  C_18
REMARK    2  A    between atoms: N_5  and  C1*_6
REMARK    3  A    between atoms: C2*_7  and  O2*_17
REMARK    4  A    between atoms: C3*_9  and  O3*_16
REMARK    5  A    between atoms: C4*_11  and  C5*_14
REMARK    6  A    between atoms: C5*_14  and  O5*_15
REMARK                            x       y       z     vdW  Elec       q    Type
REMARK                         _______ _______ _______ _____ _____    ______ ____
ROOT
ATOM      1  C1* UNL     1       9.677   0.031  22.925  0.00  0.00    +0.270 C 
ATOM      2  O4* UNL     1       9.804   0.664  24.215  0.00  0.00    -0.344 OA
ATOM      3  C4* UNL     1       9.659   2.093  23.994  0.00  0.00    +0.177 C 
ATOM      4  C3* UNL     1       9.293   2.289  22.516  0.00  0.00    +0.178 C 
ATOM      5  C2* UNL     1       8.755   0.927  22.103  0.00  0.00    +0.196 C 
ENDROOT
BRANCH   1   7
ATOM      6  C   UNL     1       9.831  -2.256  23.899  0.00  0.00    +0.223 A 
ATOM      7  N   UNL     1       9.249  -1.347  23.069  0.00  0.00    -0.220 N 
ATOM      8  N   UNL     1       8.201  -1.894  22.404  0.00  0.00    -0.142 NA
ATOM      9  C   UNL     1       8.206  -3.162  22.892  0.00  0.00    +0.236 A 
ATOM     10  N   UNL     1       9.212  -3.401  23.811  0.00  0.00    -0.211 NA
BRANCH   9  11
ATOM     11  C   UNL     1       7.239  -4.208  22.492  0.00  0.00    +0.281 C 
ATOM     12  N   UNL     1       6.212  -3.778  21.691  0.00  0.00    -0.323 N 
ATOM     13  H   UNL     1       5.521  -4.447  21.389  0.00  0.00    +0.145 HD
ATOM     14  H   UNL     1       6.167  -2.808  21.413  0.00  0.00    +0.145 HD
ATOM     15  O   UNL     1       7.306  -5.387  22.829  0.00  0.00    -0.267 OA
ENDBRANCH   9  11
ENDBRANCH   1   7
BRANCH   4  16
ATOM     16  O3* UNL     1      10.493   2.539  21.754  0.00  0.00    -0.386 OA
ATOM     17  H3* UNL     1      11.242   2.260  22.314  0.00  0.00    +0.210 HD
ENDBRANCH   4  16
BRANCH   5  18
ATOM     18  O2* UNL     1       8.860   0.733  20.693  0.00  0.00    -0.385 OA
ATOM     19  H2* UNL     1       9.015   1.608  20.292  0.00  0.00    +0.210 HD
ENDBRANCH   5  18
BRANCH   3  20
ATOM     20  C5* UNL     1       8.591   2.622  24.950  0.00  0.00    +0.190 C 
BRANCH  20  21
ATOM     21  O5* UNL     1       8.267   1.640  25.931  0.00  0.00    -0.392 OA
ATOM     22  H5* UNL     1       8.727   1.911  26.751  0.00  0.00    +0.210 HD
ENDBRANCH  20  21
ENDBRANCH   3  20
TORSDOF 6
ENDMDL
MODEL 7
REMARK VINA RESULT:      -5.6      2.006      3.088
REMARK  Name = 
REMARK  6 active torsions:
REMARK  status: ('A' for Active; 'I' for Inactive)
REMARK    1  A    between atoms: C_3  and  C_18
REMARK    2  A    between atoms: N_5  and  C1*_6
REMARK    3  A    between atoms: C2*_7  and  O2*_17
REMARK    4  A    between atoms: C3*_9  and  O3*_16
REMARK    5  A    between atoms: C4*_11  and  C5*_14
REMARK    6  A    between atoms: C5*_14  and  O5*_15
REMARK                            x       y       z     vdW  Elec       q    Type
REMARK                         _______ _______ _______ _____ _____    ______ ____
ROOT
ATOM      1  C1* UNL     1       8.876  -0.702  22.483  0.00  0.00    +0.270 C 
ATOM      2  O4* UNL     1      10.198  -0.210  22.788  0.00  0.00    -0.344 OA
ATOM      3  C4* UNL     1      10.110   1.240  22.803  0.00  0.00    +0.177 C 
ATOM      4  C3* UNL     1       8.628   1.607  22.631  0.00  0.00    +0.178 C 
ATOM      5  C2* UNL     1       7.902   0.333  23.037  0.00  0.00    +0.196 C 
ENDROOT
BRANCH   1   7
ATOM      6  C   UNL     1       9.538  -2.666  23.864  0.00  0.00    +0.223 A 
ATOM      7  N   UNL     1       8.705  -2.055  22.977  0.00  0.00    -0.220 N 
ATOM      8  N   UNL     1       7.681  -2.871  22.627  0.00  0.00    -0.142 NA
ATOM      9  C   UNL     1       7.961  -3.983  23.356  0.00  0.00    +0.236 A 
ATOM     10  N   UNL     1       9.110  -3.872  24.119  0.00  0.00    -0.211 NA
BRANCH   9  11
ATOM     11  C   UNL     1       7.135  -5.209  23.349  0.00  0.00    +0.281 C 
ATOM     12  N   UNL     1       7.250  -5.986  22.225  0.00  0.00    -0.323 N 
ATOM     13  H   UNL     1       6.707  -6.833  22.163  0.00  0.00    +0.145 HD
ATOM     14  H   UNL     1       7.876  -5.702  21.484  0.00  0.00    +0.145 HD
ATOM     15  O   UNL     1       6.382  -5.550  24.259  0.00  0.00    -0.267 OA
ENDBRANCH   9  11
ENDBRANCH   1   7
BRANCH   4  16
ATOM     16  O3* UNL     1       8.352   1.847  21.236  0.00  0.00    -0.386 OA
ATOM     17  H3* UNL     1       7.803   2.653  21.195  0.00  0.00    +0.210 HD
ENDBRANCH   4  16
BRANCH   5  18
ATOM     18  O2* UNL     1       6.598   0.272  22.459  0.00  0.00    -0.385 OA
ATOM     19  H2* UNL     1       6.050   0.939  22.913  0.00  0.00    +0.210 HD
ENDBRANCH   5  18
BRANCH   3  20
ATOM     20  C5* UNL     1      10.702   1.745  24.118  0.00  0.00    +0.190 C 
BRANCH  20  21
ATOM     21  O5* UNL     1      10.751   0.695  25.081  0.00  0.00    -0.392 OA
ATOM     22  H5* UNL     1      10.369   1.060  25.904  0.00  0.00    +0.210 HD
ENDBRANCH  20  21
ENDBRANCH   3  20
TORSDOF 6
ENDMDL
MODEL 8
REMARK VINA RESULT:      -5.6      1.557      2.139
REMARK  Name = 
REMARK  6 active torsions:
REMARK  status: ('A' for Active; 'I' for Inactive)
REMARK    1  A    between atoms: C_3  and  C_18
REMARK    2  A    between atoms: N_5  and  C1*_6
REMARK    3  A    between atoms: C2*_7  and  O2*_17
REMARK    4  A    between atoms: C3*_9  and  O3*_16
REMARK    5  A    between atoms: C4*_11  and  C5*_14
REMARK    6  A    between atoms: C5*_14  and  O5*_15
REMARK                            x       y       z     vdW  Elec       q    Type
REMARK                         _______ _______ _______ _____ _____    ______ ____
ROOT
ATOM      1  C1* UNL     1       8.844  -1.989  23.476  0.00  0.00    +0.270 C 
ATOM      2  O4* UNL     1       8.048  -1.164  24.353  0.00  0.00    -0.344 OA
ATOM      3  C4* UNL     1       8.427   0.213  24.088  0.00  0.00    +0.177 C 
ATOM      4  C3* UNL     1       9.398   0.197  22.898  0.00  0.00    +0.178 C 
ATOM      5  C2* UNL     1       9.117  -1.144  22.235  0.00  0.00    +0.196 C 
ENDROOT
BRANCH   1   7
ATOM      6  C   UNL     1       8.364  -4.374  24.006  0.00  0.00    +0.223 A 
ATOM      7  N   UNL     1       8.194  -3.263  23.238  0.00  0.00    -0.220 N 
ATOM      8  N   UNL     1       7.320  -3.496  22.228  0.00  0.00    -0.142 NA
ATOM      9  C   UNL     1       6.992  -4.796  22.451  0.00  0.00    +0.236 A 
ATOM     10  N   UNL     1       7.635  -5.352  23.542  0.00  0.00    -0.211 NA
BRANCH   9  11
ATOM     11  C   UNL     1       6.043  -5.566  21.618  0.00  0.00    +0.281 C 
ATOM     12  N   UNL     1       5.188  -6.384  22.311  0.00  0.00    -0.323 N 
ATOM     13  H   UNL     1       4.520  -6.936  21.796  0.00  0.00    +0.145 HD
ATOM     14  H   UNL     1       5.236  -6.418  23.320  0.00  0.00    +0.145 HD
ATOM     15  O   UNL     1       5.987  -5.513  20.392  0.00  0.00    -0.267 OA
ENDBRANCH   9  11
ENDBRANCH   1   7
BRANCH   4  16
ATOM     16  O3* UNL     1      10.755   0.172  23.386  0.00  0.00    -0.386 OA
ATOM     17  H3* UNL     1      11.298   0.640  22.722  0.00  0.00    +0.210 HD
ENDBRANCH   4  16
BRANCH   5  18
ATOM     18  O2* UNL     1      10.235  -1.586  21.464  0.00  0.00    -0.385 OA
ATOM     19  H2* UNL     1      10.632  -2.340  21.940  0.00  0.00    +0.210 HD
ENDBRANCH   5  18
BRANCH   3  20
ATOM     20  C5* UNL     1       7.158   1.018  23.813  0.00  0.00    +0.190 C 
BRANCH  20  21
ATOM     21  O5* UNL     1       6.080   0.150  23.471  0.00  0.00    -0.392 OA
ATOM     22  H5* UNL     1       6.318  -0.258  22.616  0.00  0.00    +0.210 HD
ENDBRANCH  20  21
ENDBRANCH   3  20
TORSDOF 6
ENDMDL
MODEL 9
REMARK VINA RESULT:      -5.6      3.013      5.844
REMARK  Name = 
REMARK  6 active torsions:
REMARK  status: ('A' for Active; 'I' for Inactive)
REMARK    1  A    between atoms: C_3  and  C_18
REMARK    2  A    between atoms: N_5  and  C1*_6
REMARK    3  A    between atoms: C2*_7  and  O2*_17
REMARK    4  A    between atoms: C3*_9  and  O3*_16
REMARK    5  A    between atoms: C4*_11  and  C5*_14
REMARK    6  A    between atoms: C5*_14  and  O5*_15
REMARK                            x       y       z     vdW  Elec       q    Type
REMARK                         _______ _______ _______ _____ _____    ______ ____
ROOT
ATOM      1  C1* UNL     1       7.781  -2.781  23.911  0.00  0.00    +0.270 C 
ATOM      2  O4* UNL     1       8.261  -2.880  25.269  0.00  0.00    -0.344 OA
ATOM      3  C4* UNL     1       8.028  -4.249  25.695  0.00  0.00    +0.177 C 
ATOM      4  C3* UNL     1       7.511  -5.023  24.473  0.00  0.00    +0.178 C 
ATOM      5  C2* UNL     1       7.961  -4.167  23.299  0.00  0.00    +0.196 C 
ENDROOT
BRANCH   1   7
ATOM      6  C   UNL     1       9.715  -1.739  22.739  0.00  0.00    +0.223 A 
ATOM      7  N   UNL     1       8.439  -1.695  23.212  0.00  0.00    -0.220 N 
ATOM      8  N   UNL     1       7.854  -0.505  22.929  0.00  0.00    -0.142 NA
ATOM      9  C   UNL     1       8.854   0.136  22.268  0.00  0.00    +0.236 A 
ATOM     10  N   UNL     1      10.011  -0.613  22.149  0.00  0.00    -0.211 NA
BRANCH   9  11
ATOM     11  C   UNL     1       8.741   1.505  21.720  0.00  0.00    +0.281 C 
ATOM     12  N   UNL     1       9.929   2.175  21.573  0.00  0.00    -0.323 N 
ATOM     13  H   UNL     1       9.913   3.114  21.206  0.00  0.00    +0.145 HD
ATOM     14  H   UNL     1      10.794   1.720  21.826  0.00  0.00    +0.145 HD
ATOM     15  O   UNL     1       7.684   2.048  21.407  0.00  0.00    -0.267 OA
ENDBRANCH   9  11
ENDBRANCH   1   7
BRANCH   4  16
ATOM     16  O3* UNL     1       6.068  -5.031  24.487  0.00  0.00    -0.386 OA
ATOM     17  H3* UNL     1       5.792  -4.380  25.160  0.00  0.00    +0.210 HD
ENDBRANCH   4  16
BRANCH   5  18
ATOM     18  O2* UNL     1       7.153  -4.402  22.145  0.00  0.00    -0.385 OA
ATOM     19  H2* UNL     1       6.536  -3.651  22.067  0.00  0.00    +0.210 HD
ENDBRANCH   5  18
BRANCH   3  20
ATOM     20  C5* UNL     1       9.338  -4.810  26.247  0.00  0.00    +0.190 C 
BRANCH  20  21
ATOM     21  O5* UNL     1       9.681  -6.023  25.584  0.00  0.00    -0.392 OA
ATOM     22  H5* UNL     1       8.990  -6.172  24.909  0.00  0.00    +0.210 HD
ENDBRANCH  20  21
ENDBRANCH   3  20
TORSDOF 6
ENDMDL
