MODEL 1
REMARK VINA RESULT:      -6.1      0.000      0.000
REMARK  Name = 
REMARK  13 active torsions:
REMARK  status: ('A' for Active; 'I' for Inactive)
REMARK    1  A    between atoms: C_1  and  C_2
REMARK    2  A    between atoms: C_2  and  O_4
REMARK    3  A    between atoms: O_4  and  N_5
REMARK    4  A    between atoms: N_5  and  C_6
REMARK    5  A    between atoms: C_7  and  N_21
REMARK    6  A    between atoms: C_9  and  C_18
REMARK    7  A    between atoms: C_11  and  C_12
REMARK    8  A    between atoms: C_12  and  C_13
REMARK    9  A    between atoms: C_12  and  O_17
REMARK   10  A    between atoms: C_13  and  C_14
REMARK   11  A    between atoms: C_13  and  O_16
REMARK   12  A    between atoms: C_14  and  O_15
REMARK   13  A    between atoms: C_18  and  O_20
REMARK                            x       y       z     vdW  Elec       q    Type
REMARK                         _______ _______ _______ _____ _____    ______ ____
ROOT
ATOM      1  C   UNL     1       6.166  -2.334  23.300  0.00  0.00    +0.180 C 
ATOM      2  C   UNL     1       7.692  -2.264  22.951  0.00  0.00    +0.228 C 
ATOM      3  O   UNL     1       8.623  -2.958  23.793  0.00  0.00    -0.478 OA
ATOM      4  C   UNL     1       8.172  -3.844  24.734  0.00  0.00    +0.204 C 
ATOM      5  C   UNL     1       6.913  -3.907  25.161  0.00  0.00    +0.071 C 
ATOM      6  C   UNL     1       5.855  -2.982  24.683  0.00  0.00    +0.238 C 
ENDROOT
BRANCH   6   7
ATOM      7  N   UNL     1       4.587  -3.706  24.686  0.00  0.00    -0.104 NA
ATOM      8  C   UNL     1       3.614  -3.328  25.425  0.00  0.00    +0.377 C 
ATOM      9  N   UNL     1       2.448  -4.005  25.387  0.00  0.00    -0.289 N 
ATOM     10  H   UNL     1       1.631  -3.411  25.331  0.00  0.00    +0.255 HD
ATOM     11  H   UNL     1       2.466  -4.681  24.629  0.00  0.00    +0.255 HD
ATOM     12  N   UNL     1       3.536  -2.310  26.310  0.00  0.00    -0.289 N 
ATOM     13  H   UNL     1       2.863  -2.488  27.047  0.00  0.00    +0.255 HD
ATOM     14  H   UNL     1       4.427  -2.047  26.714  0.00  0.00    +0.255 HD
ENDBRANCH   6   7
BRANCH   1  15
ATOM     15  N   UNL     1       5.430  -2.871  22.113  0.00  0.00    -0.141 NA
ATOM     16  H   UNL     1       4.683  -3.501  22.421  0.00  0.00    +0.168 HD
BRANCH  15  17
ATOM     17  O   UNL     1       6.361  -3.824  21.471  0.00  0.00    -0.369 OA
BRANCH  17  19
ATOM     18  C   UNL     1       7.248  -5.971  21.842  0.00  0.00    +0.138 C 
ATOM     19  C   UNL     1       6.015  -5.129  21.738  0.00  0.00    +0.323 C 
ATOM     20  O   UNL     1       4.868  -5.522  21.925  0.00  0.00    -0.249 OA
ENDBRANCH  17  19
ENDBRANCH  15  17
ENDBRANCH   1  15
BRANCH   4  21
ATOM     21  C   UNL     1       9.189  -4.730  25.382  0.00  0.00    +0.372 C 
ATOM     22  O   UNL     1      10.312  -4.944  24.962  0.00  0.00    -0.242 OA
BRANCH  21  23
ATOM     23  O   UNL     1       8.675  -5.311  26.492  0.00  0.00    -0.475 OA
ATOM     24  H   UNL     1       9.392  -5.555  27.118  0.00  0.00    +0.296 HD
ENDBRANCH  21  23
ENDBRANCH   4  21
BRANCH   2  25
ATOM     25  C   UNL     1       8.166  -0.782  22.824  0.00  0.00    +0.187 C 
BRANCH  25  26
ATOM     26  O   UNL     1       7.080   0.129  22.661  0.00  0.00    -0.385 OA
ATOM     27  H   UNL     1       6.710   0.379  23.529  0.00  0.00    +0.210 HD
ENDBRANCH  25  26
BRANCH  25  28
ATOM     28  C   UNL     1       9.198  -0.554  21.695  0.00  0.00    +0.172 C 
BRANCH  28  29
ATOM     29  O   UNL     1      10.190  -1.591  21.639  0.00  0.00    -0.387 OA
ATOM     30  H   UNL     1      10.523  -1.729  22.544  0.00  0.00    +0.210 HD
ENDBRANCH  28  29
BRANCH  28  31
ATOM     31  C   UNL     1       9.927   0.791  21.864  0.00  0.00    +0.189 C 
BRANCH  31  32
ATOM     32  O   UNL     1       9.196   1.826  21.207  0.00  0.00    -0.392 OA
ATOM     33  H   UNL     1       8.309   1.462  21.019  0.00  0.00    +0.210 HD
ENDBRANCH  31  32
ENDBRANCH  28  31
ENDBRANCH  25  28
ENDBRANCH   2  25
TORSDOF 12
ENDMDL
MODEL 2
REMARK VINA RESULT:      -6.1      2.526      4.653
REMARK  Name = 
REMARK  13 active torsions:
REMARK  status: ('A' for Active; 'I' for Inactive)
REMARK    1  A    between atoms: C_1  and  C_2
REMARK    2  A    between atoms: C_2  and  O_4
REMARK    3  A    between atoms: O_4  and  N_5
REMARK    4  A    between atoms: N_5  and  C_6
REMARK    5  A    between atoms: C_7  and  N_21
REMARK    6  A    between atoms: C_9  and  C_18
REMARK    7  A    between atoms: C_11  and  C_12
REMARK    8  A    between atoms: C_12  and  C_13
REMARK    9  A    between atoms: C_12  and  O_17
REMARK   10  A    between atoms: C_13  and  C_14
REMARK   11  A    between atoms: C_13  and  O_16
REMARK   12  A    between atoms: C_14  and  O_15
REMARK   13  A    between atoms: C_18  and  O_20
REMARK                            x       y       z     vdW  Elec       q    Type
REMARK                         _______ _______ _______ _____ _____    ______ ____
ROOT
ATOM      1  C   UNL     1       8.183  -3.264  24.297  0.00  0.00    +0.180 C 
ATOM      2  C   UNL     1       7.977  -2.535  22.926  0.00  0.00    +0.228 C 
ATOM      3  O   UNL     1       7.434  -3.280  21.826  0.00  0.00    -0.478 OA
ATOM      4  C   UNL     1       6.897  -4.521  22.034  0.00  0.00    +0.204 C 
ATOM      5  C   UNL     1       7.101  -5.252  23.128  0.00  0.00    +0.071 C 
ATOM      6  C   UNL     1       7.977  -4.808  24.240  0.00  0.00    +0.238 C 
ENDROOT
BRANCH   6   7
ATOM      7  N   UNL     1       7.434  -5.344  25.485  0.00  0.00    -0.104 NA
ATOM      8  C   UNL     1       8.142  -5.383  26.549  0.00  0.00    +0.377 C 
ATOM      9  N   UNL     1       7.604  -5.862  27.689  0.00  0.00    -0.289 N 
ATOM     10  H   UNL     1       7.792  -5.293  28.503  0.00  0.00    +0.255 HD
ATOM     11  H   UNL     1       6.605  -6.009  27.564  0.00  0.00    +0.255 HD
ATOM     12  N   UNL     1       9.427  -5.018  26.756  0.00  0.00    -0.289 N 
ATOM     13  H   UNL     1       9.860  -5.535  27.513  0.00  0.00    +0.255 HD
ATOM     14  H   UNL     1      10.007  -5.069  25.927  0.00  0.00    +0.255 HD
ENDBRANCH   6   7
BRANCH   1  15
ATOM     15  N   UNL     1       7.433  -2.514  25.353  0.00  0.00    -0.141 NA
ATOM     16  H   UNL     1       7.107  -1.618  24.978  0.00  0.00    +0.168 HD
BRANCH  15  17
ATOM     17  O   UNL     1       8.458  -2.065  26.319  0.00  0.00    -0.369 OA
BRANCH  17  19
ATOM     18  C   UNL     1       7.661   0.064  26.928  0.00  0.00    +0.138 C 
ATOM     19  C   UNL     1       8.711  -0.717  26.199  0.00  0.00    +0.323 C 
ATOM     20  O   UNL     1       9.687  -0.238  25.632  0.00  0.00    -0.249 OA
ENDBRANCH  17  19
ENDBRANCH  15  17
ENDBRANCH   1  15
BRANCH   4  21
ATOM     21  C   UNL     1       6.108  -5.122  20.913  0.00  0.00    +0.372 C 
ATOM     22  O   UNL     1       5.806  -4.557  19.878  0.00  0.00    -0.242 OA
BRANCH  21  23
ATOM     23  O   UNL     1       5.727  -6.384  21.222  0.00  0.00    -0.475 OA
ATOM     24  H   UNL     1       5.052  -6.377  21.936  0.00  0.00    +0.296 HD
ENDBRANCH  21  23
ENDBRANCH   4  21
BRANCH   2  25
ATOM     25  C   UNL     1       9.302  -1.864  22.447  0.00  0.00    +0.187 C 
BRANCH  25  26
ATOM     26  O   UNL     1      10.382  -2.074  23.357  0.00  0.00    -0.385 OA
ATOM     27  H   UNL     1      10.690  -1.224  23.725  0.00  0.00    +0.210 HD
ENDBRANCH  25  26
BRANCH  25  28
ATOM     28  C   UNL     1       9.164  -0.350  22.160  0.00  0.00    +0.172 C 
BRANCH  28  29
ATOM     29  O   UNL     1      10.218   0.420  22.759  0.00  0.00    -0.387 OA
ATOM     30  H   UNL     1      10.313   0.120  23.682  0.00  0.00    +0.210 HD
ENDBRANCH  28  29
BRANCH  28  31
ATOM     31  C   UNL     1       7.822   0.198  22.674  0.00  0.00    +0.189 C 
BRANCH  31  32
ATOM     32  O   UNL     1       8.050   1.325  23.520  0.00  0.00    -0.392 OA
ATOM     33  H   UNL     1       8.144   2.099  22.932  0.00  0.00    +0.210 HD
ENDBRANCH  31  32
ENDBRANCH  28  31
ENDBRANCH  25  28
ENDBRANCH   2  25
TORSDOF 12
ENDMDL
MODEL 3
REMARK VINA RESULT:      -6.0      2.533      4.369
REMARK  Name = 
REMARK  13 active torsions:
REMARK  status: ('A' for Active; 'I' for Inactive)
REMARK    1  A    between atoms: C_1  and  C_2
REMARK    2  A    between atoms: C_2  and  O_4
REMARK    3  A    between atoms: O_4  and  N_5
REMARK    4  A    between atoms: N_5  and  C_6
REMARK    5  A    between atoms: C_7  and  N_21
REMARK    6  A    between atoms: C_9  and  C_18
REMARK    7  A    between atoms: C_11  and  C_12
REMARK    8  A    between atoms: C_12  and  C_13
REMARK    9  A    between atoms: C_12  and  O_17
REMARK   10  A    between atoms: C_13  and  C_14
REMARK   11  A    between atoms: C_13  and  O_16
REMARK   12  A    between atoms: C_14  and  O_15
REMARK   13  A    between atoms: C_18  and  O_20
REMARK                            x       y       z     vdW  Elec       q    Type
REMARK                         _______ _______ _______ _____ _____    ______ ____
ROOT
ATOM      1  C   UNL     1       8.269  -3.024  24.185  0.00  0.00    +0.180 C 
ATOM      2  C   UNL     1       8.049  -2.284  22.821  0.00  0.00    +0.228 C 
ATOM      3  O   UNL     1       7.458  -3.009  21.734  0.00  0.00    -0.478 OA
ATOM      4  C   UNL     1       6.893  -4.237  21.950  0.00  0.00    +0.204 C 
ATOM      5  C   UNL     1       7.104  -4.977  23.037  0.00  0.00    +0.071 C 
ATOM      6  C   UNL     1       8.020  -4.561  24.127  0.00  0.00    +0.238 C 
ENDROOT
BRANCH   6   7
ATOM      7  N   UNL     1       7.495  -5.087  25.384  0.00  0.00    -0.104 NA
ATOM      8  C   UNL     1       8.271  -5.340  26.368  0.00  0.00    +0.377 C 
ATOM      9  N   UNL     1       7.752  -5.803  27.524  0.00  0.00    -0.289 N 
ATOM     10  H   UNL     1       8.114  -5.345  28.349  0.00  0.00    +0.255 HD
ATOM     11  H   UNL     1       6.737  -5.755  27.490  0.00  0.00    +0.255 HD
ATOM     12  N   UNL     1       9.615  -5.234  26.469  0.00  0.00    -0.289 N 
ATOM     13  H   UNL     1      10.006  -5.879  27.145  0.00  0.00    +0.255 HD
ATOM     14  H   UNL     1      10.102  -5.323  25.585  0.00  0.00    +0.255 HD
ENDBRANCH   6   7
BRANCH   1  15
ATOM     15  N   UNL     1       7.566  -2.258  25.262  0.00  0.00    -0.141 NA
ATOM     16  H   UNL     1       6.950  -2.883  25.789  0.00  0.00    +0.168 HD
BRANCH  15  17
ATOM     17  O   UNL     1       6.581  -1.408  24.560  0.00  0.00    -0.369 OA
BRANCH  17  19
ATOM     18  C   UNL     1       6.109  -1.129  26.848  0.00  0.00    +0.138 C 
ATOM     19  C   UNL     1       5.791  -0.712  25.446  0.00  0.00    +0.323 C 
ATOM     20  O   UNL     1       4.993   0.165  25.130  0.00  0.00    -0.249 OA
ENDBRANCH  17  19
ENDBRANCH  15  17
ENDBRANCH   1  15
BRANCH   4  21
ATOM     21  C   UNL     1       6.060  -4.811  20.848  0.00  0.00    +0.372 C 
ATOM     22  O   UNL     1       5.809  -4.262  19.791  0.00  0.00    -0.242 OA
BRANCH  21  23
ATOM     23  O   UNL     1       5.574  -6.025  21.202  0.00  0.00    -0.475 OA
ATOM     24  H   UNL     1       5.702  -6.182  22.164  0.00  0.00    +0.296 HD
ENDBRANCH  21  23
ENDBRANCH   4  21
BRANCH   2  25
ATOM     25  C   UNL     1       9.379  -1.646  22.312  0.00  0.00    +0.187 C 
BRANCH  25  26
ATOM     26  O   UNL     1      10.535  -2.330  22.796  0.00  0.00    -0.385 OA
ATOM     27  H   UNL     1      10.384  -2.657  23.703  0.00  0.00    +0.210 HD
ENDBRANCH  25  26
BRANCH  25  28
ATOM     28  C   UNL     1       9.508  -0.138  22.630  0.00  0.00    +0.172 C 
BRANCH  28  29
ATOM     29  O   UNL     1       8.728   0.250  23.772  0.00  0.00    -0.387 OA
ATOM     30  H   UNL     1       8.717   1.225  23.803  0.00  0.00    +0.210 HD
ENDBRANCH  28  29
BRANCH  28  31
ATOM     31  C   UNL     1       9.066   0.726  21.436  0.00  0.00    +0.189 C 
BRANCH  31  32
ATOM     32  O   UNL     1       9.783   1.961  21.439  0.00  0.00    -0.392 OA
ATOM     33  H   UNL     1       9.547   2.415  22.271  0.00  0.00    +0.210 HD
ENDBRANCH  31  32
ENDBRANCH  28  31
ENDBRANCH  25  28
ENDBRANCH   2  25
TORSDOF 12
ENDMDL
MODEL 4
REMARK VINA RESULT:      -6.0      2.699      5.969
REMARK  Name = 
REMARK  13 active torsions:
REMARK  status: ('A' for Active; 'I' for Inactive)
REMARK    1  A    between atoms: C_1  and  C_2
REMARK    2  A    between atoms: C_2  and  O_4
REMARK    3  A    between atoms: O_4  and  N_5
REMARK    4  A    between atoms: N_5  and  C_6
REMARK    5  A    between atoms: C_7  and  N_21
REMARK    6  A    between atoms: C_9  and  C_18
REMARK    7  A    between atoms: C_11  and  C_12
REMARK    8  A    between atoms: C_12  and  C_13
REMARK    9  A    between atoms: C_12  and  O_17
REMARK   10  A    between atoms: C_13  and  C_14
REMARK   11  A    between atoms: C_13  and  O_16
REMARK   12  A    between atoms: C_14  and  O_15
REMARK   13  A    between atoms: C_18  and  O_20
REMARK                            x       y       z     vdW  Elec       q    Type
REMARK                         _______ _______ _______ _____ _____    ______ ____
ROOT
ATOM      1  C   UNL     1       8.078  -2.552  24.335  0.00  0.00    +0.180 C 
ATOM      2  C   UNL     1       8.298  -4.094  24.504  0.00  0.00    +0.228 C 
ATOM      3  O   UNL     1       7.577  -4.989  23.646  0.00  0.00    -0.478 OA
ATOM      4  C   UNL     1       6.898  -4.505  22.561  0.00  0.00    +0.204 C 
ATOM      5  C   UNL     1       6.583  -3.223  22.385  0.00  0.00    +0.071 C 
ATOM      6  C   UNL     1       6.906  -2.172  23.381  0.00  0.00    +0.238 C 
ENDROOT
BRANCH   6   7
ATOM      7  N   UNL     1       7.155  -0.928  22.660  0.00  0.00    -0.104 NA
ATOM      8  C   UNL     1       6.680   0.183  23.079  0.00  0.00    +0.377 C 
ATOM      9  N   UNL     1       6.948   1.319  22.403  0.00  0.00    -0.289 N 
ATOM     10  H   UNL     1       7.221   2.093  22.994  0.00  0.00    +0.255 HD
ATOM     11  H   UNL     1       7.646   1.138  21.686  0.00  0.00    +0.255 HD
ATOM     12  N   UNL     1       5.890   0.448  24.143  0.00  0.00    -0.289 N 
ATOM     13  H   UNL     1       5.319   1.274  24.007  0.00  0.00    +0.255 HD
ATOM     14  H   UNL     1       5.307  -0.331  24.427  0.00  0.00    +0.255 HD
ENDBRANCH   6   7
BRANCH   1  15
ATOM     15  N   UNL     1       9.404  -1.907  24.078  0.00  0.00    -0.141 NA
ATOM     16  H   UNL     1      10.155  -2.593  24.198  0.00  0.00    +0.168 HD
BRANCH  15  17
ATOM     17  O   UNL     1       9.640  -1.019  25.236  0.00  0.00    -0.369 OA
BRANCH  17  19
ATOM     18  C   UNL     1      10.823   0.544  23.935  0.00  0.00    +0.138 C 
ATOM     19  C   UNL     1       9.671   0.305  24.860  0.00  0.00    +0.323 C 
ATOM     20  O   UNL     1       8.838   1.144  25.188  0.00  0.00    -0.249 OA
ENDBRANCH  17  19
ENDBRANCH  15  17
ENDBRANCH   1  15
BRANCH   4  21
ATOM     21  C   UNL     1       6.404  -5.503  21.562  0.00  0.00    +0.372 C 
ATOM     22  O   UNL     1       5.983  -5.242  20.449  0.00  0.00    -0.242 OA
BRANCH  21  23
ATOM     23  O   UNL     1       6.442  -6.754  22.079  0.00  0.00    -0.475 OA
ATOM     24  H   UNL     1       5.954  -7.382  21.503  0.00  0.00    +0.296 HD
ENDBRANCH  21  23
ENDBRANCH   4  21
BRANCH   2  25
ATOM     25  C   UNL     1       8.048  -4.534  25.981  0.00  0.00    +0.187 C 
BRANCH  25  26
ATOM     26  O   UNL     1       9.124  -5.308  26.512  0.00  0.00    -0.385 OA
ATOM     27  H   UNL     1       9.441  -5.951  25.850  0.00  0.00    +0.210 HD
ENDBRANCH  25  26
BRANCH  25  28
ATOM     28  C   UNL     1       6.719  -5.298  26.185  0.00  0.00    +0.172 C 
BRANCH  28  29
ATOM     29  O   UNL     1       5.598  -4.616  25.602  0.00  0.00    -0.387 OA
ATOM     30  H   UNL     1       5.748  -4.572  24.640  0.00  0.00    +0.210 HD
ENDBRANCH  28  29
BRANCH  28  31
ATOM     31  C   UNL     1       6.420  -5.514  27.679  0.00  0.00    +0.189 C 
BRANCH  31  32
ATOM     32  O   UNL     1       7.359  -6.434  28.235  0.00  0.00    -0.392 OA
ATOM     33  H   UNL     1       8.007  -5.900  28.734  0.00  0.00    +0.210 HD
ENDBRANCH  31  32
ENDBRANCH  28  31
ENDBRANCH  25  28
ENDBRANCH   2  25
TORSDOF 12
ENDMDL
MODEL 5
REMARK VINA RESULT:      -5.9      2.589      5.348
REMARK  Name = 
REMARK  13 active torsions:
REMARK  status: ('A' for Active; 'I' for Inactive)
REMARK    1  A    between atoms: C_1  and  C_2
REMARK    2  A    between atoms: C_2  and  O_4
REMARK    3  A    between atoms: O_4  and  N_5
REMARK    4  A    between atoms: N_5  and  C_6
REMARK    5  A    between atoms: C_7  and  N_21
REMARK    6  A    between atoms: C_9  and  C_18
REMARK    7  A    between atoms: C_11  and  C_12
REMARK    8  A    between atoms: C_12  and  C_13
REMARK    9  A    between atoms: C_12  and  O_17
REMARK   10  A    between atoms: C_13  and  C_14
REMARK   11  A    between atoms: C_13  and  O_16
REMARK   12  A    between atoms: C_14  and  O_15
REMARK   13  A    between atoms: C_18  and  O_20
REMARK                            x       y       z     vdW  Elec       q    Type
REMARK                         _______ _______ _______ _____ _____    ______ ____
ROOT
ATOM      1  C   UNL     1       7.342  -2.203  22.858  0.00  0.00    +0.180 C 
ATOM      2  C   UNL     1       6.831  -3.636  23.233  0.00  0.00    +0.228 C 
ATOM      3  O   UNL     1       7.645  -4.455  24.084  0.00  0.00    -0.478 OA
ATOM      4  C   UNL     1       8.721  -3.915  24.735  0.00  0.00    +0.204 C 
ATOM      5  C   UNL     1       9.280  -2.749  24.419  0.00  0.00    +0.071 C 
ATOM      6  C   UNL     1       8.813  -1.915  23.283  0.00  0.00    +0.238 C 
ENDROOT
BRANCH   6   7
ATOM      7  N   UNL     1       9.028  -0.514  23.633  0.00  0.00    -0.104 NA
ATOM      8  C   UNL     1       9.352   0.345  22.743  0.00  0.00    +0.377 C 
ATOM      9  N   UNL     1       9.520   1.636  23.094  0.00  0.00    -0.289 N 
ATOM     10  H   UNL     1       9.075   2.293  22.468  0.00  0.00    +0.255 HD
ATOM     11  H   UNL     1       9.215   1.776  24.054  0.00  0.00    +0.255 HD
ATOM     12  N   UNL     1       9.587   0.186  21.422  0.00  0.00    -0.289 N 
ATOM     13  H   UNL     1      10.224   0.881  21.054  0.00  0.00    +0.255 HD
ATOM     14  H   UNL     1       9.906  -0.743  21.169  0.00  0.00    +0.255 HD
ENDBRANCH   6   7
BRANCH   1  15
ATOM     15  N   UNL     1       6.304  -1.205  23.269  0.00  0.00    -0.141 NA
ATOM     16  H   UNL     1       6.749  -0.418  23.751  0.00  0.00    +0.168 HD
BRANCH  15  17
ATOM     17  O   UNL     1       5.566  -1.841  24.380  0.00  0.00    -0.369 OA
BRANCH  17  19
ATOM     18  C   UNL     1       6.474  -1.485  26.521  0.00  0.00    +0.138 C 
ATOM     19  C   UNL     1       5.502  -1.019  25.482  0.00  0.00    +0.323 C 
ATOM     20  O   UNL     1       4.798  -0.018  25.567  0.00  0.00    -0.249 OA
ENDBRANCH  17  19
ENDBRANCH  15  17
ENDBRANCH   1  15
BRANCH   4  21
ATOM     21  C   UNL     1       9.356  -4.741  25.809  0.00  0.00    +0.372 C 
ATOM     22  O   UNL     1       9.050  -4.727  26.988  0.00  0.00    -0.242 OA
BRANCH  21  23
ATOM     23  O   UNL     1      10.365  -5.487  25.301  0.00  0.00    -0.475 OA
ATOM     24  H   UNL     1      11.232  -5.177  25.645  0.00  0.00    +0.296 HD
ENDBRANCH  21  23
ENDBRANCH   4  21
BRANCH   2  25
ATOM     25  C   UNL     1       6.491  -4.459  21.952  0.00  0.00    +0.187 C 
BRANCH  25  26
ATOM     26  O   UNL     1       5.668  -3.734  21.037  0.00  0.00    -0.385 OA
ATOM     27  H   UNL     1       4.737  -4.017  21.117  0.00  0.00    +0.210 HD
ENDBRANCH  25  26
BRANCH  25  28
ATOM     28  C   UNL     1       5.839  -5.830  22.247  0.00  0.00    +0.172 C 
BRANCH  28  29
ATOM     29  O   UNL     1       5.289  -6.442  21.070  0.00  0.00    -0.387 OA
ATOM     30  H   UNL     1       5.223  -7.400  21.239  0.00  0.00    +0.210 HD
ENDBRANCH  28  29
BRANCH  28  31
ATOM     31  C   UNL     1       4.712  -5.703  23.287  0.00  0.00    +0.189 C 
BRANCH  31  32
ATOM     32  O   UNL     1       3.613  -4.986  22.727  0.00  0.00    -0.392 OA
ATOM     33  H   UNL     1       3.840  -4.816  21.793  0.00  0.00    +0.210 HD
ENDBRANCH  31  32
ENDBRANCH  28  31
ENDBRANCH  25  28
ENDBRANCH   2  25
TORSDOF 12
ENDMDL
MODEL 6
REMARK VINA RESULT:      -5.8      2.445      4.302
REMARK  Name = 
REMARK  13 active torsions:
REMARK  status: ('A' for Active; 'I' for Inactive)
REMARK    1  A    between atoms: C_1  and  C_2
REMARK    2  A    between atoms: C_2  and  O_4
REMARK    3  A    between atoms: O_4  and  N_5
REMARK    4  A    between atoms: N_5  and  C_6
REMARK    5  A    between atoms: C_7  and  N_21
REMARK    6  A    between atoms: C_9  and  C_18
REMARK    7  A    between atoms: C_11  and  C_12
REMARK    8  A    between atoms: C_12  and  C_13
REMARK    9  A    between atoms: C_12  and  O_17
REMARK   10  A    between atoms: C_13  and  C_14
REMARK   11  A    between atoms: C_13  and  O_16
REMARK   12  A    between atoms: C_14  and  O_15
REMARK   13  A    between atoms: C_18  and  O_20
REMARK                            x       y       z     vdW  Elec       q    Type
REMARK                         _______ _______ _______ _____ _____    ______ ____
ROOT
ATOM      1  C   UNL     1       8.387  -2.875  23.162  0.00  0.00    +0.180 C 
ATOM      2  C   UNL     1       8.766  -1.455  23.703  0.00  0.00    +0.228 C 
ATOM      3  O   UNL     1       7.711  -0.570  24.107  0.00  0.00    -0.478 OA
ATOM      4  C   UNL     1       6.431  -1.037  24.233  0.00  0.00    +0.204 C 
ATOM      5  C   UNL     1       5.999  -2.187  23.720  0.00  0.00    +0.071 C 
ATOM      6  C   UNL     1       6.863  -3.081  22.910  0.00  0.00    +0.238 C 
ENDROOT
BRANCH   6   7
ATOM      7  N   UNL     1       6.440  -4.457  23.150  0.00  0.00    -0.104 NA
ATOM      8  C   UNL     1       6.186  -5.247  22.177  0.00  0.00    +0.377 C 
ATOM      9  N   UNL     1       5.820  -6.520  22.431  0.00  0.00    -0.289 N 
ATOM     10  H   UNL     1       6.295  -7.206  21.860  0.00  0.00    +0.255 HD
ATOM     11  H   UNL     1       5.935  -6.721  23.422  0.00  0.00    +0.255 HD
ATOM     12  N   UNL     1       6.207  -5.025  20.844  0.00  0.00    -0.289 N 
ATOM     13  H   UNL     1       5.572  -5.632  20.339  0.00  0.00    +0.255 HD
ATOM     14  H   UNL     1       6.039  -4.059  20.586  0.00  0.00    +0.255 HD
ENDBRANCH   6   7
BRANCH   1  15
ATOM     15  N   UNL     1       9.087  -3.904  23.995  0.00  0.00    -0.141 NA
ATOM     16  H   UNL     1       8.527  -4.760  24.034  0.00  0.00    +0.168 HD
BRANCH  15  17
ATOM     17  O   UNL     1       8.974  -3.424  25.388  0.00  0.00    -0.369 OA
BRANCH  17  19
ATOM     18  C   UNL     1       7.149  -3.569  26.866  0.00  0.00    +0.138 C 
ATOM     19  C   UNL     1       8.255  -4.300  26.169  0.00  0.00    +0.323 C 
ATOM     20  O   UNL     1       8.456  -5.508  26.230  0.00  0.00    -0.249 OA
ENDBRANCH  17  19
ENDBRANCH  15  17
ENDBRANCH   1  15
BRANCH   4  21
ATOM     21  C   UNL     1       5.441  -0.145  24.915  0.00  0.00    +0.372 C 
ATOM     22  O   UNL     1       4.793  -0.433  25.905  0.00  0.00    -0.242 OA
BRANCH  21  23
ATOM     23  O   UNL     1       5.322   1.029  24.250  0.00  0.00    -0.475 OA
ATOM     24  H   UNL     1       5.970   1.078  23.513  0.00  0.00    +0.296 HD
ENDBRANCH  21  23
ENDBRANCH   4  21
BRANCH   2  25
ATOM     25  C   UNL     1       9.672  -0.694  22.686  0.00  0.00    +0.187 C 
BRANCH  25  26
ATOM     26  O   UNL     1      10.489  -1.575  21.914  0.00  0.00    -0.385 OA
ATOM     27  H   UNL     1      11.000  -2.167  22.498  0.00  0.00    +0.210 HD
ENDBRANCH  25  26
BRANCH  25  28
ATOM     28  C   UNL     1      10.564   0.390  23.336  0.00  0.00    +0.172 C 
BRANCH  28  29
ATOM     29  O   UNL     1      10.558   0.318  24.770  0.00  0.00    -0.387 OA
ATOM     30  H   UNL     1       9.807   0.853  25.088  0.00  0.00    +0.210 HD
ENDBRANCH  28  29
BRANCH  28  31
ATOM     31  C   UNL     1      10.115   1.804  22.929  0.00  0.00    +0.189 C 
BRANCH  31  32
ATOM     32  O   UNL     1       9.885   1.855  21.521  0.00  0.00    -0.392 OA
ATOM     33  H   UNL     1       9.987   2.789  21.258  0.00  0.00    +0.210 HD
ENDBRANCH  31  32
ENDBRANCH  28  31
ENDBRANCH  25  28
ENDBRANCH   2  25
TORSDOF 12
ENDMDL
MODEL 7
REMARK VINA RESULT:      -5.8      2.973      6.138
REMARK  Name = 
REMARK  13 active torsions:
REMARK  status: ('A' for Active; 'I' for Inactive)
REMARK    1  A    between atoms: C_1  and  C_2
REMARK    2  A    between atoms: C_2  and  O_4
REMARK    3  A    between atoms: O_4  and  N_5
REMARK    4  A    between atoms: N_5  and  C_6
REMARK    5  A    between atoms: C_7  and  N_21
REMARK    6  A    between atoms: C_9  and  C_18
REMARK    7  A    between atoms: C_11  and  C_12
REMARK    8  A    between atoms: C_12  and  C_13
REMARK    9  A    between atoms: C_12  and  O_17
REMARK   10  A    between atoms: C_13  and  C_14
REMARK   11  A    between atoms: C_13  and  O_16
REMARK   12  A    between atoms: C_14  and  O_15
REMARK   13  A    between atoms: C_18  and  O_20
REMARK                            x       y       z     vdW  Elec       q    Type
REMARK                         _______ _______ _______ _____ _____    ______ ____
ROOT
ATOM      1  C   UNL     1       8.026  -3.967  24.595  0.00  0.00    +0.180 C 
ATOM      2  C   UNL     1       6.879  -4.232  25.630  0.00  0.00    +0.228 C 
ATOM      3  O   UNL     1       6.038  -3.136  26.018  0.00  0.00    -0.478 OA
ATOM      4  C   UNL     1       6.088  -1.953  25.332  0.00  0.00    +0.204 C 
ATOM      5  C   UNL     1       7.074  -1.606  24.508  0.00  0.00    +0.071 C 
ATOM      6  C   UNL     1       8.263  -2.461  24.272  0.00  0.00    +0.238 C 
ENDROOT
BRANCH   6   7
ATOM      7  N   UNL     1       8.706  -2.250  22.897  0.00  0.00    -0.104 NA
ATOM      8  C   UNL     1       9.620  -1.399  22.623  0.00  0.00    +0.377 C 
ATOM      9  N   UNL     1      10.024  -1.243  21.345  0.00  0.00    -0.289 N 
ATOM     10  H   UNL     1      11.028  -1.209  21.234  0.00  0.00    +0.255 HD
ATOM     11  H   UNL     1       9.611  -1.967  20.763  0.00  0.00    +0.255 HD
ATOM     12  N   UNL     1      10.297  -0.555  23.433  0.00  0.00    -0.289 N 
ATOM     13  H   UNL     1      10.617   0.276  22.948  0.00  0.00    +0.255 HD
ATOM     14  H   UNL     1       9.790  -0.292  24.270  0.00  0.00    +0.255 HD
ENDBRANCH   6   7
BRANCH   1  15
ATOM     15  N   UNL     1       7.843  -4.894  23.434  0.00  0.00    -0.141 NA
ATOM     16  H   UNL     1       8.079  -4.412  22.562  0.00  0.00    +0.168 HD
BRANCH  15  17
ATOM     17  O   UNL     1       6.380  -5.054  23.286  0.00  0.00    -0.369 OA
BRANCH  17  19
ATOM     18  C   UNL     1       6.255  -5.608  21.003  0.00  0.00    +0.138 C 
ATOM     19  C   UNL     1       5.943  -4.598  22.063  0.00  0.00    +0.323 C 
ATOM     20  O   UNL     1       5.332  -3.549  21.887  0.00  0.00    -0.249 OA
ENDBRANCH  17  19
ENDBRANCH  15  17
ENDBRANCH   1  15
BRANCH   4  21
ATOM     21  C   UNL     1       5.005  -0.958  25.606  0.00  0.00    +0.372 C 
ATOM     22  O   UNL     1       4.068  -1.121  26.367  0.00  0.00    -0.242 OA
BRANCH  21  23
ATOM     23  O   UNL     1       5.176   0.152  24.849  0.00  0.00    -0.475 OA
ATOM     24  H   UNL     1       4.624   0.891  25.188  0.00  0.00    +0.296 HD
ENDBRANCH  21  23
ENDBRANCH   4  21
BRANCH   2  25
ATOM     25  C   UNL     1       7.441  -4.893  26.926  0.00  0.00    +0.187 C 
BRANCH  25  26
ATOM     26  O   UNL     1       8.462  -5.853  26.654  0.00  0.00    -0.385 OA
ATOM     27  H   UNL     1       9.345  -5.464  26.800  0.00  0.00    +0.210 HD
ENDBRANCH  25  26
BRANCH  25  28
ATOM     28  C   UNL     1       6.354  -5.543  27.814  0.00  0.00    +0.172 C 
BRANCH  28  29
ATOM     29  O   UNL     1       6.909  -6.417  28.810  0.00  0.00    -0.387 OA
ATOM     30  H   UNL     1       6.251  -6.504  29.525  0.00  0.00    +0.210 HD
ENDBRANCH  28  29
BRANCH  28  31
ATOM     31  C   UNL     1       5.354  -6.356  26.973  0.00  0.00    +0.189 C 
BRANCH  31  32
ATOM     32  O   UNL     1       4.883  -7.474  27.725  0.00  0.00    -0.392 OA
ATOM     33  H   UNL     1       3.944  -7.592  27.486  0.00  0.00    +0.210 HD
ENDBRANCH  31  32
ENDBRANCH  28  31
ENDBRANCH  25  28
ENDBRANCH   2  25
TORSDOF 12
ENDMDL
MODEL 8
REMARK VINA RESULT:      -5.7      2.744      4.497
REMARK  Name = 
REMARK  13 active torsions:
REMARK  status: ('A' for Active; 'I' for Inactive)
REMARK    1  A    between atoms: C_1  and  C_2
REMARK    2  A    between atoms: C_2  and  O_4
REMARK    3  A    between atoms: O_4  and  N_5
REMARK    4  A    between atoms: N_5  and  C_6
REMARK    5  A    between atoms: C_7  and  N_21
REMARK    6  A    between atoms: C_9  and  C_18
REMARK    7  A    between atoms: C_11  and  C_12
REMARK    8  A    between atoms: C_12  and  C_13
REMARK    9  A    between atoms: C_12  and  O_17
REMARK   10  A    between atoms: C_13  and  C_14
REMARK   11  A    between atoms: C_13  and  O_16
REMARK   12  A    between atoms: C_14  and  O_15
REMARK   13  A    between atoms: C_18  and  O_20
REMARK                            x       y       z     vdW  Elec       q    Type
REMARK                         _______ _______ _______ _____ _____    ______ ____
ROOT
ATOM      1  C   UNL     1       7.149  -2.725  24.614  0.00  0.00    +0.180 C 
ATOM      2  C   UNL     1       6.588  -1.416  23.960  0.00  0.00    +0.228 C 
ATOM      3  O   UNL     1       7.493  -0.563  23.245  0.00  0.00    -0.478 OA
ATOM      4  C   UNL     1       8.757  -0.995  22.946  0.00  0.00    +0.204 C 
ATOM      5  C   UNL     1       9.348  -2.039  23.525  0.00  0.00    +0.071 C 
ATOM      6  C   UNL     1       8.704  -2.833  24.600  0.00  0.00    +0.238 C 
ENDROOT
BRANCH   6   7
ATOM      7  N   UNL     1       9.165  -4.213  24.480  0.00  0.00    -0.104 NA
ATOM      8  C   UNL     1       9.390  -4.924  25.518  0.00  0.00    +0.377 C 
ATOM      9  N   UNL     1       9.793  -6.204  25.374  0.00  0.00    -0.289 N 
ATOM     10  H   UNL     1       9.306  -6.857  25.973  0.00  0.00    +0.255 HD
ATOM     11  H   UNL     1       9.727  -6.478  24.397  0.00  0.00    +0.255 HD
ATOM     12  N   UNL     1       9.306  -4.607  26.829  0.00  0.00    -0.289 N 
ATOM     13  H   UNL     1       9.929  -5.161  27.404  0.00  0.00    +0.255 HD
ATOM     14  H   UNL     1       9.443  -3.621  27.023  0.00  0.00    +0.255 HD
ENDBRANCH   6   7
BRANCH   1  15
ATOM     15  N   UNL     1       6.378  -3.892  24.080  0.00  0.00    -0.141 NA
ATOM     16  H   UNL     1       7.024  -4.621  23.764  0.00  0.00    +0.168 HD
BRANCH  15  17
ATOM     17  O   UNL     1       5.812  -3.433  22.794  0.00  0.00    -0.369 OA
BRANCH  17  19
ATOM     18  C   UNL     1       6.616  -5.601  22.359  0.00  0.00    +0.138 C 
ATOM     19  C   UNL     1       6.043  -4.342  21.786  0.00  0.00    +0.323 C 
ATOM     20  O   UNL     1       5.759  -4.163  20.606  0.00  0.00    -0.249 OA
ENDBRANCH  17  19
ENDBRANCH  15  17
ENDBRANCH   1  15
BRANCH   4  21
ATOM     21  C   UNL     1       9.547  -0.179  21.972  0.00  0.00    +0.372 C 
ATOM     22  O   UNL     1      10.046   0.908  22.200  0.00  0.00    -0.242 OA
BRANCH  21  23
ATOM     23  O   UNL     1       9.599  -0.795  20.767  0.00  0.00    -0.475 OA
ATOM     24  H   UNL     1      10.531  -0.954  20.500  0.00  0.00    +0.296 HD
ENDBRANCH  21  23
ENDBRANCH   4  21
BRANCH   2  25
ATOM     25  C   UNL     1       5.833  -0.546  25.013  0.00  0.00    +0.187 C 
BRANCH  25  26
ATOM     26  O   UNL     1       5.311   0.659  24.455  0.00  0.00    -0.385 OA
ATOM     27  H   UNL     1       4.484   0.481  23.967  0.00  0.00    +0.210 HD
ENDBRANCH  25  26
BRANCH  25  28
ATOM     28  C   UNL     1       6.681  -0.205  26.261  0.00  0.00    +0.172 C 
BRANCH  28  29
ATOM     29  O   UNL     1       6.001  -0.515  27.487  0.00  0.00    -0.387 OA
ATOM     30  H   UNL     1       5.488  -1.331  27.342  0.00  0.00    +0.210 HD
ENDBRANCH  28  29
BRANCH  28  31
ATOM     31  C   UNL     1       7.060   1.286  26.291  0.00  0.00    +0.189 C 
BRANCH  31  32
ATOM     32  O   UNL     1       8.035   1.559  25.285  0.00  0.00    -0.392 OA
ATOM     33  H   UNL     1       7.554   1.955  24.534  0.00  0.00    +0.210 HD
ENDBRANCH  31  32
ENDBRANCH  28  31
ENDBRANCH  25  28
ENDBRANCH   2  25
TORSDOF 12
ENDMDL
MODEL 9
REMARK VINA RESULT:      -5.6      2.603      5.955
REMARK  Name = 
REMARK  13 active torsions:
REMARK  status: ('A' for Active; 'I' for Inactive)
REMARK    1  A    between atoms: C_1  and  C_2
REMARK    2  A    between atoms: C_2  and  O_4
REMARK    3  A    between atoms: O_4  and  N_5
REMARK    4  A    between atoms: N_5  and  C_6
REMARK    5  A    between atoms: C_7  and  N_21
REMARK    6  A    between atoms: C_9  and  C_18
REMARK    7  A    between atoms: C_11  and  C_12
REMARK    8  A    between atoms: C_12  and  C_13
REMARK    9  A    between atoms: C_12  and  O_17
REMARK   10  A    between atoms: C_13  and  C_14
REMARK   11  A    between atoms: C_13  and  O_16
REMARK   12  A    between atoms: C_14  and  O_15
REMARK   13  A    between atoms: C_18  and  O_20
REMARK                            x       y       z     vdW  Elec       q    Type
REMARK                         _______ _______ _______ _____ _____    ______ ____
ROOT
ATOM      1  C   UNL     1       7.263  -2.828  25.457  0.00  0.00    +0.180 C 
ATOM      2  C   UNL     1       7.515  -4.374  25.473  0.00  0.00    +0.228 C 
ATOM      3  O   UNL     1       7.018  -5.162  24.382  0.00  0.00    -0.478 OA
ATOM      4  C   UNL     1       6.543  -4.553  23.252  0.00  0.00    +0.204 C 
ATOM      5  C   UNL     1       6.211  -3.266  23.178  0.00  0.00    +0.071 C 
ATOM      6  C   UNL     1       6.284  -2.349  24.343  0.00  0.00    +0.238 C 
ENDROOT
BRANCH   6   7
ATOM      7  N   UNL     1       6.614  -1.015  23.847  0.00  0.00    -0.104 NA
ATOM      8  C   UNL     1       6.153   0.032  24.417  0.00  0.00    +0.377 C 
ATOM      9  N   UNL     1       6.495   1.250  23.950  0.00  0.00    -0.289 N 
ATOM     10  H   UNL     1       6.760   1.907  24.672  0.00  0.00    +0.255 HD
ATOM     11  H   UNL     1       7.225   1.158  23.249  0.00  0.00    +0.255 HD
ATOM     12  N   UNL     1       5.315   0.154  25.471  0.00  0.00    -0.289 N 
ATOM     13  H   UNL     1       4.779   1.014  25.443  0.00  0.00    +0.255 HD
ATOM     14  H   UNL     1       4.692  -0.636  25.595  0.00  0.00    +0.255 HD
ENDBRANCH   6   7
BRANCH   1  15
ATOM     15  N   UNL     1       8.583  -2.129  25.553  0.00  0.00    -0.141 NA
ATOM     16  H   UNL     1       8.499  -1.174  25.193  0.00  0.00    +0.168 HD
BRANCH  15  17
ATOM     17  O   UNL     1       9.434  -2.752  24.517  0.00  0.00    -0.369 OA
BRANCH  17  19
ATOM     18  C   UNL     1      10.082  -0.492  24.429  0.00  0.00    +0.138 C 
ATOM     19  C   UNL     1      10.028  -1.806  23.713  0.00  0.00    +0.323 C 
ATOM     20  O   UNL     1      10.499  -2.030  22.603  0.00  0.00    -0.249 OA
ENDBRANCH  17  19
ENDBRANCH  15  17
ENDBRANCH   1  15
BRANCH   4  21
ATOM     21  C   UNL     1       6.300  -5.421  22.058  0.00  0.00    +0.372 C 
ATOM     22  O   UNL     1       6.560  -6.608  21.980  0.00  0.00    -0.242 OA
BRANCH  21  23
ATOM     23  O   UNL     1       5.787  -4.693  21.038  0.00  0.00    -0.475 OA
ATOM     24  H   UNL     1       5.297  -5.271  20.412  0.00  0.00    +0.296 HD
ENDBRANCH  21  23
ENDBRANCH   4  21
BRANCH   2  25
ATOM     25  C   UNL     1       7.000  -5.009  26.802  0.00  0.00    +0.187 C 
BRANCH  25  26
ATOM     26  O   UNL     1       7.979  -5.837  27.429  0.00  0.00    -0.385 OA
ATOM     27  H   UNL     1       7.908  -6.755  27.106  0.00  0.00    +0.210 HD
ENDBRANCH  25  26
BRANCH  25  28
ATOM     28  C   UNL     1       5.684  -5.805  26.643  0.00  0.00    +0.172 C 
BRANCH  28  29
ATOM     29  O   UNL     1       4.650  -5.036  26.009  0.00  0.00    -0.387 OA
ATOM     30  H   UNL     1       3.959  -5.658  25.715  0.00  0.00    +0.210 HD
ENDBRANCH  28  29
BRANCH  28  31
ATOM     31  C   UNL     1       5.152  -6.287  28.004  0.00  0.00    +0.189 C 
BRANCH  31  32
ATOM     32  O   UNL     1       5.645  -7.597  28.283  0.00  0.00    -0.392 OA
ATOM     33  H   UNL     1       5.346  -8.167  27.549  0.00  0.00    +0.210 HD
ENDBRANCH  31  32
ENDBRANCH  28  31
ENDBRANCH  25  28
ENDBRANCH   2  25
TORSDOF 12
ENDMDL
