MODEL 1
REMARK VINA RESULT:      -6.3      0.000      0.000
REMARK  Name = 
REMARK  11 active torsions:
REMARK  status: ('A' for Active; 'I' for Inactive)
REMARK    1  A    between atoms: C_1  and  C_2
REMARK    2  A    between atoms: N_4  and  C_5
REMARK    3  A    between atoms: C_6  and  C_20
REMARK    4  A    between atoms: C_8  and  C_17
REMARK    5  A    between atoms: N_11  and  C_12
REMARK    6  A    between atoms: C_17  and  O_19
REMARK    7  A    between atoms: C_20  and  C_22
REMARK    8  A    between atoms: C_20  and  O_27
REMARK    9  A    between atoms: C_22  and  C_24
REMARK   10  A    between atoms: C_22  and  O_26
REMARK   11  A    between atoms: C_24  and  O_25
REMARK                            x       y       z     vdW  Elec       q    Type
REMARK                         _______ _______ _______ _____ _____    ______ ____
ROOT
ATOM      1  C   UNL     1       7.785  -3.298  23.833  0.00  0.00    +0.117 A 
ATOM      2  C   UNL     1       7.447  -3.796  25.219  0.00  0.00    +0.170 A 
ATOM      3  N   UNL     1       7.200  -5.062  25.381  0.00  0.00    -0.071 NA
ATOM      4  C   UNL     1       7.432  -2.751  26.267  0.00  0.00    +0.101 A 
ATOM      5  C   UNL     1       7.964  -1.551  25.991  0.00  0.00    +0.215 A 
ATOM      6  O   UNL     1       8.449  -1.192  24.758  0.00  0.00    -0.448 OA
ATOM      7  C   UNL     1       8.235  -2.036  23.676  0.00  0.00    +0.161 A 
ENDROOT
BRANCH   3   8
ATOM      8  C   UNL     1       6.924  -5.742  26.506  0.00  0.00    +0.382 C 
ATOM      9  N   UNL     1       5.727  -6.261  26.588  0.00  0.00    -0.289 N 
ATOM     10  H   UNL     1       5.418  -6.843  27.350  0.00  0.00    +0.255 HD
ATOM     11  H   UNL     1       5.120  -6.122  25.793  0.00  0.00    +0.255 HD
ATOM     12  N   UNL     1       7.758  -5.993  27.481  0.00  0.00    -0.289 N 
ATOM     13  H   UNL     1       8.732  -5.726  27.430  0.00  0.00    +0.255 HD
ATOM     14  H   UNL     1       7.477  -6.505  28.306  0.00  0.00    +0.255 HD
ENDBRANCH   3   8
BRANCH   1  17
ATOM     15  C   UNL     1       6.302  -5.198  21.007  0.00  0.00    +0.109 C 
ATOM     16  C   UNL     1       6.338  -4.260  22.185  0.00  0.00    +0.214 C 
ATOM     17  N   UNL     1       7.596  -4.178  22.778  0.00  0.00    -0.280 N 
ATOM     18  H   UNL     1       8.323  -4.144  22.069  0.00  0.00    +0.155 HD
ATOM     19  O   UNL     1       5.356  -3.643  22.577  0.00  0.00    -0.276 OA
ENDBRANCH   1  17
BRANCH   5  20
ATOM     20  C   UNL     1       8.043  -0.561  27.096  0.00  0.00    +0.373 C 
ATOM     21  O   UNL     1       7.074   0.055  27.503  0.00  0.00    -0.242 OA
BRANCH  20  22
ATOM     22  O   UNL     1       9.283  -0.454  27.609  0.00  0.00    -0.475 OA
ATOM     23  H   UNL     1       9.399   0.270  28.261  0.00  0.00    +0.296 HD
ENDBRANCH  20  22
ENDBRANCH   5  20
BRANCH   7  24
ATOM     24  C   UNL     1       8.486  -1.358  22.341  0.00  0.00    +0.213 C 
BRANCH  24  25
ATOM     25  O   UNL     1       9.661  -1.928  21.754  0.00  0.00    -0.381 OA
ATOM     26  H   UNL     1       9.503  -1.998  20.795  0.00  0.00    +0.210 HD
ENDBRANCH  24  25
BRANCH  24  27
ATOM     27  C   UNL     1       8.675   0.179  22.493  0.00  0.00    +0.176 C 
BRANCH  27  28
ATOM     28  O   UNL     1       7.469   0.827  22.944  0.00  0.00    -0.387 OA
ATOM     29  H   UNL     1       6.737   0.188  22.916  0.00  0.00    +0.210 HD
ENDBRANCH  27  28
BRANCH  27  30
ATOM     30  C   UNL     1       9.087   0.889  21.195  0.00  0.00    +0.190 C 
BRANCH  30  31
ATOM     31  O   UNL     1       9.843   2.056  21.512  0.00  0.00    -0.392 OA
ATOM     32  H   UNL     1       9.194   2.683  21.892  0.00  0.00    +0.210 HD
ENDBRANCH  30  31
ENDBRANCH  27  30
ENDBRANCH  24  27
ENDBRANCH   7  24
TORSDOF 10
ENDMDL
MODEL 2
REMARK VINA RESULT:      -6.3      3.853      5.089
REMARK  Name = 
REMARK  11 active torsions:
REMARK  status: ('A' for Active; 'I' for Inactive)
REMARK    1  A    between atoms: C_1  and  C_2
REMARK    2  A    between atoms: N_4  and  C_5
REMARK    3  A    between atoms: C_6  and  C_20
REMARK    4  A    between atoms: C_8  and  C_17
REMARK    5  A    between atoms: N_11  and  C_12
REMARK    6  A    between atoms: C_17  and  O_19
REMARK    7  A    between atoms: C_20  and  C_22
REMARK    8  A    between atoms: C_20  and  O_27
REMARK    9  A    between atoms: C_22  and  C_24
REMARK   10  A    between atoms: C_22  and  O_26
REMARK   11  A    between atoms: C_24  and  O_25
REMARK                            x       y       z     vdW  Elec       q    Type
REMARK                         _______ _______ _______ _____ _____    ______ ____
ROOT
ATOM      1  C   UNL     1       5.113  -5.490  25.474  0.00  0.00    +0.117 A 
ATOM      2  C   UNL     1       5.961  -5.690  26.709  0.00  0.00    +0.170 A 
ATOM      3  N   UNL     1       5.393  -6.144  27.786  0.00  0.00    -0.071 NA
ATOM      4  C   UNL     1       7.387  -5.331  26.546  0.00  0.00    +0.101 A 
ATOM      5  C   UNL     1       7.867  -5.133  25.309  0.00  0.00    +0.215 A 
ATOM      6  O   UNL     1       7.095  -5.153  24.174  0.00  0.00    -0.448 OA
ATOM      7  C   UNL     1       5.713  -5.212  24.299  0.00  0.00    +0.161 A 
ENDROOT
BRANCH   3   8
ATOM      8  C   UNL     1       5.935  -6.442  28.978  0.00  0.00    +0.382 C 
ATOM      9  N   UNL     1       5.676  -5.614  29.955  0.00  0.00    -0.289 N 
ATOM     10  H   UNL     1       5.972  -5.757  30.907  0.00  0.00    +0.255 HD
ATOM     11  H   UNL     1       5.077  -4.831  29.735  0.00  0.00    +0.255 HD
ATOM     12  N   UNL     1       6.628  -7.514  29.265  0.00  0.00    -0.289 N 
ATOM     13  H   UNL     1       6.765  -8.254  28.590  0.00  0.00    +0.255 HD
ATOM     14  H   UNL     1       7.016  -7.670  30.185  0.00  0.00    +0.255 HD
ENDBRANCH   3   8
BRANCH   1  17
ATOM     15  C   UNL     1       1.645  -6.802  25.684  0.00  0.00    +0.109 C 
ATOM     16  C   UNL     1       3.126  -6.824  25.411  0.00  0.00    +0.214 C 
ATOM     17  N   UNL     1       3.739  -5.592  25.625  0.00  0.00    -0.280 N 
ATOM     18  H   UNL     1       3.376  -5.155  26.467  0.00  0.00    +0.155 HD
ATOM     19  O   UNL     1       3.719  -7.827  25.034  0.00  0.00    -0.276 OA
ENDBRANCH   1  17
BRANCH   5  20
ATOM     20  C   UNL     1       9.326  -4.891  25.166  0.00  0.00    +0.373 C 
ATOM     21  O   UNL     1       9.783  -3.982  24.495  0.00  0.00    -0.242 OA
BRANCH  20  22
ATOM     22  O   UNL     1      10.069  -5.758  25.879  0.00  0.00    -0.475 OA
ATOM     23  H   UNL     1      10.695  -5.343  26.510  0.00  0.00    +0.296 HD
ENDBRANCH  20  22
ENDBRANCH   5  20
BRANCH   7  24
ATOM     24  C   UNL     1       4.990  -4.857  23.012  0.00  0.00    +0.213 C 
BRANCH  24  25
ATOM     25  O   UNL     1       4.173  -5.968  22.627  0.00  0.00    -0.381 OA
ATOM     26  H   UNL     1       4.696  -6.778  22.772  0.00  0.00    +0.210 HD
ENDBRANCH  24  25
BRANCH  24  27
ATOM     27  C   UNL     1       5.980  -4.516  21.860  0.00  0.00    +0.176 C 
BRANCH  27  28
ATOM     28  O   UNL     1       5.496  -3.436  21.037  0.00  0.00    -0.387 OA
ATOM     29  H   UNL     1       4.916  -3.799  20.347  0.00  0.00    +0.210 HD
ENDBRANCH  27  28
BRANCH  27  30
ATOM     30  C   UNL     1       6.262  -5.690  20.912  0.00  0.00    +0.190 C 
BRANCH  30  31
ATOM     31  O   UNL     1       6.594  -6.849  21.675  0.00  0.00    -0.392 OA
ATOM     32  H   UNL     1       6.440  -7.603  21.070  0.00  0.00    +0.210 HD
ENDBRANCH  30  31
ENDBRANCH  27  30
ENDBRANCH  24  27
ENDBRANCH   7  24
TORSDOF 10
ENDMDL
MODEL 3
REMARK VINA RESULT:      -6.2      1.486      4.218
REMARK  Name = 
REMARK  11 active torsions:
REMARK  status: ('A' for Active; 'I' for Inactive)
REMARK    1  A    between atoms: C_1  and  C_2
REMARK    2  A    between atoms: N_4  and  C_5
REMARK    3  A    between atoms: C_6  and  C_20
REMARK    4  A    between atoms: C_8  and  C_17
REMARK    5  A    between atoms: N_11  and  C_12
REMARK    6  A    between atoms: C_17  and  O_19
REMARK    7  A    between atoms: C_20  and  C_22
REMARK    8  A    between atoms: C_20  and  O_27
REMARK    9  A    between atoms: C_22  and  C_24
REMARK   10  A    between atoms: C_22  and  O_26
REMARK   11  A    between atoms: C_24  and  O_25
REMARK                            x       y       z     vdW  Elec       q    Type
REMARK                         _______ _______ _______ _____ _____    ______ ____
ROOT
ATOM      1  C   UNL     1       8.183  -2.869  24.264  0.00  0.00    +0.117 A 
ATOM      2  C   UNL     1       7.520  -4.127  24.773  0.00  0.00    +0.170 A 
ATOM      3  N   UNL     1       7.451  -4.317  26.058  0.00  0.00    -0.071 NA
ATOM      4  C   UNL     1       7.009  -5.030  23.718  0.00  0.00    +0.101 A 
ATOM      5  C   UNL     1       6.919  -4.571  22.462  0.00  0.00    +0.215 A 
ATOM      6  O   UNL     1       7.357  -3.331  22.065  0.00  0.00    -0.448 OA
ATOM      7  C   UNL     1       8.090  -2.557  22.955  0.00  0.00    +0.161 A 
ENDROOT
BRANCH   3   8
ATOM      8  C   UNL     1       6.880  -5.320  26.745  0.00  0.00    +0.382 C 
ATOM      9  N   UNL     1       7.683  -6.054  27.471  0.00  0.00    -0.289 N 
ATOM     10  H   UNL     1       7.371  -6.795  28.077  0.00  0.00    +0.255 HD
ATOM     11  H   UNL     1       8.659  -5.793  27.468  0.00  0.00    +0.255 HD
ATOM     12  N   UNL     1       5.600  -5.579  26.813  0.00  0.00    -0.289 N 
ATOM     13  H   UNL     1       4.913  -4.982  26.373  0.00  0.00    +0.255 HD
ATOM     14  H   UNL     1       5.240  -6.360  27.344  0.00  0.00    +0.255 HD
ENDBRANCH   3   8
BRANCH   1  17
ATOM     15  C   UNL     1       9.046  -0.437  26.935  0.00  0.00    +0.109 C 
ATOM     16  C   UNL     1       8.182  -1.143  25.923  0.00  0.00    +0.214 C 
ATOM     17  N   UNL     1       8.876  -2.099  25.185  0.00  0.00    -0.280 N 
ATOM     18  H   UNL     1       9.503  -2.626  25.786  0.00  0.00    +0.155 HD
ATOM     19  O   UNL     1       6.994  -0.889  25.768  0.00  0.00    -0.276 OA
ENDBRANCH   1  17
BRANCH   5  20
ATOM     20  C   UNL     1       6.293  -5.457  21.446  0.00  0.00    +0.373 C 
ATOM     21  O   UNL     1       5.943  -5.060  20.349  0.00  0.00    -0.242 OA
BRANCH  20  22
ATOM     22  O   UNL     1       6.194  -6.733  21.861  0.00  0.00    -0.475 OA
ATOM     23  H   UNL     1       5.798  -7.350  21.210  0.00  0.00    +0.296 HD
ENDBRANCH  20  22
ENDBRANCH   5  20
BRANCH   7  24
ATOM     24  C   UNL     1       8.811  -1.406  22.278  0.00  0.00    +0.213 C 
BRANCH  24  25
ATOM     25  O   UNL     1      10.169  -1.388  22.733  0.00  0.00    -0.381 OA
ATOM     26  H   UNL     1      10.236  -2.017  23.474  0.00  0.00    +0.210 HD
ENDBRANCH  24  25
BRANCH  24  27
ATOM     27  C   UNL     1       8.142  -0.035  22.587  0.00  0.00    +0.176 C 
BRANCH  27  28
ATOM     28  O   UNL     1       6.712  -0.152  22.720  0.00  0.00    -0.387 OA
ATOM     29  H   UNL     1       6.317  -0.231  21.835  0.00  0.00    +0.210 HD
ENDBRANCH  27  28
BRANCH  27  30
ATOM     30  C   UNL     1       8.391   1.037  21.515  0.00  0.00    +0.190 C 
BRANCH  30  31
ATOM     31  O   UNL     1       9.771   1.397  21.515  0.00  0.00    -0.392 OA
ATOM     32  H   UNL     1       9.951   1.709  22.426  0.00  0.00    +0.210 HD
ENDBRANCH  30  31
ENDBRANCH  27  30
ENDBRANCH  24  27
ENDBRANCH   7  24
TORSDOF 10
ENDMDL
MODEL 4
REMARK VINA RESULT:      -6.2      2.215      4.456
REMARK  Name = 
REMARK  11 active torsions:
REMARK  status: ('A' for Active; 'I' for Inactive)
REMARK    1  A    between atoms: C_1  and  C_2
REMARK    2  A    between atoms: N_4  and  C_5
REMARK    3  A    between atoms: C_6  and  C_20
REMARK    4  A    between atoms: C_8  and  C_17
REMARK    5  A    between atoms: N_11  and  C_12
REMARK    6  A    between atoms: C_17  and  O_19
REMARK    7  A    between atoms: C_20  and  C_22
REMARK    8  A    between atoms: C_20  and  O_27
REMARK    9  A    between atoms: C_22  and  C_24
REMARK   10  A    between atoms: C_22  and  O_26
REMARK   11  A    between atoms: C_24  and  O_25
REMARK                            x       y       z     vdW  Elec       q    Type
REMARK                         _______ _______ _______ _____ _____    ______ ____
ROOT
ATOM      1  C   UNL     1       7.951  -1.736  24.294  0.00  0.00    +0.117 A 
ATOM      2  C   UNL     1       8.070  -3.215  24.578  0.00  0.00    +0.170 A 
ATOM      3  N   UNL     1       8.901  -3.606  25.498  0.00  0.00    -0.071 NA
ATOM      4  C   UNL     1       7.200  -4.078  23.749  0.00  0.00    +0.101 A 
ATOM      5  C   UNL     1       6.214  -3.510  23.038  0.00  0.00    +0.215 A 
ATOM      6  O   UNL     1       6.010  -2.155  22.957  0.00  0.00    -0.448 OA
ATOM      7  C   UNL     1       6.960  -1.295  23.492  0.00  0.00    +0.161 A 
ENDROOT
BRANCH   3   8
ATOM      8  C   UNL     1       9.149  -4.844  25.956  0.00  0.00    +0.382 C 
ATOM      9  N   UNL     1      10.282  -5.381  25.587  0.00  0.00    -0.289 N 
ATOM     10  H   UNL     1      10.611  -6.276  25.911  0.00  0.00    +0.255 HD
ATOM     11  H   UNL     1      10.882  -4.813  25.005  0.00  0.00    +0.255 HD
ATOM     12  N   UNL     1       8.404  -5.522  26.790  0.00  0.00    -0.289 N 
ATOM     13  H   UNL     1       7.575  -5.122  27.209  0.00  0.00    +0.255 HD
ATOM     14  H   UNL     1       8.648  -6.458  27.086  0.00  0.00    +0.255 HD
ENDBRANCH   3   8
BRANCH   1  17
ATOM     15  C   UNL     1      10.973   0.334  24.904  0.00  0.00    +0.109 C 
ATOM     16  C   UNL     1      10.081  -0.648  24.192  0.00  0.00    +0.214 C 
ATOM     17  N   UNL     1       8.893  -0.900  24.873  0.00  0.00    -0.280 N 
ATOM     18  H   UNL     1       8.512  -0.039  25.254  0.00  0.00    +0.155 HD
ATOM     19  O   UNL     1      10.383  -1.171  23.126  0.00  0.00    -0.276 OA
ENDBRANCH   1  17
BRANCH   5  20
ATOM     20  C   UNL     1       5.283  -4.410  22.308  0.00  0.00    +0.373 C 
ATOM     21  O   UNL     1       4.199  -4.741  22.754  0.00  0.00    -0.242 OA
BRANCH  20  22
ATOM     22  O   UNL     1       5.756  -4.778  21.103  0.00  0.00    -0.475 OA
ATOM     23  H   UNL     1       5.275  -4.398  20.338  0.00  0.00    +0.296 HD
ENDBRANCH  20  22
ENDBRANCH   5  20
BRANCH   7  24
ATOM     24  C   UNL     1       6.796   0.136  23.011  0.00  0.00    +0.213 C 
BRANCH  24  25
ATOM     25  O   UNL     1       8.043   0.578  22.464  0.00  0.00    -0.381 OA
ATOM     26  H   UNL     1       8.068   1.549  22.543  0.00  0.00    +0.210 HD
ENDBRANCH  24  25
BRANCH  24  27
ATOM     27  C   UNL     1       6.365   1.092  24.161  0.00  0.00    +0.176 C 
BRANCH  27  28
ATOM     28  O   UNL     1       4.974   1.458  24.062  0.00  0.00    -0.387 OA
ATOM     29  H   UNL     1       4.818   1.879  23.201  0.00  0.00    +0.210 HD
ENDBRANCH  27  28
BRANCH  27  30
ATOM     30  C   UNL     1       7.155   2.408  24.208  0.00  0.00    +0.190 C 
BRANCH  30  31
ATOM     31  O   UNL     1       8.272   2.260  25.084  0.00  0.00    -0.392 OA
ATOM     32  H   UNL     1       8.590   1.345  24.936  0.00  0.00    +0.210 HD
ENDBRANCH  30  31
ENDBRANCH  27  30
ENDBRANCH  24  27
ENDBRANCH   7  24
TORSDOF 10
ENDMDL
MODEL 5
REMARK VINA RESULT:      -6.0      2.787      3.828
REMARK  Name = 
REMARK  11 active torsions:
REMARK  status: ('A' for Active; 'I' for Inactive)
REMARK    1  A    between atoms: C_1  and  C_2
REMARK    2  A    between atoms: N_4  and  C_5
REMARK    3  A    between atoms: C_6  and  C_20
REMARK    4  A    between atoms: C_8  and  C_17
REMARK    5  A    between atoms: N_11  and  C_12
REMARK    6  A    between atoms: C_17  and  O_19
REMARK    7  A    between atoms: C_20  and  C_22
REMARK    8  A    between atoms: C_20  and  O_27
REMARK    9  A    between atoms: C_22  and  C_24
REMARK   10  A    between atoms: C_22  and  O_26
REMARK   11  A    between atoms: C_24  and  O_25
REMARK                            x       y       z     vdW  Elec       q    Type
REMARK                         _______ _______ _______ _____ _____    ______ ____
ROOT
ATOM      1  C   UNL     1       7.233  -1.211  23.531  0.00  0.00    +0.117 A 
ATOM      2  C   UNL     1       6.500  -2.076  24.530  0.00  0.00    +0.170 A 
ATOM      3  N   UNL     1       5.230  -1.869  24.716  0.00  0.00    -0.071 NA
ATOM      4  C   UNL     1       7.338  -3.090  25.206  0.00  0.00    +0.101 A 
ATOM      5  C   UNL     1       8.558  -3.352  24.715  0.00  0.00    +0.215 A 
ATOM      6  O   UNL     1       9.125  -2.672  23.666  0.00  0.00    -0.448 OA
ATOM      7  C   UNL     1       8.494  -1.535  23.178  0.00  0.00    +0.161 A 
ENDROOT
BRANCH   3   8
ATOM      8  C   UNL     1       4.363  -2.525  25.505  0.00  0.00    +0.382 C 
ATOM      9  N   UNL     1       3.705  -3.509  24.948  0.00  0.00    -0.289 N 
ATOM     10  H   UNL     1       3.074  -4.115  25.446  0.00  0.00    +0.255 HD
ATOM     11  H   UNL     1       3.918  -3.702  23.980  0.00  0.00    +0.255 HD
ATOM     12  N   UNL     1       4.175  -2.322  26.783  0.00  0.00    -0.289 N 
ATOM     13  H   UNL     1       4.734  -1.660  27.303  0.00  0.00    +0.255 HD
ATOM     14  H   UNL     1       3.496  -2.849  27.314  0.00  0.00    +0.255 HD
ENDBRANCH   3   8
BRANCH   1  17
ATOM     15  C   UNL     1       5.957   2.237  23.010  0.00  0.00    +0.109 C 
ATOM     16  C   UNL     1       6.677   1.111  23.704  0.00  0.00    +0.214 C 
ATOM     17  N   UNL     1       6.562  -0.105  23.034  0.00  0.00    -0.280 N 
ATOM     18  H   UNL     1       6.659   0.029  22.032  0.00  0.00    +0.155 HD
ATOM     19  O   UNL     1       7.291   1.258  24.753  0.00  0.00    -0.276 OA
ENDBRANCH   1  17
BRANCH   5  20
ATOM     20  C   UNL     1       9.331  -4.457  25.340  0.00  0.00    +0.373 C 
ATOM     21  O   UNL     1      10.316  -4.951  24.820  0.00  0.00    -0.242 OA
BRANCH  20  22
ATOM     22  O   UNL     1       8.845  -4.815  26.543  0.00  0.00    -0.475 OA
ATOM     23  H   UNL     1       7.887  -4.646  26.668  0.00  0.00    +0.296 HD
ENDBRANCH  20  22
ENDBRANCH   5  20
BRANCH   7  24
ATOM     24  C   UNL     1       9.397  -0.693  22.295  0.00  0.00    +0.213 C 
BRANCH  24  25
ATOM     25  O   UNL     1      10.186  -1.569  21.483  0.00  0.00    -0.381 OA
ATOM     26  H   UNL     1       9.879  -2.479  21.652  0.00  0.00    +0.210 HD
ENDBRANCH  24  25
BRANCH  24  27
ATOM     27  C   UNL     1      10.335   0.229  23.127  0.00  0.00    +0.176 C 
BRANCH  27  28
ATOM     28  O   UNL     1      10.113   0.083  24.544  0.00  0.00    -0.387 OA
ATOM     29  H   UNL     1      10.202  -0.855  24.784  0.00  0.00    +0.210 HD
ENDBRANCH  27  28
BRANCH  27  30
ATOM     30  C   UNL     1      10.177   1.724  22.817  0.00  0.00    +0.190 C 
BRANCH  30  31
ATOM     31  O   UNL     1       9.765   1.886  21.460  0.00  0.00    -0.392 OA
ATOM     32  H   UNL     1      10.593   2.055  20.963  0.00  0.00    +0.210 HD
ENDBRANCH  30  31
ENDBRANCH  27  30
ENDBRANCH  24  27
ENDBRANCH   7  24
TORSDOF 10
ENDMDL
MODEL 6
REMARK VINA RESULT:      -6.0      1.616      4.304
REMARK  Name = 
REMARK  11 active torsions:
REMARK  status: ('A' for Active; 'I' for Inactive)
REMARK    1  A    between atoms: C_1  and  C_2
REMARK    2  A    between atoms: N_4  and  C_5
REMARK    3  A    between atoms: C_6  and  C_20
REMARK    4  A    between atoms: C_8  and  C_17
REMARK    5  A    between atoms: N_11  and  C_12
REMARK    6  A    between atoms: C_17  and  O_19
REMARK    7  A    between atoms: C_20  and  C_22
REMARK    8  A    between atoms: C_20  and  O_27
REMARK    9  A    between atoms: C_22  and  C_24
REMARK   10  A    between atoms: C_22  and  O_26
REMARK   11  A    between atoms: C_24  and  O_25
REMARK                            x       y       z     vdW  Elec       q    Type
REMARK                         _______ _______ _______ _____ _____    ______ ____
ROOT
ATOM      1  C   UNL     1       7.641  -2.237  24.791  0.00  0.00    +0.117 A 
ATOM      2  C   UNL     1       7.335  -3.681  25.115  0.00  0.00    +0.170 A 
ATOM      3  N   UNL     1       7.248  -4.032  26.364  0.00  0.00    -0.071 NA
ATOM      4  C   UNL     1       7.166  -4.559  23.937  0.00  0.00    +0.101 A 
ATOM      5  C   UNL     1       7.023  -3.998  22.727  0.00  0.00    +0.215 A 
ATOM      6  O   UNL     1       7.112  -2.648  22.492  0.00  0.00    -0.448 OA
ATOM      7  C   UNL     1       7.541  -1.812  23.515  0.00  0.00    +0.161 A 
ENDROOT
BRANCH   3   8
ATOM      8  C   UNL     1       6.947  -5.227  26.897  0.00  0.00    +0.382 C 
ATOM      9  N   UNL     1       7.960  -5.971  27.257  0.00  0.00    -0.289 N 
ATOM     10  H   UNL     1       7.867  -6.859  27.724  0.00  0.00    +0.255 HD
ATOM     11  H   UNL     1       8.880  -5.577  27.121  0.00  0.00    +0.255 HD
ATOM     12  N   UNL     1       5.747  -5.677  27.156  0.00  0.00    -0.289 N 
ATOM     13  H   UNL     1       4.924  -5.107  27.015  0.00  0.00    +0.255 HD
ATOM     14  H   UNL     1       5.593  -6.595  27.551  0.00  0.00    +0.255 HD
ENDBRANCH   3   8
BRANCH   1  17
ATOM     15  C   UNL     1       7.621   0.142  27.642  0.00  0.00    +0.109 C 
ATOM     16  C   UNL     1       7.070  -0.635  26.476  0.00  0.00    +0.214 C 
ATOM     17  N   UNL     1       8.030  -1.419  25.840  0.00  0.00    -0.280 N 
ATOM     18  H   UNL     1       8.631  -1.870  26.523  0.00  0.00    +0.155 HD
ATOM     19  O   UNL     1       5.898  -0.572  26.127  0.00  0.00    -0.276 OA
ENDBRANCH   1  17
BRANCH   5  20
ATOM     20  C   UNL     1       6.737  -4.897  21.579  0.00  0.00    +0.373 C 
ATOM     21  O   UNL     1       7.302  -5.965  21.418  0.00  0.00    -0.242 OA
BRANCH  20  22
ATOM     22  O   UNL     1       5.773  -4.418  20.772  0.00  0.00    -0.475 OA
ATOM     23  H   UNL     1       5.934  -3.514  20.428  0.00  0.00    +0.296 HD
ENDBRANCH  20  22
ENDBRANCH   5  20
BRANCH   7  24
ATOM     24  C   UNL     1       7.942  -0.434  23.019  0.00  0.00    +0.213 C 
BRANCH  24  25
ATOM     25  O   UNL     1       6.757   0.284  22.660  0.00  0.00    -0.381 OA
ATOM     26  H   UNL     1       6.823   0.500  21.712  0.00  0.00    +0.210 HD
ENDBRANCH  24  25
BRANCH  24  27
ATOM     27  C   UNL     1       8.896  -0.510  21.791  0.00  0.00    +0.176 C 
BRANCH  27  28
ATOM     28  O   UNL     1       9.729  -1.685  21.829  0.00  0.00    -0.387 OA
ATOM     29  H   UNL     1       9.163  -2.473  21.891  0.00  0.00    +0.210 HD
ENDBRANCH  27  28
BRANCH  27  30
ATOM     30  C   UNL     1       9.846   0.690  21.664  0.00  0.00    +0.190 C 
BRANCH  30  31
ATOM     31  O   UNL     1       9.108   1.838  21.248  0.00  0.00    -0.392 OA
ATOM     32  H   UNL     1       8.378   1.484  20.698  0.00  0.00    +0.210 HD
ENDBRANCH  30  31
ENDBRANCH  27  30
ENDBRANCH  24  27
ENDBRANCH   7  24
TORSDOF 10
ENDMDL
MODEL 7
REMARK VINA RESULT:      -5.9      2.722      5.552
REMARK  Name = 
REMARK  11 active torsions:
REMARK  status: ('A' for Active; 'I' for Inactive)
REMARK    1  A    between atoms: C_1  and  C_2
REMARK    2  A    between atoms: N_4  and  C_5
REMARK    3  A    between atoms: C_6  and  C_20
REMARK    4  A    between atoms: C_8  and  C_17
REMARK    5  A    between atoms: N_11  and  C_12
REMARK    6  A    between atoms: C_17  and  O_19
REMARK    7  A    between atoms: C_20  and  C_22
REMARK    8  A    between atoms: C_20  and  O_27
REMARK    9  A    between atoms: C_22  and  C_24
REMARK   10  A    between atoms: C_22  and  O_26
REMARK   11  A    between atoms: C_24  and  O_25
REMARK                            x       y       z     vdW  Elec       q    Type
REMARK                         _______ _______ _______ _____ _____    ______ ____
ROOT
ATOM      1  C   UNL     1       7.073  -3.185  24.356  0.00  0.00    +0.117 A 
ATOM      2  C   UNL     1       7.873  -1.963  23.968  0.00  0.00    +0.170 A 
ATOM      3  N   UNL     1       8.124  -1.760  22.709  0.00  0.00    -0.071 NA
ATOM      4  C   UNL     1       8.294  -1.111  25.102  0.00  0.00    +0.101 A 
ATOM      5  C   UNL     1       7.733  -1.311  26.304  0.00  0.00    +0.215 A 
ATOM      6  O   UNL     1       6.848  -2.324  26.579  0.00  0.00    -0.448 OA
ATOM      7  C   UNL     1       6.634  -3.311  25.625  0.00  0.00    +0.161 A 
ENDROOT
BRANCH   3   8
ATOM      8  C   UNL     1       8.767  -0.738  22.119  0.00  0.00    +0.382 C 
ATOM      9  N   UNL     1       9.862  -1.041  21.472  0.00  0.00    -0.289 N 
ATOM     10  H   UNL     1      10.400  -0.377  20.939  0.00  0.00    +0.255 HD
ATOM     11  H   UNL     1      10.121  -2.017  21.456  0.00  0.00    +0.255 HD
ATOM     12  N   UNL     1       8.361   0.504  22.069  0.00  0.00    -0.289 N 
ATOM     13  H   UNL     1       7.465   0.786  22.444  0.00  0.00    +0.255 HD
ATOM     14  H   UNL     1       8.903   1.226  21.615  0.00  0.00    +0.255 HD
ENDBRANCH   3   8
BRANCH   1  17
ATOM     15  C   UNL     1       7.293  -6.207  22.209  0.00  0.00    +0.109 C 
ATOM     16  C   UNL     1       7.707  -5.222  23.270  0.00  0.00    +0.214 C 
ATOM     17  N   UNL     1       6.845  -4.134  23.372  0.00  0.00    -0.280 N 
ATOM     18  H   UNL     1       5.878  -4.437  23.299  0.00  0.00    +0.155 HD
ATOM     19  O   UNL     1       8.706  -5.370  23.963  0.00  0.00    -0.276 OA
ENDBRANCH   1  17
BRANCH   5  20
ATOM     20  C   UNL     1       8.086  -0.366  27.395  0.00  0.00    +0.373 C 
ATOM     21  O   UNL     1       7.266   0.354  27.937  0.00  0.00    -0.242 OA
BRANCH  20  22
ATOM     22  O   UNL     1       9.388  -0.425  27.733  0.00  0.00    -0.475 OA
ATOM     23  H   UNL     1       9.946   0.285  27.352  0.00  0.00    +0.296 HD
ENDBRANCH  20  22
ENDBRANCH   5  20
BRANCH   7  24
ATOM     24  C   UNL     1       5.939  -4.536  26.192  0.00  0.00    +0.213 C 
BRANCH  24  25
ATOM     25  O   UNL     1       4.646  -4.147  26.668  0.00  0.00    -0.381 OA
ATOM     26  H   UNL     1       4.723  -3.238  27.010  0.00  0.00    +0.210 HD
ENDBRANCH  24  25
BRANCH  24  27
ATOM     27  C   UNL     1       6.748  -5.181  27.354  0.00  0.00    +0.176 C 
BRANCH  27  28
ATOM     28  O   UNL     1       7.918  -5.873  26.875  0.00  0.00    -0.387 OA
ATOM     29  H   UNL     1       8.703  -5.520  27.327  0.00  0.00    +0.210 HD
ENDBRANCH  27  28
BRANCH  27  30
ATOM     30  C   UNL     1       5.950  -6.201  28.180  0.00  0.00    +0.190 C 
BRANCH  30  31
ATOM     31  O   UNL     1       5.230  -7.063  27.301  0.00  0.00    -0.392 OA
ATOM     32  H   UNL     1       5.173  -6.573  26.455  0.00  0.00    +0.210 HD
ENDBRANCH  30  31
ENDBRANCH  27  30
ENDBRANCH  24  27
ENDBRANCH   7  24
TORSDOF 10
ENDMDL
MODEL 8
REMARK VINA RESULT:      -5.6      2.471      4.487
REMARK  Name = 
REMARK  11 active torsions:
REMARK  status: ('A' for Active; 'I' for Inactive)
REMARK    1  A    between atoms: C_1  and  C_2
REMARK    2  A    between atoms: N_4  and  C_5
REMARK    3  A    between atoms: C_6  and  C_20
REMARK    4  A    between atoms: C_8  and  C_17
REMARK    5  A    between atoms: N_11  and  C_12
REMARK    6  A    between atoms: C_17  and  O_19
REMARK    7  A    between atoms: C_20  and  C_22
REMARK    8  A    between atoms: C_20  and  O_27
REMARK    9  A    between atoms: C_22  and  C_24
REMARK   10  A    between atoms: C_22  and  O_26
REMARK   11  A    between atoms: C_24  and  O_25
REMARK                            x       y       z     vdW  Elec       q    Type
REMARK                         _______ _______ _______ _____ _____    ______ ____
ROOT
ATOM      1  C   UNL     1       8.071  -2.093  24.294  0.00  0.00    +0.117 A 
ATOM      2  C   UNL     1       7.472  -3.421  23.896  0.00  0.00    +0.170 A 
ATOM      3  N   UNL     1       7.440  -3.735  22.634  0.00  0.00    -0.071 NA
ATOM      4  C   UNL     1       6.971  -4.239  25.022  0.00  0.00    +0.101 A 
ATOM      5  C   UNL     1       7.315  -3.898  26.273  0.00  0.00    +0.215 A 
ATOM      6  O   UNL     1       8.038  -2.774  26.589  0.00  0.00    -0.448 OA
ATOM      7  C   UNL     1       8.295  -1.834  25.599  0.00  0.00    +0.161 A 
ENDROOT
BRANCH   3   8
ATOM      8  C   UNL     1       7.005  -4.859  22.043  0.00  0.00    +0.382 C 
ATOM      9  N   UNL     1       5.975  -4.734  21.248  0.00  0.00    -0.289 N 
ATOM     10  H   UNL     1       5.593  -5.487  20.701  0.00  0.00    +0.255 HD
ATOM     11  H   UNL     1       5.606  -3.800  21.132  0.00  0.00    +0.255 HD
ATOM     12  N   UNL     1       7.558  -6.041  22.131  0.00  0.00    -0.289 N 
ATOM     13  H   UNL     1       8.424  -6.187  22.631  0.00  0.00    +0.255 HD
ATOM     14  H   UNL     1       7.169  -6.850  21.665  0.00  0.00    +0.255 HD
ENDBRANCH   3   8
BRANCH   1  17
ATOM     15  C   UNL     1       9.697  -0.296  21.480  0.00  0.00    +0.109 C 
ATOM     16  C   UNL     1       9.564  -1.289  22.604  0.00  0.00    +0.214 C 
ATOM     17  N   UNL     1       8.350  -1.191  23.279  0.00  0.00    -0.280 N 
ATOM     18  H   UNL     1       7.588  -1.051  22.622  0.00  0.00    +0.155 HD
ATOM     19  O   UNL     1      10.443  -2.092  22.892  0.00  0.00    -0.276 OA
ENDBRANCH   1  17
BRANCH   5  20
ATOM     20  C   UNL     1       6.898  -4.802  27.375  0.00  0.00    +0.373 C 
ATOM     21  O   UNL     1       7.523  -5.802  27.682  0.00  0.00    -0.242 OA
BRANCH  20  22
ATOM     22  O   UNL     1       5.788  -4.374  28.005  0.00  0.00    -0.475 OA
ATOM     23  H   UNL     1       5.371  -5.034  28.599  0.00  0.00    +0.296 HD
ENDBRANCH  20  22
ENDBRANCH   5  20
BRANCH   7  24
ATOM     24  C   UNL     1       8.763  -0.503  26.158  0.00  0.00    +0.213 C 
BRANCH  24  25
ATOM     25  O   UNL     1       9.278  -0.719  27.476  0.00  0.00    -0.381 OA
ATOM     26  H   UNL     1       9.602  -1.637  27.517  0.00  0.00    +0.210 HD
ENDBRANCH  24  25
BRANCH  24  27
ATOM     27  C   UNL     1       7.614   0.545  26.215  0.00  0.00    +0.176 C 
BRANCH  27  28
ATOM     28  O   UNL     1       8.094   1.882  25.974  0.00  0.00    -0.387 OA
ATOM     29  H   UNL     1       7.551   2.294  25.281  0.00  0.00    +0.210 HD
ENDBRANCH  27  28
BRANCH  27  30
ATOM     30  C   UNL     1       6.873   0.587  27.559  0.00  0.00    +0.190 C 
BRANCH  30  31
ATOM     31  O   UNL     1       7.603   1.397  28.479  0.00  0.00    -0.392 OA
ATOM     32  H   UNL     1       8.536   1.115  28.378  0.00  0.00    +0.210 HD
ENDBRANCH  30  31
ENDBRANCH  27  30
ENDBRANCH  24  27
ENDBRANCH   7  24
TORSDOF 10
ENDMDL
MODEL 9
REMARK VINA RESULT:      -5.6      2.553      5.201
REMARK  Name = 
REMARK  11 active torsions:
REMARK  status: ('A' for Active; 'I' for Inactive)
REMARK    1  A    between atoms: C_1  and  C_2
REMARK    2  A    between atoms: N_4  and  C_5
REMARK    3  A    between atoms: C_6  and  C_20
REMARK    4  A    between atoms: C_8  and  C_17
REMARK    5  A    between atoms: N_11  and  C_12
REMARK    6  A    between atoms: C_17  and  O_19
REMARK    7  A    between atoms: C_20  and  C_22
REMARK    8  A    between atoms: C_20  and  O_27
REMARK    9  A    between atoms: C_22  and  C_24
REMARK   10  A    between atoms: C_22  and  O_26
REMARK   11  A    between atoms: C_24  and  O_25
REMARK                            x       y       z     vdW  Elec       q    Type
REMARK                         _______ _______ _______ _____ _____    ______ ____
ROOT
ATOM      1  C   UNL     1       7.115  -3.362  24.971  0.00  0.00    +0.117 A 
ATOM      2  C   UNL     1       7.588  -1.974  25.338  0.00  0.00    +0.170 A 
ATOM      3  N   UNL     1       7.469  -1.584  26.573  0.00  0.00    -0.071 NA
ATOM      4  C   UNL     1       8.147  -1.192  24.214  0.00  0.00    +0.101 A 
ATOM      5  C   UNL     1       8.443  -1.825  23.070  0.00  0.00    +0.215 A 
ATOM      6  O   UNL     1       8.177  -3.152  22.836  0.00  0.00    -0.448 OA
ATOM      7  C   UNL     1       7.407  -3.858  23.752  0.00  0.00    +0.161 A 
ENDROOT
BRANCH   3   8
ATOM      8  C   UNL     1       7.850  -0.431  27.146  0.00  0.00    +0.382 C 
ATOM      9  N   UNL     1       9.078  -0.385  27.592  0.00  0.00    -0.289 N 
ATOM     10  H   UNL     1       9.502   0.439  27.986  0.00  0.00    +0.255 HD
ATOM     11  H   UNL     1       9.640  -1.213  27.452  0.00  0.00    +0.255 HD
ATOM     12  N   UNL     1       7.138   0.663  27.228  0.00  0.00    -0.289 N 
ATOM     13  H   UNL     1       6.226   0.737  26.799  0.00  0.00    +0.255 HD
ATOM     14  H   UNL     1       7.487   1.495  27.684  0.00  0.00    +0.255 HD
ENDBRANCH   3   8
BRANCH   1  17
ATOM     15  C   UNL     1       4.327  -4.783  26.972  0.00  0.00    +0.109 C 
ATOM     16  C   UNL     1       4.996  -3.915  25.939  0.00  0.00    +0.214 C 
ATOM     17  N   UNL     1       6.381  -4.055  25.921  0.00  0.00    -0.280 N 
ATOM     18  H   UNL     1       6.642  -5.032  26.021  0.00  0.00    +0.155 HD
ATOM     19  O   UNL     1       4.376  -3.161  25.199  0.00  0.00    -0.276 OA
ENDBRANCH   1  17
BRANCH   5  20
ATOM     20  C   UNL     1       9.112  -1.040  22.000  0.00  0.00    +0.373 C 
ATOM     21  O   UNL     1       8.797   0.103  21.724  0.00  0.00    -0.242 OA
BRANCH  20  22
ATOM     22  O   UNL     1      10.114  -1.718  21.408  0.00  0.00    -0.475 OA
ATOM     23  H   UNL     1      10.261  -1.497  20.465  0.00  0.00    +0.296 HD
ENDBRANCH  20  22
ENDBRANCH   5  20
BRANCH   7  24
ATOM     24  C   UNL     1       6.890  -5.172  23.196  0.00  0.00    +0.213 C 
BRANCH  24  25
ATOM     25  O   UNL     1       7.928  -5.777  22.417  0.00  0.00    -0.381 OA
ATOM     26  H   UNL     1       7.500  -6.273  21.696  0.00  0.00    +0.210 HD
ENDBRANCH  24  25
BRANCH  24  27
ATOM     27  C   UNL     1       5.624  -4.976  22.313  0.00  0.00    +0.176 C 
BRANCH  27  28
ATOM     28  O   UNL     1       5.220  -3.594  22.252  0.00  0.00    -0.387 OA
ATOM     29  H   UNL     1       5.980  -3.053  21.979  0.00  0.00    +0.210 HD
ENDBRANCH  27  28
BRANCH  27  30
ATOM     30  C   UNL     1       4.398  -5.765  22.794  0.00  0.00    +0.190 C 
BRANCH  30  31
ATOM     31  O   UNL     1       4.828  -6.892  23.556  0.00  0.00    -0.392 OA
ATOM     32  H   UNL     1       4.005  -7.281  23.919  0.00  0.00    +0.210 HD
ENDBRANCH  30  31
ENDBRANCH  27  30
ENDBRANCH  24  27
ENDBRANCH   7  24
TORSDOF 10
ENDMDL
