MODEL 1
REMARK VINA RESULT:      -5.9      0.000      0.000
REMARK  Name = 
REMARK  5 active torsions:
REMARK  status: ('A' for Active; 'I' for Inactive)
REMARK    1  A    between atoms: C1*_2  and  N_11
REMARK    2  A    between atoms: C4*_5  and  C5*_9
REMARK    3  A    between atoms: C3*_7  and  O3*_8
REMARK    4  A    between atoms: C5*_9  and  O5*_10
REMARK    5  A    between atoms: C_13  and  C_19
REMARK                            x       y       z     vdW  Elec       q    Type
REMARK                         _______ _______ _______ _____ _____    ______ ____
ROOT
ATOM      1  N   UNL     1       8.133  -2.350  23.463  0.00  0.00    -0.273 N 
ATOM      2  C   UNL     1       9.495  -2.406  23.718  0.00  0.00    +0.331 A 
ATOM      3  O   UNL     1      10.078  -3.410  24.120  0.00  0.00    -0.246 OA
ATOM      4  N   UNL     1      10.186  -1.245  23.491  0.00  0.00    -0.274 N 
ATOM      5  H   UNL     1      11.182  -1.270  23.653  0.00  0.00    +0.173 HD
ATOM      6  C   UNL     1       9.666  -0.069  23.032  0.00  0.00    +0.261 A 
ATOM      7  O   UNL     1      10.375   0.915  22.836  0.00  0.00    -0.267 OA
ATOM      8  C   UNL     1       8.189  -0.050  22.792  0.00  0.00    +0.056 A 
ATOM      9  C   UNL     1       7.519  -1.181  23.056  0.00  0.00    +0.106 A 
ENDROOT
BRANCH   1  14
ATOM     10  C2* UNL     1       5.871  -3.382  23.699  0.00  0.00    +0.088 C 
ATOM     11  C3* UNL     1       5.356  -4.779  23.402  0.00  0.00    +0.150 C 
ATOM     12  C4* UNL     1       6.495  -5.451  22.619  0.00  0.00    +0.175 C 
ATOM     13  O4* UNL     1       7.563  -4.474  22.528  0.00  0.00    -0.348 OA
ATOM     14  C1* UNL     1       7.374  -3.580  23.642  0.00  0.00    +0.226 C 
BRANCH  11  15
ATOM     15  O3* UNL     1       4.109  -4.738  22.724  0.00  0.00    -0.389 OA
ATOM     16  H3* UNL     1       4.227  -5.039  21.807  0.00  0.00    +0.210 HD
ENDBRANCH  11  15
BRANCH  12  17
ATOM     17  C5* UNL     1       6.148  -5.943  21.218  0.00  0.00    +0.190 C 
BRANCH  17  18
ATOM     18  O5* UNL     1       5.853  -4.835  20.368  0.00  0.00    -0.392 OA
ATOM     19  H5* UNL     1       6.518  -4.151  20.573  0.00  0.00    +0.210 HD
ENDBRANCH  17  18
ENDBRANCH  12  17
ENDBRANCH   1  14
BRANCH   8  20
ATOM     20  C   UNL     1       7.556   1.181  22.347  0.00  0.00    +0.022 C 
ATOM     21  C   UNL     1       6.873   2.026  23.131  0.00  0.00    +0.052 C 
ATOM     22 BR   UNL     1       6.059   3.577  22.520  0.00  0.00    -0.059 Br
ENDBRANCH   8  20
TORSDOF 5
ENDMDL
MODEL 2
REMARK VINA RESULT:      -5.9      3.245      6.326
REMARK  Name = 
REMARK  5 active torsions:
REMARK  status: ('A' for Active; 'I' for Inactive)
REMARK    1  A    between atoms: C1*_2  and  N_11
REMARK    2  A    between atoms: C4*_5  and  C5*_9
REMARK    3  A    between atoms: C3*_7  and  O3*_8
REMARK    4  A    between atoms: C5*_9  and  O5*_10
REMARK    5  A    between atoms: C_13  and  C_19
REMARK                            x       y       z     vdW  Elec       q    Type
REMARK                         _______ _______ _______ _____ _____    ______ ____
ROOT
ATOM      1  N   UNL     1       8.862  -1.181  24.859  0.00  0.00    -0.273 N 
ATOM      2  C   UNL     1       8.676  -1.474  26.202  0.00  0.00    +0.331 A 
ATOM      3  O   UNL     1       8.930  -0.694  27.116  0.00  0.00    -0.246 OA
ATOM      4  N   UNL     1       8.177  -2.721  26.471  0.00  0.00    -0.274 N 
ATOM      5  H   UNL     1       8.018  -2.946  27.442  0.00  0.00    +0.173 HD
ATOM      6  C   UNL     1       7.840  -3.675  25.554  0.00  0.00    +0.261 A 
ATOM      7  O   UNL     1       7.374  -4.759  25.895  0.00  0.00    -0.267 OA
ATOM      8  C   UNL     1       8.077  -3.322  24.119  0.00  0.00    +0.056 A 
ATOM      9  C   UNL     1       8.603  -2.113  23.872  0.00  0.00    +0.106 A 
ENDROOT
BRANCH   1  14
ATOM     10  C2* UNL     1      10.104   0.238  23.223  0.00  0.00    +0.088 C 
ATOM     11  C3* UNL     1      10.043   1.724  22.916  0.00  0.00    +0.150 C 
ATOM     12  C4* UNL     1       8.797   2.221  23.665  0.00  0.00    +0.175 C 
ATOM     13  O4* UNL     1       8.243   1.069  24.350  0.00  0.00    -0.348 OA
ATOM     14  C1* UNL     1       9.341   0.154  24.531  0.00  0.00    +0.226 C 
BRANCH  11  15
ATOM     15  O3* UNL     1      10.034   1.964  21.516  0.00  0.00    -0.389 OA
ATOM     16  H3* UNL     1      10.429   1.205  21.054  0.00  0.00    +0.210 HD
ENDBRANCH  11  15
BRANCH  12  17
ATOM     17  C5* UNL     1       7.711   2.864  22.808  0.00  0.00    +0.190 C 
BRANCH  17  18
ATOM     18  O5* UNL     1       8.188   4.089  22.250  0.00  0.00    -0.392 OA
ATOM     19  H5* UNL     1       7.790   4.803  22.783  0.00  0.00    +0.210 HD
ENDBRANCH  17  18
ENDBRANCH  12  17
ENDBRANCH   1  14
BRANCH   8  20
ATOM     20  C   UNL     1       7.785  -4.305  23.087  0.00  0.00    +0.022 C 
ATOM     21  C   UNL     1       6.618  -4.421  22.440  0.00  0.00    +0.052 C 
ATOM     22 BR   UNL     1       6.276  -5.706  21.146  0.00  0.00    -0.059 Br
ENDBRANCH   8  20
TORSDOF 5
ENDMDL
MODEL 3
REMARK VINA RESULT:      -5.9      3.897      6.113
REMARK  Name = 
REMARK  5 active torsions:
REMARK  status: ('A' for Active; 'I' for Inactive)
REMARK    1  A    between atoms: C1*_2  and  N_11
REMARK    2  A    between atoms: C4*_5  and  C5*_9
REMARK    3  A    between atoms: C3*_7  and  O3*_8
REMARK    4  A    between atoms: C5*_9  and  O5*_10
REMARK    5  A    between atoms: C_13  and  C_19
REMARK                            x       y       z     vdW  Elec       q    Type
REMARK                         _______ _______ _______ _____ _____    ______ ____
ROOT
ATOM      1  N   UNL     1       8.426  -3.561  25.044  0.00  0.00    -0.273 N 
ATOM      2  C   UNL     1       9.209  -4.663  25.353  0.00  0.00    +0.331 A 
ATOM      3  O   UNL     1      10.255  -4.946  24.774  0.00  0.00    -0.246 OA
ATOM      4  N   UNL     1       8.744  -5.451  26.374  0.00  0.00    -0.274 N 
ATOM      5  H   UNL     1       9.310  -6.248  26.626  0.00  0.00    +0.173 HD
ATOM      6  C   UNL     1       7.611  -5.243  27.106  0.00  0.00    +0.261 A 
ATOM      7  O   UNL     1       7.290  -5.996  28.022  0.00  0.00    -0.267 OA
ATOM      8  C   UNL     1       6.787  -4.054  26.722  0.00  0.00    +0.056 A 
ATOM      9  C   UNL     1       7.233  -3.314  25.697  0.00  0.00    +0.106 A 
ENDROOT
BRANCH   1  14
ATOM     10  C2* UNL     1       7.875  -1.705  23.467  0.00  0.00    +0.088 C 
ATOM     11  C3* UNL     1       8.737  -0.645  22.806  0.00  0.00    +0.150 C 
ATOM     12  C4* UNL     1      10.091  -0.744  23.528  0.00  0.00    +0.175 C 
ATOM     13  O4* UNL     1       9.961  -1.814  24.498  0.00  0.00    -0.348 OA
ATOM     14  C1* UNL     1       8.916  -2.671  24.001  0.00  0.00    +0.226 C 
BRANCH  11  15
ATOM     15  O3* UNL     1       8.122   0.634  22.866  0.00  0.00    -0.389 OA
ATOM     16  H3* UNL     1       7.175   0.548  22.664  0.00  0.00    +0.210 HD
ENDBRANCH  11  15
BRANCH  12  17
ATOM     17  C5* UNL     1      10.568   0.519  24.236  0.00  0.00    +0.190 C 
BRANCH  17  18
ATOM     18  O5* UNL     1       9.791   0.745  25.412  0.00  0.00    -0.392 OA
ATOM     19  H5* UNL     1      10.158   1.546  25.831  0.00  0.00    +0.210 HD
ENDBRANCH  17  18
ENDBRANCH  12  17
ENDBRANCH   1  14
BRANCH   8  20
ATOM     20  C   UNL     1       5.542  -3.794  27.428  0.00  0.00    +0.022 C 
ATOM     21  C   UNL     1       4.334  -4.230  27.048  0.00  0.00    +0.052 C 
ATOM     22 BR   UNL     1       2.764  -3.856  27.963  0.00  0.00    -0.059 Br
ENDBRANCH   8  20
TORSDOF 5
ENDMDL
MODEL 4
REMARK VINA RESULT:      -5.8      2.266      2.646
REMARK  Name = 
REMARK  5 active torsions:
REMARK  status: ('A' for Active; 'I' for Inactive)
REMARK    1  A    between atoms: C1*_2  and  N_11
REMARK    2  A    between atoms: C4*_5  and  C5*_9
REMARK    3  A    between atoms: C3*_7  and  O3*_8
REMARK    4  A    between atoms: C5*_9  and  O5*_10
REMARK    5  A    between atoms: C_13  and  C_19
REMARK                            x       y       z     vdW  Elec       q    Type
REMARK                         _______ _______ _______ _____ _____    ______ ____
ROOT
ATOM      1  N   UNL     1       7.560  -3.837  24.830  0.00  0.00    -0.273 N 
ATOM      2  C   UNL     1       7.865  -3.880  26.182  0.00  0.00    +0.331 A 
ATOM      3  O   UNL     1       7.687  -4.864  26.896  0.00  0.00    -0.246 OA
ATOM      4  N   UNL     1       8.396  -2.729  26.704  0.00  0.00    -0.274 N 
ATOM      5  H   UNL     1       8.642  -2.747  27.683  0.00  0.00    +0.173 HD
ATOM      6  C   UNL     1       8.657  -1.576  26.024  0.00  0.00    +0.261 A 
ATOM      7  O   UNL     1       9.159  -0.601  26.579  0.00  0.00    -0.267 OA
ATOM      8  C   UNL     1       8.292  -1.570  24.572  0.00  0.00    +0.056 A 
ATOM      9  C   UNL     1       7.737  -2.688  24.083  0.00  0.00    +0.106 A 
ENDROOT
BRANCH   1  14
ATOM     10  C2* UNL     1       5.532  -5.172  24.247  0.00  0.00    +0.088 C 
ATOM     11  C3* UNL     1       5.280  -6.222  23.180  0.00  0.00    +0.150 C 
ATOM     12  C4* UNL     1       6.511  -6.144  22.264  0.00  0.00    +0.175 C 
ATOM     13  O4* UNL     1       7.379  -5.128  22.828  0.00  0.00    -0.348 OA
ATOM     14  C1* UNL     1       7.044  -5.058  24.228  0.00  0.00    +0.226 C 
BRANCH  11  15
ATOM     15  O3* UNL     1       4.036  -6.010  22.527  0.00  0.00    -0.389 OA
ATOM     16  H3* UNL     1       3.418  -6.720  22.767  0.00  0.00    +0.210 HD
ENDBRANCH  11  15
BRANCH  12  17
ATOM     17  C5* UNL     1       6.240  -5.814  20.801  0.00  0.00    +0.190 C 
BRANCH  17  18
ATOM     18  O5* UNL     1       5.769  -4.472  20.680  0.00  0.00    -0.392 OA
ATOM     19  H5* UNL     1       5.489  -4.200  21.574  0.00  0.00    +0.210 HD
ENDBRANCH  17  18
ENDBRANCH  12  17
ENDBRANCH   1  14
BRANCH   8  20
ATOM     20  C   UNL     1       8.499  -0.360  23.792  0.00  0.00    +0.022 C 
ATOM     21  C   UNL     1       9.573  -0.105  23.032  0.00  0.00    +0.052 C 
ATOM     22 BR   UNL     1       9.811   1.463  22.070  0.00  0.00    -0.059 Br
ENDBRANCH   8  20
TORSDOF 5
ENDMDL
MODEL 5
REMARK VINA RESULT:      -5.8      3.463      6.413
REMARK  Name = 
REMARK  5 active torsions:
REMARK  status: ('A' for Active; 'I' for Inactive)
REMARK    1  A    between atoms: C1*_2  and  N_11
REMARK    2  A    between atoms: C4*_5  and  C5*_9
REMARK    3  A    between atoms: C3*_7  and  O3*_8
REMARK    4  A    between atoms: C5*_9  and  O5*_10
REMARK    5  A    between atoms: C_13  and  C_19
REMARK                            x       y       z     vdW  Elec       q    Type
REMARK                         _______ _______ _______ _____ _____    ______ ____
ROOT
ATOM      1  N   UNL     1       6.022  -4.079  22.977  0.00  0.00    -0.273 N 
ATOM      2  C   UNL     1       5.665  -5.059  22.064  0.00  0.00    +0.331 A 
ATOM      3  O   UNL     1       5.810  -4.951  20.848  0.00  0.00    -0.246 OA
ATOM      4  N   UNL     1       5.122  -6.197  22.600  0.00  0.00    -0.274 N 
ATOM      5  H   UNL     1       4.872  -6.930  21.953  0.00  0.00    +0.173 HD
ATOM      6  C   UNL     1       4.920  -6.451  23.926  0.00  0.00    +0.261 A 
ATOM      7  O   UNL     1       4.447  -7.517  24.312  0.00  0.00    -0.267 OA
ATOM      8  C   UNL     1       5.302  -5.356  24.873  0.00  0.00    +0.056 A 
ATOM      9  C   UNL     1       5.795  -4.233  24.331  0.00  0.00    +0.106 A 
ENDROOT
BRANCH   1  14
ATOM     10  C2* UNL     1       6.541  -1.665  23.354  0.00  0.00    +0.088 C 
ATOM     11  C3* UNL     1       7.641  -0.767  22.817  0.00  0.00    +0.150 C 
ATOM     12  C4* UNL     1       8.629  -1.731  22.141  0.00  0.00    +0.175 C 
ATOM     13  O4* UNL     1       8.071  -3.061  22.288  0.00  0.00    -0.348 OA
ATOM     14  C1* UNL     1       6.651  -2.877  22.448  0.00  0.00    +0.226 C 
BRANCH  11  15
ATOM     15  O3* UNL     1       8.200   0.037  23.846  0.00  0.00    -0.389 OA
ATOM     16  H3* UNL     1       7.956  -0.328  24.713  0.00  0.00    +0.210 HD
ENDBRANCH  11  15
BRANCH  12  17
ATOM     17  C5* UNL     1      10.053  -1.722  22.684  0.00  0.00    +0.190 C 
BRANCH  17  18
ATOM     18  O5* UNL     1      10.100  -2.384  23.949  0.00  0.00    -0.392 OA
ATOM     19  H5* UNL     1       9.180  -2.633  24.159  0.00  0.00    +0.210 HD
ENDBRANCH  17  18
ENDBRANCH  12  17
ENDBRANCH   1  14
BRANCH   8  20
ATOM     20  C   UNL     1       5.073  -5.536  26.298  0.00  0.00    +0.022 C 
ATOM     21  C   UNL     1       6.030  -5.735  27.214  0.00  0.00    +0.052 C 
ATOM     22 BR   UNL     1       5.695  -5.986  29.022  0.00  0.00    -0.059 Br
ENDBRANCH   8  20
TORSDOF 5
ENDMDL
MODEL 6
REMARK VINA RESULT:      -5.5      1.517      1.741
REMARK  Name = 
REMARK  5 active torsions:
REMARK  status: ('A' for Active; 'I' for Inactive)
REMARK    1  A    between atoms: C1*_2  and  N_11
REMARK    2  A    between atoms: C4*_5  and  C5*_9
REMARK    3  A    between atoms: C3*_7  and  O3*_8
REMARK    4  A    between atoms: C5*_9  and  O5*_10
REMARK    5  A    between atoms: C_13  and  C_19
REMARK                            x       y       z     vdW  Elec       q    Type
REMARK                         _______ _______ _______ _____ _____    ______ ____
ROOT
ATOM      1  N   UNL     1       8.502  -1.563  22.901  0.00  0.00    -0.273 N 
ATOM      2  C   UNL     1       9.742  -1.158  22.430  0.00  0.00    +0.331 A 
ATOM      3  O   UNL     1      10.702  -1.911  22.291  0.00  0.00    -0.246 OA
ATOM      4  N   UNL     1       9.849   0.171  22.115  0.00  0.00    -0.274 N 
ATOM      5  H   UNL     1      10.739   0.481  21.753  0.00  0.00    +0.173 HD
ATOM      6  C   UNL     1       8.861   1.108  22.207  0.00  0.00    +0.261 A 
ATOM      7  O   UNL     1       9.050   2.276  21.876  0.00  0.00    -0.267 OA
ATOM      8  C   UNL     1       7.547   0.630  22.741  0.00  0.00    +0.056 A 
ATOM      9  C   UNL     1       7.467  -0.664  23.082  0.00  0.00    +0.106 A 
ENDROOT
BRANCH   1  14
ATOM     10  C2* UNL     1       7.571  -3.262  24.476  0.00  0.00    +0.088 C 
ATOM     11  C3* UNL     1       7.141  -4.704  24.276  0.00  0.00    +0.150 C 
ATOM     12  C4* UNL     1       7.129  -4.894  22.751  0.00  0.00    +0.175 C 
ATOM     13  O4* UNL     1       7.553  -3.632  22.176  0.00  0.00    -0.348 OA
ATOM     14  C1* UNL     1       8.333  -2.978  23.196  0.00  0.00    +0.226 C 
BRANCH  11  15
ATOM     15  O3* UNL     1       5.904  -4.970  24.920  0.00  0.00    -0.389 OA
ATOM     16  H3* UNL     1       5.235  -5.208  24.255  0.00  0.00    +0.210 HD
ENDBRANCH  11  15
BRANCH  12  17
ATOM     17  C5* UNL     1       5.795  -5.301  22.136  0.00  0.00    +0.190 C 
BRANCH  17  18
ATOM     18  O5* UNL     1       4.852  -4.236  22.262  0.00  0.00    -0.392 OA
ATOM     19  H5* UNL     1       4.153  -4.412  21.604  0.00  0.00    +0.210 HD
ENDBRANCH  17  18
ENDBRANCH  12  17
ENDBRANCH   1  14
BRANCH   8  20
ATOM     20  C   UNL     1       6.460   1.582  22.911  0.00  0.00    +0.022 C 
ATOM     21  C   UNL     1       5.759   1.760  24.038  0.00  0.00    +0.052 C 
ATOM     22 BR   UNL     1       4.362   2.969  24.208  0.00  0.00    -0.059 Br
ENDBRANCH   8  20
TORSDOF 5
ENDMDL
MODEL 7
REMARK VINA RESULT:      -5.5      3.468      6.222
REMARK  Name = 
REMARK  5 active torsions:
REMARK  status: ('A' for Active; 'I' for Inactive)
REMARK    1  A    between atoms: C1*_2  and  N_11
REMARK    2  A    between atoms: C4*_5  and  C5*_9
REMARK    3  A    between atoms: C3*_7  and  O3*_8
REMARK    4  A    between atoms: C5*_9  and  O5*_10
REMARK    5  A    between atoms: C_13  and  C_19
REMARK                            x       y       z     vdW  Elec       q    Type
REMARK                         _______ _______ _______ _____ _____    ______ ____
ROOT
ATOM      1  N   UNL     1       9.376  -1.205  24.347  0.00  0.00    -0.273 N 
ATOM      2  C   UNL     1       9.813  -2.465  23.967  0.00  0.00    +0.331 A 
ATOM      3  O   UNL     1      10.704  -2.664  23.145  0.00  0.00    -0.246 OA
ATOM      4  N   UNL     1       9.180  -3.517  24.576  0.00  0.00    -0.274 N 
ATOM      5  H   UNL     1       9.496  -4.442  24.327  0.00  0.00    +0.173 HD
ATOM      6  C   UNL     1       8.190  -3.436  25.512  0.00  0.00    +0.261 A 
ATOM      7  O   UNL     1       7.701  -4.442  26.020  0.00  0.00    -0.267 OA
ATOM      8  C   UNL     1       7.738  -2.055  25.874  0.00  0.00    +0.056 A 
ATOM      9  C   UNL     1       8.338  -1.036  25.243  0.00  0.00    +0.106 A 
ENDROOT
BRANCH   1  14
ATOM     10  C2* UNL     1       9.561   0.326  22.383  0.00  0.00    +0.088 C 
ATOM     11  C3* UNL     1      10.070   1.750  22.249  0.00  0.00    +0.150 C 
ATOM     12  C4* UNL     1      10.234   2.238  23.697  0.00  0.00    +0.175 C 
ATOM     13  O4* UNL     1       9.856   1.127  24.550  0.00  0.00    -0.348 OA
ATOM     14  C1* UNL     1      10.061  -0.061  23.761  0.00  0.00    +0.226 C 
BRANCH  11  15
ATOM     15  O3* UNL     1       9.202   2.538  21.448  0.00  0.00    -0.389 OA
ATOM     16  H3* UNL     1       9.718   3.214  20.977  0.00  0.00    +0.210 HD
ENDBRANCH  11  15
BRANCH  12  17
ATOM     17  C5* UNL     1       9.419   3.467  24.088  0.00  0.00    +0.190 C 
BRANCH  17  18
ATOM     18  O5* UNL     1       9.800   4.583  23.282  0.00  0.00    -0.392 OA
ATOM     19  H5* UNL     1      10.422   5.107  23.821  0.00  0.00    +0.210 HD
ENDBRANCH  17  18
ENDBRANCH  12  17
ENDBRANCH   1  14
BRANCH   8  20
ATOM     20  C   UNL     1       6.655  -1.891  26.832  0.00  0.00    +0.022 C 
ATOM     21  C   UNL     1       5.562  -1.140  26.640  0.00  0.00    +0.052 C 
ATOM     22 BR   UNL     1       4.213  -0.937  27.898  0.00  0.00    -0.059 Br
ENDBRANCH   8  20
TORSDOF 5
ENDMDL
MODEL 8
REMARK VINA RESULT:      -5.4      3.354      6.106
REMARK  Name = 
REMARK  5 active torsions:
REMARK  status: ('A' for Active; 'I' for Inactive)
REMARK    1  A    between atoms: C1*_2  and  N_11
REMARK    2  A    between atoms: C4*_5  and  C5*_9
REMARK    3  A    between atoms: C3*_7  and  O3*_8
REMARK    4  A    between atoms: C5*_9  and  O5*_10
REMARK    5  A    between atoms: C_13  and  C_19
REMARK                            x       y       z     vdW  Elec       q    Type
REMARK                         _______ _______ _______ _____ _____    ______ ____
ROOT
ATOM      1  N   UNL     1       8.740   1.028  23.156  0.00  0.00    -0.273 N 
ATOM      2  C   UNL     1      10.075   0.943  23.521  0.00  0.00    +0.331 A 
ATOM      3  O   UNL     1      10.748   1.902  23.888  0.00  0.00    -0.246 OA
ATOM      4  N   UNL     1      10.628  -0.309  23.450  0.00  0.00    -0.274 N 
ATOM      5  H   UNL     1      11.594  -0.394  23.729  0.00  0.00    +0.173 HD
ATOM      6  C   UNL     1       9.991  -1.456  23.075  0.00  0.00    +0.261 A 
ATOM      7  O   UNL     1      10.570  -2.540  23.067  0.00  0.00    -0.267 OA
ATOM      8  C   UNL     1       8.558  -1.312  22.670  0.00  0.00    +0.056 A 
ATOM      9  C   UNL     1       8.040  -0.076  22.706  0.00  0.00    +0.106 A 
ENDROOT
BRANCH   1  14
ATOM     10  C2* UNL     1       7.335   2.760  22.033  0.00  0.00    +0.088 C 
ATOM     11  C3* UNL     1       6.426   3.844  22.584  0.00  0.00    +0.150 C 
ATOM     12  C4* UNL     1       6.295   3.513  24.079  0.00  0.00    +0.175 C 
ATOM     13  O4* UNL     1       7.108   2.335  24.312  0.00  0.00    -0.348 OA
ATOM     14  C1* UNL     1       8.102   2.332  23.269  0.00  0.00    +0.226 C 
BRANCH  11  15
ATOM     15  O3* UNL     1       5.196   3.899  21.875  0.00  0.00    -0.389 OA
ATOM     16  H3* UNL     1       5.373   4.050  20.931  0.00  0.00    +0.210 HD
ENDBRANCH  11  15
BRANCH  12  17
ATOM     17  C5* UNL     1       4.881   3.252  24.588  0.00  0.00    +0.190 C 
BRANCH  17  18
ATOM     18  O5* UNL     1       4.350   2.075  23.979  0.00  0.00    -0.392 OA
ATOM     19  H5* UNL     1       4.222   2.290  23.036  0.00  0.00    +0.210 HD
ENDBRANCH  17  18
ENDBRANCH  12  17
ENDBRANCH   1  14
BRANCH   8  20
ATOM     20  C   UNL     1       7.827  -2.484  22.214  0.00  0.00    +0.022 C 
ATOM     21  C   UNL     1       7.202  -3.363  23.009  0.00  0.00    +0.052 C 
ATOM     22 BR   UNL     1       6.300  -4.861  22.389  0.00  0.00    -0.059 Br
ENDBRANCH   8  20
TORSDOF 5
ENDMDL
MODEL 9
REMARK VINA RESULT:      -5.4      2.744      3.371
REMARK  Name = 
REMARK  5 active torsions:
REMARK  status: ('A' for Active; 'I' for Inactive)
REMARK    1  A    between atoms: C1*_2  and  N_11
REMARK    2  A    between atoms: C4*_5  and  C5*_9
REMARK    3  A    between atoms: C3*_7  and  O3*_8
REMARK    4  A    between atoms: C5*_9  and  O5*_10
REMARK    5  A    between atoms: C_13  and  C_19
REMARK                            x       y       z     vdW  Elec       q    Type
REMARK                         _______ _______ _______ _____ _____    ______ ____
ROOT
ATOM      1  N   UNL     1       9.191  -1.811  24.097  0.00  0.00    -0.273 N 
ATOM      2  C   UNL     1      10.060  -1.220  23.191  0.00  0.00    +0.331 A 
ATOM      3  O   UNL     1      10.709  -1.844  22.356  0.00  0.00    -0.246 OA
ATOM      4  N   UNL     1      10.164   0.144  23.276  0.00  0.00    -0.274 N 
ATOM      5  H   UNL     1      10.777   0.594  22.614  0.00  0.00    +0.173 HD
ATOM      6  C   UNL     1       9.492   0.955  24.144  0.00  0.00    +0.261 A 
ATOM      7  O   UNL     1       9.635   2.175  24.125  0.00  0.00    -0.267 OA
ATOM      8  C   UNL     1       8.582   0.271  25.116  0.00  0.00    +0.056 A 
ATOM      9  C   UNL     1       8.519  -1.066  25.048  0.00  0.00    +0.106 A 
ENDROOT
BRANCH   1  14
ATOM     10  C2* UNL     1       9.469  -4.018  25.229  0.00  0.00    +0.088 C 
ATOM     11  C3* UNL     1       8.748  -5.344  25.061  0.00  0.00    +0.150 C 
ATOM     12  C4* UNL     1       7.534  -5.013  24.180  0.00  0.00    +0.175 C 
ATOM     13  O4* UNL     1       7.620  -3.597  23.877  0.00  0.00    -0.348 OA
ATOM     14  C1* UNL     1       9.013  -3.253  24.002  0.00  0.00    +0.226 C 
BRANCH  11  15
ATOM     15  O3* UNL     1       8.433  -5.925  26.318  0.00  0.00    -0.389 OA
ATOM     16  H3* UNL     1       9.228  -6.342  26.692  0.00  0.00    +0.210 HD
ENDBRANCH  11  15
BRANCH  12  17
ATOM     17  C5* UNL     1       6.166  -5.313  24.782  0.00  0.00    +0.190 C 
BRANCH  17  18
ATOM     18  O5* UNL     1       5.925  -4.461  25.902  0.00  0.00    -0.392 OA
ATOM     19  H5* UNL     1       5.631  -3.606  25.535  0.00  0.00    +0.210 HD
ENDBRANCH  17  18
ENDBRANCH  12  17
ENDBRANCH   1  14
BRANCH   8  20
ATOM     20  C   UNL     1       7.867   1.067  26.101  0.00  0.00    +0.022 C 
ATOM     21  C   UNL     1       7.223   0.578  27.170  0.00  0.00    +0.052 C 
ATOM     22 BR   UNL     1       6.301   1.627  28.392  0.00  0.00    -0.059 Br
ENDBRANCH   8  20
TORSDOF 5
ENDMDL
