MODEL 1
REMARK VINA RESULT:      -6.0      0.000      0.000
REMARK  Name = 
REMARK  6 active torsions:
REMARK  status: ('A' for Active; 'I' for Inactive)
REMARK    1  A    between atoms: C_3  and  C_19
REMARK    2  A    between atoms: N_5  and  C1*_6
REMARK    3  A    between atoms: C2*_8  and  O2*_18
REMARK    4  A    between atoms: C3*_10  and  O3*_17
REMARK    5  A    between atoms: C4*_12  and  C5*_15
REMARK    6  A    between atoms: C5*_15  and  O5*_16
REMARK                            x       y       z     vdW  Elec       q    Type
REMARK                         _______ _______ _______ _____ _____    ______ ____
ROOT
ATOM      1  C1* UNL     1       9.361  -0.095  23.588  0.00  0.00    +0.270 C 
ATOM      2  O4* UNL     1       8.629   1.003  24.176  0.00  0.00    -0.344 OA
ATOM      3  C4* UNL     1       8.189   1.867  23.106  0.00  0.00    +0.177 C 
ATOM      4  C3* UNL     1       8.781   1.323  21.803  0.00  0.00    +0.178 C 
ATOM      5  C2* UNL     1       8.939  -0.155  22.117  0.00  0.00    +0.196 C 
ENDROOT
BRANCH   1   7
ATOM      6  C   UNL     1       8.643  -1.422  25.617  0.00  0.00    +0.223 A 
ATOM      7  N   UNL     1       9.091  -1.307  24.340  0.00  0.00    -0.220 N 
ATOM      8  N   UNL     1       9.387  -2.515  23.819  0.00  0.00    -0.142 NA
ATOM      9  C   UNL     1       9.108  -3.343  24.844  0.00  0.00    +0.236 A 
ATOM     10  N   UNL     1       8.627  -2.686  25.971  0.00  0.00    -0.211 NA
BRANCH   9  11
ATOM     11  C   UNL     1       9.305  -4.805  24.812  0.00  0.00    +0.281 C 
ATOM     12  N   UNL     1      10.144  -5.277  25.793  0.00  0.00    -0.323 N 
ATOM     13  H   UNL     1      10.350  -6.262  25.826  0.00  0.00    +0.145 HD
ATOM     14  H   UNL     1      10.571  -4.627  26.439  0.00  0.00    +0.145 HD
ATOM     15  O   UNL     1       8.801  -5.574  23.999  0.00  0.00    -0.267 OA
ENDBRANCH   9  11
ENDBRANCH   1   7
BRANCH   4  16
ATOM     16  O3* UNL     1      10.066   1.894  21.519  0.00  0.00    -0.386 OA
ATOM     17  H3* UNL     1      10.189   2.621  22.162  0.00  0.00    +0.210 HD
ENDBRANCH   4  16
BRANCH   5  18
ATOM     18  O2* UNL     1       9.869  -0.757  21.221  0.00  0.00    -0.385 OA
ATOM     19  H2* UNL     1       9.519  -0.671  20.314  0.00  0.00    +0.210 HD
ENDBRANCH   5  18
BRANCH   3  20
ATOM     20  C5* UNL     1       8.578   3.306  23.431  0.00  0.00    +0.190 C 
BRANCH  20  21
ATOM     21  O5* UNL     1       8.287   4.175  22.346  0.00  0.00    -0.392 OA
ATOM     22  H5* UNL     1       7.569   3.747  21.843  0.00  0.00    +0.210 HD
ENDBRANCH  20  21
ENDBRANCH   3  20
TORSDOF 6
ENDMDL
MODEL 2
REMARK VINA RESULT:      -5.9      1.644      2.601
REMARK  Name = 
REMARK  6 active torsions:
REMARK  status: ('A' for Active; 'I' for Inactive)
REMARK    1  A    between atoms: C_3  and  C_19
REMARK    2  A    between atoms: N_5  and  C1*_6
REMARK    3  A    between atoms: C2*_8  and  O2*_18
REMARK    4  A    between atoms: C3*_10  and  O3*_17
REMARK    5  A    between atoms: C4*_12  and  C5*_15
REMARK    6  A    between atoms: C5*_15  and  O5*_16
REMARK                            x       y       z     vdW  Elec       q    Type
REMARK                         _______ _______ _______ _____ _____    ______ ____
ROOT
ATOM      1  C1* UNL     1       8.872  -0.745  24.092  0.00  0.00    +0.270 C 
ATOM      2  O4* UNL     1       9.380  -0.320  22.808  0.00  0.00    -0.344 OA
ATOM      3  C4* UNL     1      10.323   0.749  23.035  0.00  0.00    +0.177 C 
ATOM      4  C3* UNL     1      10.306   1.067  24.533  0.00  0.00    +0.178 C 
ATOM      5  C2* UNL     1       9.883  -0.262  25.136  0.00  0.00    +0.196 C 
ENDROOT
BRANCH   1   7
ATOM      6  C   UNL     1       8.039  -2.931  23.132  0.00  0.00    +0.223 A 
ATOM      7  N   UNL     1       8.668  -2.183  24.075  0.00  0.00    -0.220 N 
ATOM      8  N   UNL     1       9.027  -2.937  25.132  0.00  0.00    -0.142 NA
ATOM      9  C   UNL     1       8.574  -4.155  24.780  0.00  0.00    +0.236 A 
ATOM     10  N   UNL     1       7.968  -4.180  23.529  0.00  0.00    -0.211 NA
BRANCH   9  11
ATOM     11  C   UNL     1       8.675  -5.359  25.627  0.00  0.00    +0.281 C 
ATOM     12  N   UNL     1       9.886  -6.003  25.540  0.00  0.00    -0.323 N 
ATOM     13  H   UNL     1      10.029  -6.848  26.070  0.00  0.00    +0.145 HD
ATOM     14  H   UNL     1      10.599  -5.643  24.919  0.00  0.00    +0.145 HD
ATOM     15  O   UNL     1       7.787  -5.797  26.352  0.00  0.00    -0.267 OA
ENDBRANCH   9  11
ENDBRANCH   1   7
BRANCH   4  16
ATOM     16  O3* UNL     1       9.334   2.073  24.855  0.00  0.00    -0.386 OA
ATOM     17  H3* UNL     1       9.749   2.647  25.529  0.00  0.00    +0.210 HD
ENDBRANCH   4  16
BRANCH   5  18
ATOM     18  O2* UNL     1       9.379  -0.071  26.456  0.00  0.00    -0.385 OA
ATOM     19  H2* UNL     1       8.421  -0.259  26.447  0.00  0.00    +0.210 HD
ENDBRANCH   5  18
BRANCH   3  20
ATOM     20  C5* UNL     1       9.976   1.925  22.129  0.00  0.00    +0.190 C 
BRANCH  20  21
ATOM     21  O5* UNL     1       9.005   1.558  21.159  0.00  0.00    -0.392 OA
ATOM     22  H5* UNL     1       8.166   1.961  21.451  0.00  0.00    +0.210 HD
ENDBRANCH  20  21
ENDBRANCH   3  20
TORSDOF 6
ENDMDL
MODEL 3
REMARK VINA RESULT:      -5.8      3.808      6.678
REMARK  Name = 
REMARK  6 active torsions:
REMARK  status: ('A' for Active; 'I' for Inactive)
REMARK    1  A    between atoms: C_3  and  C_19
REMARK    2  A    between atoms: N_5  and  C1*_6
REMARK    3  A    between atoms: C2*_8  and  O2*_18
REMARK    4  A    between atoms: C3*_10  and  O3*_17
REMARK    5  A    between atoms: C4*_12  and  C5*_15
REMARK    6  A    between atoms: C5*_15  and  O5*_16
REMARK                            x       y       z     vdW  Elec       q    Type
REMARK                         _______ _______ _______ _____ _____    ______ ____
ROOT
ATOM      1  C1* UNL     1       9.548   1.679  23.291  0.00  0.00    +0.270 C 
ATOM      2  O4* UNL     1      10.200   0.752  24.187  0.00  0.00    -0.344 OA
ATOM      3  C4* UNL     1      10.374  -0.497  23.484  0.00  0.00    +0.177 C 
ATOM      4  C3* UNL     1       9.690  -0.357  22.122  0.00  0.00    +0.178 C 
ATOM      5  C2* UNL     1       9.773   1.140  21.876  0.00  0.00    +0.196 C 
ENDROOT
BRANCH   1   7
ATOM      6  C   UNL     1       9.388   4.156  23.773  0.00  0.00    +0.223 A 
ATOM      7  N   UNL     1      10.075   3.013  23.516  0.00  0.00    -0.220 N 
ATOM      8  N   UNL     1      11.393   3.261  23.373  0.00  0.00    -0.142 NA
ATOM      9  C   UNL     1      11.451   4.596  23.543  0.00  0.00    +0.236 A 
ATOM     10  N   UNL     1      10.215   5.175  23.810  0.00  0.00    -0.211 NA
BRANCH   9  11
ATOM     11  C   UNL     1      12.687   5.396  23.440  0.00  0.00    +0.281 C 
ATOM     12  N   UNL     1      12.732   6.466  24.301  0.00  0.00    -0.323 N 
ATOM     13  H   UNL     1      13.533   7.077  24.277  0.00  0.00    +0.145 HD
ATOM     14  H   UNL     1      11.949   6.646  24.915  0.00  0.00    +0.145 HD
ATOM     15  O   UNL     1      13.614   5.178  22.666  0.00  0.00    -0.267 OA
ENDBRANCH   9  11
ENDBRANCH   1   7
BRANCH   4  16
ATOM     16  O3* UNL     1       8.313  -0.761  22.170  0.00  0.00    -0.386 OA
ATOM     17  H3* UNL     1       7.975  -0.685  21.255  0.00  0.00    +0.210 HD
ENDBRANCH   4  16
BRANCH   5  18
ATOM     18  O2* UNL     1       8.818   1.537  20.894  0.00  0.00    -0.385 OA
ATOM     19  H2* UNL     1       9.282   1.636  20.041  0.00  0.00    +0.210 HD
ENDBRANCH   5  18
BRANCH   3  20
ATOM     20  C5* UNL     1       9.845  -1.637  24.350  0.00  0.00    +0.190 C 
BRANCH  20  21
ATOM     21  O5* UNL     1      10.018  -2.892  23.708  0.00  0.00    -0.392 OA
ATOM     22  H5* UNL     1      10.211  -2.693  22.773  0.00  0.00    +0.210 HD
ENDBRANCH  20  21
ENDBRANCH   3  20
TORSDOF 6
ENDMDL
MODEL 4
REMARK VINA RESULT:      -5.8      3.196      3.644
REMARK  Name = 
REMARK  6 active torsions:
REMARK  status: ('A' for Active; 'I' for Inactive)
REMARK    1  A    between atoms: C_3  and  C_19
REMARK    2  A    between atoms: N_5  and  C1*_6
REMARK    3  A    between atoms: C2*_8  and  O2*_18
REMARK    4  A    between atoms: C3*_10  and  O3*_17
REMARK    5  A    between atoms: C4*_12  and  C5*_15
REMARK    6  A    between atoms: C5*_15  and  O5*_16
REMARK                            x       y       z     vdW  Elec       q    Type
REMARK                         _______ _______ _______ _____ _____    ______ ____
ROOT
ATOM      1  C1* UNL     1       8.233  -1.691  23.086  0.00  0.00    +0.270 C 
ATOM      2  O4* UNL     1       8.218  -0.484  22.293  0.00  0.00    -0.344 OA
ATOM      3  C4* UNL     1       9.579  -0.019  22.167  0.00  0.00    +0.177 C 
ATOM      4  C3* UNL     1      10.459  -0.933  23.024  0.00  0.00    +0.178 C 
ATOM      5  C2* UNL     1       9.665  -2.229  23.025  0.00  0.00    +0.196 C 
ENDROOT
BRANCH   1   7
ATOM      6  C   UNL     1       5.874  -2.491  22.650  0.00  0.00    +0.223 A 
ATOM      7  N   UNL     1       7.225  -2.607  22.582  0.00  0.00    -0.220 N 
ATOM      8  N   UNL     1       7.584  -3.795  22.053  0.00  0.00    -0.142 NA
ATOM      9  C   UNL     1       6.392  -4.377  21.825  0.00  0.00    +0.236 A 
ATOM     10  N   UNL     1       5.309  -3.576  22.175  0.00  0.00    -0.211 NA
BRANCH   9  11
ATOM     11  C   UNL     1       6.219  -5.737  21.281  0.00  0.00    +0.281 C 
ATOM     12  N   UNL     1       6.258  -6.728  22.234  0.00  0.00    -0.323 N 
ATOM     13  H   UNL     1       6.171  -7.688  21.942  0.00  0.00    +0.145 HD
ATOM     14  H   UNL     1       6.411  -6.483  23.203  0.00  0.00    +0.145 HD
ATOM     15  O   UNL     1       6.064  -6.017  20.097  0.00  0.00    -0.267 OA
ENDBRANCH   9  11
ENDBRANCH   1   7
BRANCH   4  16
ATOM     16  O3* UNL     1      10.587  -0.447  24.367  0.00  0.00    -0.386 OA
ATOM     17  H3* UNL     1      11.515  -0.153  24.463  0.00  0.00    +0.210 HD
ENDBRANCH   4  16
BRANCH   5  18
ATOM     18  O2* UNL     1      10.070  -3.059  24.110  0.00  0.00    -0.385 OA
ATOM     19  H2* UNL     1       9.268  -3.416  24.537  0.00  0.00    +0.210 HD
ENDBRANCH   5  18
BRANCH   3  20
ATOM     20  C5* UNL     1       9.641   1.459  22.540  0.00  0.00    +0.190 C 
BRANCH  20  21
ATOM     21  O5* UNL     1      10.193   2.233  21.485  0.00  0.00    -0.392 OA
ATOM     22  H5* UNL     1      10.777   1.632  20.986  0.00  0.00    +0.210 HD
ENDBRANCH  20  21
ENDBRANCH   3  20
TORSDOF 6
ENDMDL
MODEL 5
REMARK VINA RESULT:      -5.7      2.288      6.385
REMARK  Name = 
REMARK  6 active torsions:
REMARK  status: ('A' for Active; 'I' for Inactive)
REMARK    1  A    between atoms: C_3  and  C_19
REMARK    2  A    between atoms: N_5  and  C1*_6
REMARK    3  A    between atoms: C2*_8  and  O2*_18
REMARK    4  A    between atoms: C3*_10  and  O3*_17
REMARK    5  A    between atoms: C4*_12  and  C5*_15
REMARK    6  A    between atoms: C5*_15  and  O5*_16
REMARK                            x       y       z     vdW  Elec       q    Type
REMARK                         _______ _______ _______ _____ _____    ______ ____
ROOT
ATOM      1  C1* UNL     1       9.372  -2.309  24.569  0.00  0.00    +0.270 C 
ATOM      2  O4* UNL     1       9.349  -3.608  23.937  0.00  0.00    -0.344 OA
ATOM      3  C4* UNL     1       8.429  -4.443  24.672  0.00  0.00    +0.177 C 
ATOM      4  C3* UNL     1       7.948  -3.642  25.885  0.00  0.00    +0.178 C 
ATOM      5  C2* UNL     1       8.086  -2.210  25.396  0.00  0.00    +0.196 C 
ENDROOT
BRANCH   1   7
ATOM      6  C   UNL     1       9.783  -1.441  22.230  0.00  0.00    +0.223 A 
ATOM      7  N   UNL     1       9.511  -1.283  23.551  0.00  0.00    -0.220 N 
ATOM      8  N   UNL     1       9.479   0.022  23.887  0.00  0.00    -0.142 NA
ATOM      9  C   UNL     1       9.756   0.624  22.715  0.00  0.00    +0.236 A 
ATOM     10  N   UNL     1       9.934  -0.268  21.663  0.00  0.00    -0.211 NA
BRANCH   9  11
ATOM     11  C   UNL     1       9.887   2.083  22.538  0.00  0.00    +0.281 C 
ATOM     12  N   UNL     1       8.960   2.627  21.680  0.00  0.00    -0.323 N 
ATOM     13  H   UNL     1       8.996   3.615  21.487  0.00  0.00    +0.145 HD
ATOM     14  H   UNL     1       8.284   2.025  21.229  0.00  0.00    +0.145 HD
ATOM     15  O   UNL     1      10.734   2.793  23.072  0.00  0.00    -0.267 OA
ENDBRANCH   9  11
ENDBRANCH   1   7
BRANCH   4  16
ATOM     16  O3* UNL     1       8.792  -3.844  27.028  0.00  0.00    -0.386 OA
ATOM     17  H3* UNL     1       9.379  -3.063  27.074  0.00  0.00    +0.210 HD
ENDBRANCH   4  16
BRANCH   5  18
ATOM     18  O2* UNL     1       8.118  -1.309  26.500  0.00  0.00    -0.385 OA
ATOM     19  H2* UNL     1       8.602  -1.739  27.230  0.00  0.00    +0.210 HD
ENDBRANCH   5  18
BRANCH   3  20
ATOM     20  C5* UNL     1       9.112  -5.765  25.009  0.00  0.00    +0.190 C 
BRANCH  20  21
ATOM     21  O5* UNL     1      10.457  -5.559  25.415  0.00  0.00    -0.392 OA
ATOM     22  H5* UNL     1      10.725  -4.701  25.038  0.00  0.00    +0.210 HD
ENDBRANCH  20  21
ENDBRANCH   3  20
TORSDOF 6
ENDMDL
MODEL 6
REMARK VINA RESULT:      -5.7      2.414      6.362
REMARK  Name = 
REMARK  6 active torsions:
REMARK  status: ('A' for Active; 'I' for Inactive)
REMARK    1  A    between atoms: C_3  and  C_19
REMARK    2  A    between atoms: N_5  and  C1*_6
REMARK    3  A    between atoms: C2*_8  and  O2*_18
REMARK    4  A    between atoms: C3*_10  and  O3*_17
REMARK    5  A    between atoms: C4*_12  and  C5*_15
REMARK    6  A    between atoms: C5*_15  and  O5*_16
REMARK                            x       y       z     vdW  Elec       q    Type
REMARK                         _______ _______ _______ _____ _____    ______ ____
ROOT
ATOM      1  C1* UNL     1       7.878  -2.736  23.718  0.00  0.00    +0.270 C 
ATOM      2  O4* UNL     1       8.695  -2.950  24.890  0.00  0.00    -0.344 OA
ATOM      3  C4* UNL     1       8.678  -4.362  25.191  0.00  0.00    +0.177 C 
ATOM      4  C3* UNL     1       7.708  -5.030  24.212  0.00  0.00    +0.178 C 
ATOM      5  C2* UNL     1       7.767  -4.093  23.017  0.00  0.00    +0.196 C 
ENDROOT
BRANCH   1   7
ATOM      6  C   UNL     1       9.653  -1.711  22.237  0.00  0.00    +0.223 A 
ATOM      7  N   UNL     1       8.471  -1.688  22.906  0.00  0.00    -0.220 N 
ATOM      8  N   UNL     1       7.894  -0.472  22.831  0.00  0.00    -0.142 NA
ATOM      9  C   UNL     1       8.789   0.223  22.103  0.00  0.00    +0.236 A 
ATOM     10  N   UNL     1       9.887  -0.533  21.707  0.00  0.00    -0.211 NA
BRANCH   9  11
ATOM     11  C   UNL     1       8.655   1.652  21.762  0.00  0.00    +0.281 C 
ATOM     12  N   UNL     1       9.856   2.303  21.608  0.00  0.00    -0.323 N 
ATOM     13  H   UNL     1       9.853   3.288  21.398  0.00  0.00    +0.145 HD
ATOM     14  H   UNL     1      10.720   1.796  21.746  0.00  0.00    +0.145 HD
ATOM     15  O   UNL     1       7.596   2.258  21.629  0.00  0.00    -0.267 OA
ENDBRANCH   9  11
ENDBRANCH   1   7
BRANCH   4  16
ATOM     16  O3* UNL     1       6.370  -5.069  24.728  0.00  0.00    -0.386 OA
ATOM     17  H3* UNL     1       5.853  -5.615  24.103  0.00  0.00    +0.210 HD
ENDBRANCH   4  16
BRANCH   5  18
ATOM     18  O2* UNL     1       6.624  -4.278  22.185  0.00  0.00    -0.385 OA
ATOM     19  H2* UNL     1       5.837  -3.975  22.676  0.00  0.00    +0.210 HD
ENDBRANCH   5  18
BRANCH   3  20
ATOM     20  C5* UNL     1       8.334  -4.557  26.664  0.00  0.00    +0.190 C 
BRANCH  20  21
ATOM     21  O5* UNL     1       8.142  -5.931  26.970  0.00  0.00    -0.392 OA
ATOM     22  H5* UNL     1       8.462  -6.052  27.883  0.00  0.00    +0.210 HD
ENDBRANCH  20  21
ENDBRANCH   3  20
TORSDOF 6
ENDMDL
MODEL 7
REMARK VINA RESULT:      -5.6      2.701      3.077
REMARK  Name = 
REMARK  6 active torsions:
REMARK  status: ('A' for Active; 'I' for Inactive)
REMARK    1  A    between atoms: C_3  and  C_19
REMARK    2  A    between atoms: N_5  and  C1*_6
REMARK    3  A    between atoms: C2*_8  and  O2*_18
REMARK    4  A    between atoms: C3*_10  and  O3*_17
REMARK    5  A    between atoms: C4*_12  and  C5*_15
REMARK    6  A    between atoms: C5*_15  and  O5*_16
REMARK                            x       y       z     vdW  Elec       q    Type
REMARK                         _______ _______ _______ _____ _____    ______ ____
ROOT
ATOM      1  C1* UNL     1       8.773  -1.761  23.375  0.00  0.00    +0.270 C 
ATOM      2  O4* UNL     1       7.840  -0.856  24.005  0.00  0.00    -0.344 OA
ATOM      3  C4* UNL     1       7.983   0.437  23.377  0.00  0.00    +0.177 C 
ATOM      4  C3* UNL     1       9.146   0.341  22.385  0.00  0.00    +0.178 C 
ATOM      5  C2* UNL     1       9.135  -1.136  22.025  0.00  0.00    +0.196 C 
ENDROOT
BRANCH   1   7
ATOM      6  C   UNL     1       8.374  -4.153  24.092  0.00  0.00    +0.223 A 
ATOM      7  N   UNL     1       8.173  -3.080  23.283  0.00  0.00    -0.220 N 
ATOM      8  N   UNL     1       7.382  -3.400  22.240  0.00  0.00    -0.142 NA
ATOM      9  C   UNL     1       7.136  -4.706  22.460  0.00  0.00    +0.236 A 
ATOM     10  N   UNL     1       7.731  -5.194  23.618  0.00  0.00    -0.211 NA
BRANCH   9  11
ATOM     11  C   UNL     1       6.336  -5.565  21.566  0.00  0.00    +0.281 C 
ATOM     12  N   UNL     1       6.059  -6.807  22.086  0.00  0.00    -0.323 N 
ATOM     13  H   UNL     1       5.537  -7.463  21.528  0.00  0.00    +0.145 HD
ATOM     14  H   UNL     1       6.413  -7.056  23.000  0.00  0.00    +0.145 HD
ATOM     15  O   UNL     1       5.940  -5.256  20.446  0.00  0.00    -0.267 OA
ENDBRANCH   9  11
ENDBRANCH   1   7
BRANCH   4  16
ATOM     16  O3* UNL     1      10.400   0.677  22.996  0.00  0.00    -0.386 OA
ATOM     17  H3* UNL     1      10.388   0.269  23.885  0.00  0.00    +0.210 HD
ENDBRANCH   4  16
BRANCH   5  18
ATOM     18  O2* UNL     1      10.391  -1.521  21.471  0.00  0.00    -0.385 OA
ATOM     19  H2* UNL     1      10.330  -2.456  21.199  0.00  0.00    +0.210 HD
ENDBRANCH   5  18
BRANCH   3  20
ATOM     20  C5* UNL     1       8.151   1.502  24.456  0.00  0.00    +0.190 C 
BRANCH  20  21
ATOM     21  O5* UNL     1       9.057   1.075  25.463  0.00  0.00    -0.392 OA
ATOM     22  H5* UNL     1       8.887   0.124  25.594  0.00  0.00    +0.210 HD
ENDBRANCH  20  21
ENDBRANCH   3  20
TORSDOF 6
ENDMDL
MODEL 8
REMARK VINA RESULT:      -5.6      1.832      2.476
REMARK  Name = 
REMARK  6 active torsions:
REMARK  status: ('A' for Active; 'I' for Inactive)
REMARK    1  A    between atoms: C_3  and  C_19
REMARK    2  A    between atoms: N_5  and  C1*_6
REMARK    3  A    between atoms: C2*_8  and  O2*_18
REMARK    4  A    between atoms: C3*_10  and  O3*_17
REMARK    5  A    between atoms: C4*_12  and  C5*_15
REMARK    6  A    between atoms: C5*_15  and  O5*_16
REMARK                            x       y       z     vdW  Elec       q    Type
REMARK                         _______ _______ _______ _____ _____    ______ ____
ROOT
ATOM      1  C1* UNL     1       7.954  -0.651  23.412  0.00  0.00    +0.270 C 
ATOM      2  O4* UNL     1       8.876   0.445  23.221  0.00  0.00    -0.344 OA
ATOM      3  C4* UNL     1       8.184   1.669  23.549  0.00  0.00    +0.177 C 
ATOM      4  C3* UNL     1       6.727   1.308  23.851  0.00  0.00    +0.178 C 
ATOM      5  C2* UNL     1       6.849  -0.128  24.334  0.00  0.00    +0.196 C 
ENDROOT
BRANCH   1   7
ATOM      6  C   UNL     1       9.819  -2.358  23.458  0.00  0.00    +0.223 A 
ATOM      7  N   UNL     1       8.676  -1.798  23.933  0.00  0.00    -0.220 N 
ATOM      8  N   UNL     1       8.170  -2.520  24.952  0.00  0.00    -0.142 NA
ATOM      9  C   UNL     1       9.052  -3.533  25.050  0.00  0.00    +0.236 A 
ATOM     10  N   UNL     1      10.099  -3.445  24.139  0.00  0.00    -0.211 NA
BRANCH   9  11
ATOM     11  C   UNL     1       8.934  -4.652  26.004  0.00  0.00    +0.281 C 
ATOM     12  N   UNL     1       9.644  -5.772  25.642  0.00  0.00    -0.323 N 
ATOM     13  H   UNL     1       9.597  -6.589  26.229  0.00  0.00    +0.145 HD
ATOM     14  H   UNL     1      10.168  -5.772  24.778  0.00  0.00    +0.145 HD
ATOM     15  O   UNL     1       8.267  -4.642  27.035  0.00  0.00    -0.267 OA
ENDBRANCH   9  11
ENDBRANCH   1   7
BRANCH   4  16
ATOM     16  O3* UNL     1       5.910   1.351  22.672  0.00  0.00    -0.386 OA
ATOM     17  H3* UNL     1       6.438   1.815  21.992  0.00  0.00    +0.210 HD
ENDBRANCH   4  16
BRANCH   5  18
ATOM     18  O2* UNL     1       5.590  -0.791  24.243  0.00  0.00    -0.385 OA
ATOM     19  H2* UNL     1       5.702  -1.581  23.680  0.00  0.00    +0.210 HD
ENDBRANCH   5  18
BRANCH   3  20
ATOM     20  C5* UNL     1       8.371   2.671  22.414  0.00  0.00    +0.190 C 
BRANCH  20  21
ATOM     21  O5* UNL     1       9.101   2.099  21.338  0.00  0.00    -0.392 OA
ATOM     22  H5* UNL     1      10.044   2.201  21.567  0.00  0.00    +0.210 HD
ENDBRANCH  20  21
ENDBRANCH   3  20
TORSDOF 6
ENDMDL
MODEL 9
REMARK VINA RESULT:      -5.5      2.352      3.075
REMARK  Name = 
REMARK  6 active torsions:
REMARK  status: ('A' for Active; 'I' for Inactive)
REMARK    1  A    between atoms: C_3  and  C_19
REMARK    2  A    between atoms: N_5  and  C1*_6
REMARK    3  A    between atoms: C2*_8  and  O2*_18
REMARK    4  A    between atoms: C3*_10  and  O3*_17
REMARK    5  A    between atoms: C4*_12  and  C5*_15
REMARK    6  A    between atoms: C5*_15  and  O5*_16
REMARK                            x       y       z     vdW  Elec       q    Type
REMARK                         _______ _______ _______ _____ _____    ______ ____
ROOT
ATOM      1  C1* UNL     1       8.707  -0.734  23.883  0.00  0.00    +0.270 C 
ATOM      2  O4* UNL     1       9.227  -0.192  22.649  0.00  0.00    -0.344 OA
ATOM      3  C4* UNL     1      10.249   0.771  22.982  0.00  0.00    +0.177 C 
ATOM      4  C3* UNL     1      10.276   0.904  24.507  0.00  0.00    +0.178 C 
ATOM      5  C2* UNL     1       9.766  -0.456  24.954  0.00  0.00    +0.196 C 
ENDROOT
BRANCH   1   7
ATOM      6  C   UNL     1       8.998  -3.216  24.270  0.00  0.00    +0.223 A 
ATOM      7  N   UNL     1       8.399  -2.141  23.696  0.00  0.00    -0.220 N 
ATOM      8  N   UNL     1       7.484  -2.525  22.783  0.00  0.00    -0.142 NA
ATOM      9  C   UNL     1       7.579  -3.867  22.833  0.00  0.00    +0.236 A 
ATOM     10  N   UNL     1       8.505  -4.323  23.765  0.00  0.00    -0.211 NA
BRANCH   9  11
ATOM     11  C   UNL     1       6.805  -4.790  21.980  0.00  0.00    +0.281 C 
ATOM     12  N   UNL     1       7.279  -6.080  21.980  0.00  0.00    -0.323 N 
ATOM     13  H   UNL     1       6.820  -6.767  21.404  0.00  0.00    +0.145 HD
ATOM     14  H   UNL     1       8.099  -6.311  22.525  0.00  0.00    +0.145 HD
ATOM     15  O   UNL     1       5.829  -4.484  21.302  0.00  0.00    -0.267 OA
ENDBRANCH   9  11
ENDBRANCH   1   7
BRANCH   4  16
ATOM     16  O3* UNL     1       9.385   1.929  24.971  0.00  0.00    -0.386 OA
ATOM     17  H3* UNL     1       8.481   1.574  24.859  0.00  0.00    +0.210 HD
ENDBRANCH   4  16
BRANCH   5  18
ATOM     18  O2* UNL     1       9.296  -0.393  26.299  0.00  0.00    -0.385 OA
ATOM     19  H2* UNL     1       9.170  -1.306  26.621  0.00  0.00    +0.210 HD
ENDBRANCH   5  18
BRANCH   3  20
ATOM     20  C5* UNL     1       9.975   2.072  22.233  0.00  0.00    +0.190 C 
BRANCH  20  21
ATOM     21  O5* UNL     1      10.788   3.128  22.723  0.00  0.00    -0.392 OA
ATOM     22  H5* UNL     1      10.917   3.740  21.975  0.00  0.00    +0.210 HD
ENDBRANCH  20  21
ENDBRANCH   3  20
TORSDOF 6
ENDMDL
