MODEL 1
REMARK VINA RESULT:      -5.2      0.000      0.000
REMARK  Name = 
REMARK  3 active torsions:
REMARK  status: ('A' for Active; 'I' for Inactive)
REMARK    1  A    between atoms: C_1  and  C_2
REMARK    2  A    between atoms: C_2  and  C_4
REMARK    3  A    between atoms: C_2  and  N_14
REMARK                            x       y       z     vdW  Elec       q    Type
REMARK                         _______ _______ _______ _____ _____    ______ ____
ROOT
ATOM      1  C   UNL     1       9.269  -0.460  23.037  0.00  0.00    -0.014 C 
ATOM      2  C   UNL     1       9.774   0.279  21.761  0.00  0.00    +0.012 C 
ATOM      3  C   UNL     1       9.677   1.806  21.920  0.00  0.00    -0.010 C 
ATOM      4  C   UNL     1      10.534   2.239  23.119  0.00  0.00    +0.007 C 
ATOM      5  C   UNL     1      10.026   1.559  24.400  0.00  0.00    -0.010 C 
ATOM      6  C   UNL     1       8.561   1.958  24.636  0.00  0.00    +0.007 C 
ATOM      7  C   UNL     1       7.700   1.520  23.442  0.00  0.00    -0.010 C 
ATOM      8  C   UNL     1       8.215   2.200  22.166  0.00  0.00    +0.007 C 
ATOM      9  C   UNL     1       7.797  -0.007  23.282  0.00  0.00    +0.012 C 
ATOM     10  C   UNL     1      10.121   0.030  24.241  0.00  0.00    +0.012 C 
ENDROOT
BRANCH   1  12
ATOM     11  C   UNL     1       9.700  -2.815  24.080  0.00  0.00    +0.024 C 
ATOM     12  C   UNL     1       9.339  -2.013  22.825  0.00  0.00    +0.054 C 
BRANCH  12  13
ATOM     13  N   UNL     1       8.100  -2.594  22.298  0.00  0.00    -0.327 NA
ATOM     14  H   UNL     1       7.307  -2.320  22.875  0.00  0.00    +0.118 HD
ATOM     15  H   UNL     1       7.914  -2.244  21.360  0.00  0.00    +0.118 HD
ENDBRANCH  12  13
ENDBRANCH   1  12
TORSDOF 2
ENDMDL
MODEL 2
REMARK VINA RESULT:      -5.2      0.070      2.111
REMARK  Name = 
REMARK  3 active torsions:
REMARK  status: ('A' for Active; 'I' for Inactive)
REMARK    1  A    between atoms: C_1  and  C_2
REMARK    2  A    between atoms: C_2  and  C_4
REMARK    3  A    between atoms: C_2  and  N_14
REMARK                            x       y       z     vdW  Elec       q    Type
REMARK                         _______ _______ _______ _____ _____    ______ ____
ROOT
ATOM      1  C   UNL     1       9.272  -0.456  22.983  0.00  0.00    -0.014 C 
ATOM      2  C   UNL     1       7.812  -0.018  23.308  0.00  0.00    +0.012 C 
ATOM      3  C   UNL     1       7.718   1.499  23.538  0.00  0.00    -0.010 C 
ATOM      4  C   UNL     1       8.186   2.227  22.267  0.00  0.00    +0.007 C 
ATOM      5  C   UNL     1       9.640   1.847  21.951  0.00  0.00    -0.010 C 
ATOM      6  C   UNL     1      10.535   2.243  23.136  0.00  0.00    +0.007 C 
ATOM      7  C   UNL     1      10.075   1.512  24.406  0.00  0.00    -0.010 C 
ATOM      8  C   UNL     1       8.621   1.893  24.715  0.00  0.00    +0.007 C 
ATOM      9  C   UNL     1      10.168  -0.007  24.177  0.00  0.00    +0.012 C 
ATOM     10  C   UNL     1       9.735   0.327  21.723  0.00  0.00    +0.012 C 
ENDROOT
BRANCH   1  12
ATOM     11  C   UNL     1       9.718  -2.791  24.064  0.00  0.00    +0.024 C 
ATOM     12  C   UNL     1       9.340  -2.013  22.799  0.00  0.00    +0.054 C 
BRANCH  12  13
ATOM     13  N   UNL     1       8.095  -2.604  22.299  0.00  0.00    -0.327 NA
ATOM     14  H   UNL     1       8.073  -2.576  21.281  0.00  0.00    +0.118 HD
ATOM     15  H   UNL     1       8.034  -3.585  22.565  0.00  0.00    +0.118 HD
ENDBRANCH  12  13
ENDBRANCH   1  12
TORSDOF 2
ENDMDL
MODEL 3
REMARK VINA RESULT:      -5.2      0.067      2.111
REMARK  Name = 
REMARK  3 active torsions:
REMARK  status: ('A' for Active; 'I' for Inactive)
REMARK    1  A    between atoms: C_1  and  C_2
REMARK    2  A    between atoms: C_2  and  C_4
REMARK    3  A    between atoms: C_2  and  N_14
REMARK                            x       y       z     vdW  Elec       q    Type
REMARK                         _______ _______ _______ _____ _____    ______ ____
ROOT
ATOM      1  C   UNL     1       9.198  -0.448  22.996  0.00  0.00    -0.014 C 
ATOM      2  C   UNL     1      10.034  -0.006  24.236  0.00  0.00    +0.012 C 
ATOM      3  C   UNL     1       9.985   1.518  24.432  0.00  0.00    -0.010 C 
ATOM      4  C   UNL     1       8.524   1.949  24.636  0.00  0.00    +0.007 C 
ATOM      5  C   UNL     1       7.687   1.566  23.406  0.00  0.00    -0.010 C 
ATOM      6  C   UNL     1       8.267   2.261  22.165  0.00  0.00    +0.007 C 
ATOM      7  C   UNL     1       9.725   1.828  21.953  0.00  0.00    -0.010 C 
ATOM      8  C   UNL     1      10.554   2.211  23.187  0.00  0.00    +0.007 C 
ATOM      9  C   UNL     1       9.776   0.302  21.757  0.00  0.00    +0.012 C 
ATOM     10  C   UNL     1       7.738   0.039  23.207  0.00  0.00    +0.012 C 
ENDROOT
BRANCH   1  12
ATOM     11  C   UNL     1       9.715  -2.779  24.055  0.00  0.00    +0.024 C 
ATOM     12  C   UNL     1       9.306  -2.001  22.799  0.00  0.00    +0.054 C 
BRANCH  12  13
ATOM     13  N   UNL     1       8.073  -2.621  22.305  0.00  0.00    -0.327 NA
ATOM     14  H   UNL     1       8.014  -3.589  22.616  0.00  0.00    +0.118 HD
ATOM     15  H   UNL     1       7.257  -2.143  22.682  0.00  0.00    +0.118 HD
ENDBRANCH  12  13
ENDBRANCH   1  12
TORSDOF 2
ENDMDL
MODEL 4
REMARK VINA RESULT:      -5.2      1.811      3.900
REMARK  Name = 
REMARK  3 active torsions:
REMARK  status: ('A' for Active; 'I' for Inactive)
REMARK    1  A    between atoms: C_1  and  C_2
REMARK    2  A    between atoms: C_2  and  C_4
REMARK    3  A    between atoms: C_2  and  N_14
REMARK                            x       y       z     vdW  Elec       q    Type
REMARK                         _______ _______ _______ _____ _____    ______ ____
ROOT
ATOM      1  C   UNL     1       9.075   0.439  23.144  0.00  0.00    -0.014 C 
ATOM      2  C   UNL     1       9.747  -0.496  22.094  0.00  0.00    +0.012 C 
ATOM      3  C   UNL     1       9.414  -1.973  22.361  0.00  0.00    -0.010 C 
ATOM      4  C   UNL     1       7.891  -2.162  22.294  0.00  0.00    +0.007 C 
ATOM      5  C   UNL     1       7.206  -1.285  23.354  0.00  0.00    -0.010 C 
ATOM      6  C   UNL     1       7.720  -1.682  24.746  0.00  0.00    +0.007 C 
ATOM      7  C   UNL     1       9.242  -1.488  24.819  0.00  0.00    -0.010 C 
ATOM      8  C   UNL     1       9.919  -2.364  23.757  0.00  0.00    +0.007 C 
ATOM      9  C   UNL     1       9.576  -0.009  24.551  0.00  0.00    +0.012 C 
ATOM     10  C   UNL     1       7.541   0.195  23.088  0.00  0.00    +0.012 C 
ENDROOT
BRANCH   1  12
ATOM     11  C   UNL     1      10.606   2.466  23.748  0.00  0.00    +0.024 C 
ATOM     12  C   UNL     1       9.470   1.932  22.869  0.00  0.00    +0.054 C 
BRANCH  12  13
ATOM     13  N   UNL     1       9.857   2.195  21.479  0.00  0.00    -0.327 NA
ATOM     14  H   UNL     1       9.918   3.198  21.312  0.00  0.00    +0.118 HD
ATOM     15  H   UNL     1      10.779   1.810  21.287  0.00  0.00    +0.118 HD
ENDBRANCH  12  13
ENDBRANCH   1  12
TORSDOF 2
ENDMDL
MODEL 5
REMARK VINA RESULT:      -5.2      1.802      3.875
REMARK  Name = 
REMARK  3 active torsions:
REMARK  status: ('A' for Active; 'I' for Inactive)
REMARK    1  A    between atoms: C_1  and  C_2
REMARK    2  A    between atoms: C_2  and  C_4
REMARK    3  A    between atoms: C_2  and  N_14
REMARK                            x       y       z     vdW  Elec       q    Type
REMARK                         _______ _______ _______ _____ _____    ______ ____
ROOT
ATOM      1  C   UNL     1       9.123   0.427  23.184  0.00  0.00    -0.014 C 
ATOM      2  C   UNL     1       7.583   0.199  23.102  0.00  0.00    +0.012 C 
ATOM      3  C   UNL     1       7.218  -1.273  23.356  0.00  0.00    -0.010 C 
ATOM      4  C   UNL     1       7.708  -1.676  24.755  0.00  0.00    +0.007 C 
ATOM      5  C   UNL     1       9.232  -1.505  24.846  0.00  0.00    -0.010 C 
ATOM      6  C   UNL     1       9.904  -2.389  23.785  0.00  0.00    +0.007 C 
ATOM      7  C   UNL     1       9.422  -1.985  22.384  0.00  0.00    -0.010 C 
ATOM      8  C   UNL     1       7.899  -2.155  22.300  0.00  0.00    +0.007 C 
ATOM      9  C   UNL     1       9.786  -0.511  22.130  0.00  0.00    +0.012 C 
ATOM     10  C   UNL     1       9.598  -0.030  24.591  0.00  0.00    +0.012 C 
ENDROOT
BRANCH   1  12
ATOM     11  C   UNL     1      10.612   2.507  23.711  0.00  0.00    +0.024 C 
ATOM     12  C   UNL     1       9.463   1.928  22.878  0.00  0.00    +0.054 C 
BRANCH  12  13
ATOM     13  N   UNL     1       9.794   2.183  21.472  0.00  0.00    -0.327 NA
ATOM     14  H   UNL     1       9.241   1.583  20.863  0.00  0.00    +0.118 HD
ATOM     15  H   UNL     1       9.566   3.143  21.221  0.00  0.00    +0.118 HD
ENDBRANCH  12  13
ENDBRANCH   1  12
TORSDOF 2
ENDMDL
MODEL 6
REMARK VINA RESULT:      -5.1      1.811      3.891
REMARK  Name = 
REMARK  3 active torsions:
REMARK  status: ('A' for Active; 'I' for Inactive)
REMARK    1  A    between atoms: C_1  and  C_2
REMARK    2  A    between atoms: C_2  and  C_4
REMARK    3  A    between atoms: C_2  and  N_14
REMARK                            x       y       z     vdW  Elec       q    Type
REMARK                         _______ _______ _______ _____ _____    ______ ____
ROOT
ATOM      1  C   UNL     1       9.133   0.406  23.124  0.00  0.00    -0.014 C 
ATOM      2  C   UNL     1       9.602  -0.032  24.544  0.00  0.00    +0.012 C 
ATOM      3  C   UNL     1       9.222  -1.493  24.837  0.00  0.00    -0.010 C 
ATOM      4  C   UNL     1       9.886  -2.401  23.790  0.00  0.00    +0.007 C 
ATOM      5  C   UNL     1       9.403  -2.020  22.383  0.00  0.00    -0.010 C 
ATOM      6  C   UNL     1       7.876  -2.175  22.313  0.00  0.00    +0.007 C 
ATOM      7  C   UNL     1       7.208  -1.264  23.353  0.00  0.00    -0.010 C 
ATOM      8  C   UNL     1       7.697  -1.648  24.756  0.00  0.00    +0.007 C 
ATOM      9  C   UNL     1       7.589   0.199  23.062  0.00  0.00    +0.012 C 
ATOM     10  C   UNL     1       9.782  -0.555  22.090  0.00  0.00    +0.012 C 
ENDROOT
BRANCH   1  12
ATOM     11  C   UNL     1      10.624   2.453  23.762  0.00  0.00    +0.024 C 
ATOM     12  C   UNL     1       9.497   1.912  22.876  0.00  0.00    +0.054 C 
BRANCH  12  13
ATOM     13  N   UNL     1       9.873   2.209  21.490  0.00  0.00    -0.327 NA
ATOM     14  H   UNL     1      10.746   2.733  21.465  0.00  0.00    +0.118 HD
ATOM     15  H   UNL     1      10.035   1.348  20.973  0.00  0.00    +0.118 HD
ENDBRANCH  12  13
ENDBRANCH   1  12
TORSDOF 2
ENDMDL
MODEL 7
REMARK VINA RESULT:      -5.0      1.559      3.159
REMARK  Name = 
REMARK  3 active torsions:
REMARK  status: ('A' for Active; 'I' for Inactive)
REMARK    1  A    between atoms: C_1  and  C_2
REMARK    2  A    between atoms: C_2  and  C_4
REMARK    3  A    between atoms: C_2  and  N_14
REMARK                            x       y       z     vdW  Elec       q    Type
REMARK                         _______ _______ _______ _____ _____    ______ ____
ROOT
ATOM      1  C   UNL     1       7.913   0.911  23.856  0.00  0.00    -0.014 C 
ATOM      2  C   UNL     1       7.898   1.079  22.306  0.00  0.00    +0.012 C 
ATOM      3  C   UNL     1       9.312   0.964  21.714  0.00  0.00    -0.010 C 
ATOM      4  C   UNL     1       9.887  -0.418  22.059  0.00  0.00    +0.007 C 
ATOM      5  C   UNL     1       9.957  -0.591  23.584  0.00  0.00    -0.010 C 
ATOM      6  C   UNL     1      10.852   0.508  24.177  0.00  0.00    +0.007 C 
ATOM      7  C   UNL     1      10.276   1.892  23.839  0.00  0.00    -0.010 C 
ATOM      8  C   UNL     1      10.207   2.056  22.315  0.00  0.00    +0.007 C 
ATOM      9  C   UNL     1       8.860   2.008  24.431  0.00  0.00    +0.012 C 
ATOM     10  C   UNL     1       8.541  -0.474  24.179  0.00  0.00    +0.012 C 
ENDROOT
BRANCH   1  12
ATOM     11  C   UNL     1       5.642   2.197  23.782  0.00  0.00    +0.024 C 
ATOM     12  C   UNL     1       6.464   1.078  24.431  0.00  0.00    +0.054 C 
BRANCH  12  13
ATOM     13  N   UNL     1       5.651  -0.140  24.350  0.00  0.00    -0.327 NA
ATOM     14  H   UNL     1       6.203  -0.909  23.974  0.00  0.00    +0.118 HD
ATOM     15  H   UNL     1       5.344  -0.427  25.277  0.00  0.00    +0.118 HD
ENDBRANCH  12  13
ENDBRANCH   1  12
TORSDOF 2
ENDMDL
MODEL 8
REMARK VINA RESULT:      -5.0      1.555      3.252
REMARK  Name = 
REMARK  3 active torsions:
REMARK  status: ('A' for Active; 'I' for Inactive)
REMARK    1  A    between atoms: C_1  and  C_2
REMARK    2  A    between atoms: C_2  and  C_4
REMARK    3  A    between atoms: C_2  and  N_14
REMARK                            x       y       z     vdW  Elec       q    Type
REMARK                         _______ _______ _______ _____ _____    ______ ____
ROOT
ATOM      1  C   UNL     1       7.969   0.977  23.891  0.00  0.00    -0.014 C 
ATOM      2  C   UNL     1       8.648  -0.326  24.413  0.00  0.00    +0.012 C 
ATOM      3  C   UNL     1      10.078  -0.472  23.867  0.00  0.00    -0.010 C 
ATOM      4  C   UNL     1      10.910   0.738  24.318  0.00  0.00    +0.007 C 
ATOM      5  C   UNL     1      10.288   2.034  23.776  0.00  0.00    -0.010 C 
ATOM      6  C   UNL     1      10.248   1.971  22.242  0.00  0.00    +0.007 C 
ATOM      7  C   UNL     1       9.410   0.767  21.787  0.00  0.00    -0.010 C 
ATOM      8  C   UNL     1      10.036  -0.524  22.334  0.00  0.00    +0.007 C 
ATOM      9  C   UNL     1       7.978   0.912  22.333  0.00  0.00    +0.012 C 
ATOM     10  C   UNL     1       8.854   2.180  24.320  0.00  0.00    +0.012 C 
ENDROOT
BRANCH   1  12
ATOM     11  C   UNL     1       5.669   2.211  23.828  0.00  0.00    +0.024 C 
ATOM     12  C   UNL     1       6.499   1.072  24.429  0.00  0.00    +0.054 C 
BRANCH  12  13
ATOM     13  N   UNL     1       5.720  -0.157  24.243  0.00  0.00    -0.327 NA
ATOM     14  H   UNL     1       6.340  -0.945  24.067  0.00  0.00    +0.118 HD
ATOM     15  H   UNL     1       5.199  -0.380  25.088  0.00  0.00    +0.118 HD
ENDBRANCH  12  13
ENDBRANCH   1  12
TORSDOF 2
ENDMDL
MODEL 9
REMARK VINA RESULT:      -5.0      4.624      6.224
REMARK  Name = 
REMARK  3 active torsions:
REMARK  status: ('A' for Active; 'I' for Inactive)
REMARK    1  A    between atoms: C_1  and  C_2
REMARK    2  A    between atoms: C_2  and  C_4
REMARK    3  A    between atoms: C_2  and  N_14
REMARK                            x       y       z     vdW  Elec       q    Type
REMARK                         _______ _______ _______ _____ _____    ______ ____
ROOT
ATOM      1  C   UNL     1       7.594  -4.576  24.151  0.00  0.00    -0.014 C 
ATOM      2  C   UNL     1       7.295  -3.180  23.525  0.00  0.00    +0.012 C 
ATOM      3  C   UNL     1       6.015  -3.208  22.674  0.00  0.00    -0.010 C 
ATOM      4  C   UNL     1       4.832  -3.619  23.563  0.00  0.00    +0.007 C 
ATOM      5  C   UNL     1       5.082  -5.015  24.156  0.00  0.00    -0.010 C 
ATOM      6  C   UNL     1       5.249  -6.027  23.012  0.00  0.00    +0.007 C 
ATOM      7  C   UNL     1       6.436  -5.623  22.124  0.00  0.00    -0.010 C 
ATOM      8  C   UNL     1       6.181  -4.227  21.538  0.00  0.00    +0.007 C 
ATOM      9  C   UNL     1       7.718  -5.593  22.976  0.00  0.00    +0.012 C 
ATOM     10  C   UNL     1       6.365  -4.988  25.007  0.00  0.00    +0.012 C 
ENDROOT
BRANCH   1  12
ATOM     11  C   UNL     1       8.741  -4.351  26.486  0.00  0.00    +0.024 C 
ATOM     12  C   UNL     1       8.928  -4.523  24.975  0.00  0.00    +0.054 C 
BRANCH  12  13
ATOM     13  N   UNL     1       9.785  -5.699  24.790  0.00  0.00    -0.327 NA
ATOM     14  H   UNL     1      10.665  -5.577  25.287  0.00  0.00    +0.118 HD
ATOM     15  H   UNL     1       9.341  -6.528  25.181  0.00  0.00    +0.118 HD
ENDBRANCH  12  13
ENDBRANCH   1  12
TORSDOF 2
ENDMDL
