MODEL 1
REMARK VINA RESULT:      -6.1      0.000      0.000
REMARK  Name = 
REMARK  5 active torsions:
REMARK  status: ('A' for Active; 'I' for Inactive)
REMARK    1  A    between atoms: C3*_2  and  O3*_22
REMARK    2  A    between atoms: C4*_4  and  C5*_20
REMARK    3  A    between atoms: C1*_7  and  N_9
REMARK    4  A    between atoms: C_11  and  C_17
REMARK    5  A    between atoms: C5*_20  and  O5*_21
REMARK                            x       y       z     vdW  Elec       q    Type
REMARK                         _______ _______ _______ _____ _____    ______ ____
ROOT
ATOM      1  N   UNL     1       7.165  -1.108  24.294  0.00  0.00    -0.273 N 
ATOM      2  C   UNL     1       5.988  -0.397  24.477  0.00  0.00    +0.331 A 
ATOM      3  O   UNL     1       5.085  -0.742  25.236  0.00  0.00    -0.246 OA
ATOM      4  N   UNL     1       5.876   0.755  23.752  0.00  0.00    -0.274 N 
ATOM      5  H   UNL     1       5.048   1.308  23.906  0.00  0.00    +0.173 HD
ATOM      6  C   UNL     1       6.796   1.247  22.875  0.00  0.00    +0.261 A 
ATOM      7  O   UNL     1       6.628   2.327  22.313  0.00  0.00    -0.267 OA
ATOM      8  C   UNL     1       8.018   0.414  22.644  0.00  0.00    +0.056 A 
ATOM      9  C   UNL     1       8.132  -0.690  23.395  0.00  0.00    +0.106 A 
ENDROOT
BRANCH   1  11
ATOM     10  C2* UNL     1       6.921  -3.586  24.239  0.00  0.00    +0.088 C 
ATOM     11  C1* UNL     1       7.306  -2.353  25.046  0.00  0.00    +0.226 C 
ATOM     12  O4* UNL     1       8.667  -2.518  25.493  0.00  0.00    -0.348 OA
ATOM     13  C4* UNL     1       9.199  -3.738  24.930  0.00  0.00    +0.175 C 
ATOM     14  C3* UNL     1       8.261  -4.113  23.783  0.00  0.00    +0.150 C 
BRANCH  14  15
ATOM     15  O3* UNL     1       8.231  -5.490  23.460  0.00  0.00    -0.389 OA
ATOM     16  H3* UNL     1       9.133  -5.847  23.562  0.00  0.00    +0.210 HD
ENDBRANCH  14  15
BRANCH  13  17
ATOM     17  C5* UNL     1       9.334  -4.775  26.049  0.00  0.00    +0.190 C 
BRANCH  17  18
ATOM     18  O5* UNL     1      10.047  -5.928  25.606  0.00  0.00    -0.392 OA
ATOM     19  H5* UNL     1      10.638  -5.620  24.891  0.00  0.00    +0.210 HD
ENDBRANCH  17  18
ENDBRANCH  13  17
ENDBRANCH   1  11
BRANCH   8  20
ATOM     20  C   UNL     1       9.040   0.915  21.739  0.00  0.00    +0.022 C 
ATOM     21  C   UNL     1      10.038   1.784  21.951  0.00  0.00    +0.052 C 
ATOM     22 BR   UNL     1      10.505   2.674  23.506  0.00  0.00    -0.059 Br
ENDBRANCH   8  20
TORSDOF 5
ENDMDL
MODEL 2
REMARK VINA RESULT:      -6.0      3.319      6.035
REMARK  Name = 
REMARK  5 active torsions:
REMARK  status: ('A' for Active; 'I' for Inactive)
REMARK    1  A    between atoms: C3*_2  and  O3*_22
REMARK    2  A    between atoms: C4*_4  and  C5*_20
REMARK    3  A    between atoms: C1*_7  and  N_9
REMARK    4  A    between atoms: C_11  and  C_17
REMARK    5  A    between atoms: C5*_20  and  O5*_21
REMARK                            x       y       z     vdW  Elec       q    Type
REMARK                         _______ _______ _______ _____ _____    ______ ____
ROOT
ATOM      1  N   UNL     1       7.780  -3.129  25.095  0.00  0.00    -0.273 N 
ATOM      2  C   UNL     1       8.170  -3.742  26.276  0.00  0.00    +0.331 A 
ATOM      3  O   UNL     1       9.069  -3.326  27.005  0.00  0.00    -0.246 OA
ATOM      4  N   UNL     1       7.480  -4.872  26.611  0.00  0.00    -0.274 N 
ATOM      5  H   UNL     1       7.719  -5.306  27.488  0.00  0.00    +0.173 HD
ATOM      6  C   UNL     1       6.471  -5.441  25.893  0.00  0.00    +0.261 A 
ATOM      7  O   UNL     1       5.870  -6.429  26.309  0.00  0.00    -0.267 OA
ATOM      8  C   UNL     1       6.129  -4.797  24.586  0.00  0.00    +0.056 A 
ATOM      9  C   UNL     1       6.786  -3.666  24.294  0.00  0.00    +0.106 A 
ENDROOT
BRANCH   1  11
ATOM     10  C2* UNL     1       9.723  -2.221  23.831  0.00  0.00    +0.088 C 
ATOM     11  C1* UNL     1       8.512  -1.925  24.705  0.00  0.00    +0.226 C 
ATOM     12  O4* UNL     1       7.647  -1.025  23.982  0.00  0.00    -0.348 OA
ATOM     13  C4* UNL     1       8.193  -0.813  22.661  0.00  0.00    +0.175 C 
ATOM     14  C3* UNL     1       9.204  -1.938  22.441  0.00  0.00    +0.150 C 
BRANCH  14  15
ATOM     15  O3* UNL     1      10.234  -1.645  21.516  0.00  0.00    -0.389 OA
ATOM     16  H3* UNL     1      11.013  -1.336  22.013  0.00  0.00    +0.210 HD
ENDBRANCH  14  15
BRANCH  13  17
ATOM     17  C5* UNL     1       8.751   0.611  22.585  0.00  0.00    +0.190 C 
BRANCH  17  18
ATOM     18  O5* UNL     1       9.087   0.967  21.245  0.00  0.00    -0.392 OA
ATOM     19  H5* UNL     1       9.042   1.942  21.207  0.00  0.00    +0.210 HD
ENDBRANCH  17  18
ENDBRANCH  13  17
ENDBRANCH   1  11
BRANCH   8  20
ATOM     20  C   UNL     1       5.039  -5.353  23.801  0.00  0.00    +0.022 C 
ATOM     21  C   UNL     1       5.007  -5.760  22.525  0.00  0.00    +0.052 C 
ATOM     22 BR   UNL     1       6.367  -5.784  21.269  0.00  0.00    -0.059 Br
ENDBRANCH   8  20
TORSDOF 5
ENDMDL
MODEL 3
REMARK VINA RESULT:      -5.9      3.771      6.551
REMARK  Name = 
REMARK  5 active torsions:
REMARK  status: ('A' for Active; 'I' for Inactive)
REMARK    1  A    between atoms: C3*_2  and  O3*_22
REMARK    2  A    between atoms: C4*_4  and  C5*_20
REMARK    3  A    between atoms: C1*_7  and  N_9
REMARK    4  A    between atoms: C_11  and  C_17
REMARK    5  A    between atoms: C5*_20  and  O5*_21
REMARK                            x       y       z     vdW  Elec       q    Type
REMARK                         _______ _______ _______ _____ _____    ______ ____
ROOT
ATOM      1  N   UNL     1       8.093  -3.960  24.729  0.00  0.00    -0.273 N 
ATOM      2  C   UNL     1       9.094  -4.737  25.293  0.00  0.00    +0.331 A 
ATOM      3  O   UNL     1      10.235  -4.824  24.844  0.00  0.00    -0.246 OA
ATOM      4  N   UNL     1       8.744  -5.423  26.421  0.00  0.00    -0.274 N 
ATOM      5  H   UNL     1       9.471  -5.956  26.871  0.00  0.00    +0.173 HD
ATOM      6  C   UNL     1       7.519  -5.419  27.018  0.00  0.00    +0.261 A 
ATOM      7  O   UNL     1       7.318  -6.026  28.068  0.00  0.00    -0.267 OA
ATOM      8  C   UNL     1       6.442  -4.633  26.338  0.00  0.00    +0.056 A 
ATOM      9  C   UNL     1       6.814  -3.932  25.258  0.00  0.00    +0.106 A 
ENDROOT
BRANCH   1  11
ATOM     10  C2* UNL     1       7.246  -2.503  22.897  0.00  0.00    +0.088 C 
ATOM     11  C1* UNL     1       8.436  -3.226  23.513  0.00  0.00    +0.226 C 
ATOM     12  O4* UNL     1       9.460  -2.249  23.789  0.00  0.00    -0.348 OA
ATOM     13  C4* UNL     1       8.946  -0.934  23.476  0.00  0.00    +0.175 C 
ATOM     14  C3* UNL     1       7.428  -1.087  23.390  0.00  0.00    +0.150 C 
BRANCH  14  15
ATOM     15  O3* UNL     1       6.775  -0.131  22.577  0.00  0.00    -0.389 OA
ATOM     16  H3* UNL     1       6.517   0.622  23.140  0.00  0.00    +0.210 HD
ENDBRANCH  14  15
BRANCH  13  17
ATOM     17  C5* UNL     1       9.641  -0.428  22.208  0.00  0.00    +0.190 C 
BRANCH  17  18
ATOM     18  O5* UNL     1      10.354  -1.475  21.553  0.00  0.00    -0.392 OA
ATOM     19  H5* UNL     1       9.914  -1.600  20.690  0.00  0.00    +0.210 HD
ENDBRANCH  17  18
ENDBRANCH  13  17
ENDBRANCH   1  11
BRANCH   8  20
ATOM     20  C   UNL     1       5.127  -4.576  26.956  0.00  0.00    +0.022 C 
ATOM     21  C   UNL     1       4.070  -5.390  26.827  0.00  0.00    +0.052 C 
ATOM     22 BR   UNL     1       3.894  -6.927  25.810  0.00  0.00    -0.059 Br
ENDBRANCH   8  20
TORSDOF 5
ENDMDL
MODEL 4
REMARK VINA RESULT:      -5.9      2.528      3.338
REMARK  Name = 
REMARK  5 active torsions:
REMARK  status: ('A' for Active; 'I' for Inactive)
REMARK    1  A    between atoms: C3*_2  and  O3*_22
REMARK    2  A    between atoms: C4*_4  and  C5*_20
REMARK    3  A    between atoms: C1*_7  and  N_9
REMARK    4  A    between atoms: C_11  and  C_17
REMARK    5  A    between atoms: C5*_20  and  O5*_21
REMARK                            x       y       z     vdW  Elec       q    Type
REMARK                         _______ _______ _______ _____ _____    ______ ____
ROOT
ATOM      1  N   UNL     1       8.466  -2.453  24.331  0.00  0.00    -0.273 N 
ATOM      2  C   UNL     1       8.665  -1.971  25.616  0.00  0.00    +0.331 A 
ATOM      3  O   UNL     1       8.303  -2.555  26.636  0.00  0.00    -0.246 OA
ATOM      4  N   UNL     1       9.313  -0.772  25.703  0.00  0.00    -0.274 N 
ATOM      5  H   UNL     1       9.507  -0.427  26.630  0.00  0.00    +0.173 HD
ATOM      6  C   UNL     1       9.760  -0.021  24.657  0.00  0.00    +0.261 A 
ATOM      7  O   UNL     1      10.387   1.020  24.840  0.00  0.00    -0.267 OA
ATOM      8  C   UNL     1       9.459  -0.534  23.283  0.00  0.00    +0.056 A 
ATOM      9  C   UNL     1       8.861  -1.732  23.218  0.00  0.00    +0.106 A 
ENDROOT
BRANCH   1  11
ATOM     10  C2* UNL     1       6.250  -3.567  24.112  0.00  0.00    +0.088 C 
ATOM     11  C1* UNL     1       7.762  -3.728  24.208  0.00  0.00    +0.226 C 
ATOM     12  O4* UNL     1       8.212  -4.438  23.037  0.00  0.00    -0.348 OA
ATOM     13  C4* UNL     1       7.084  -4.648  22.157  0.00  0.00    +0.175 C 
ATOM     14  C3* UNL     1       6.000  -3.680  22.628  0.00  0.00    +0.150 C 
BRANCH  14  15
ATOM     15  O3* UNL     1       4.675  -4.068  22.319  0.00  0.00    -0.389 OA
ATOM     16  H3* UNL     1       4.617  -5.039  22.388  0.00  0.00    +0.210 HD
ENDBRANCH  14  15
BRANCH  13  17
ATOM     17  C5* UNL     1       6.712  -6.134  22.185  0.00  0.00    +0.190 C 
BRANCH  17  18
ATOM     18  O5* UNL     1       5.692  -6.432  21.233  0.00  0.00    -0.392 OA
ATOM     19  H5* UNL     1       6.099  -6.302  20.355  0.00  0.00    +0.210 HD
ENDBRANCH  17  18
ENDBRANCH  13  17
ENDBRANCH   1  11
BRANCH   8  20
ATOM     20  C   UNL     1       9.944   0.219  22.138  0.00  0.00    +0.022 C 
ATOM     21  C   UNL     1       9.420   1.283  21.513  0.00  0.00    +0.052 C 
ATOM     22 BR   UNL     1       7.867   2.216  21.894  0.00  0.00    -0.059 Br
ENDBRANCH   8  20
TORSDOF 5
ENDMDL
MODEL 5
REMARK VINA RESULT:      -5.9      2.652      3.374
REMARK  Name = 
REMARK  5 active torsions:
REMARK  status: ('A' for Active; 'I' for Inactive)
REMARK    1  A    between atoms: C3*_2  and  O3*_22
REMARK    2  A    between atoms: C4*_4  and  C5*_20
REMARK    3  A    between atoms: C1*_7  and  N_9
REMARK    4  A    between atoms: C_11  and  C_17
REMARK    5  A    between atoms: C5*_20  and  O5*_21
REMARK                            x       y       z     vdW  Elec       q    Type
REMARK                         _______ _______ _______ _____ _____    ______ ____
ROOT
ATOM      1  N   UNL     1       7.761  -2.831  23.953  0.00  0.00    -0.273 N 
ATOM      2  C   UNL     1       7.722  -2.969  22.573  0.00  0.00    +0.331 A 
ATOM      3  O   UNL     1       6.988  -3.755  21.979  0.00  0.00    -0.246 OA
ATOM      4  N   UNL     1       8.566  -2.153  21.876  0.00  0.00    -0.274 N 
ATOM      5  H   UNL     1       8.520  -2.206  20.870  0.00  0.00    +0.173 HD
ATOM      6  C   UNL     1       9.432  -1.245  22.408  0.00  0.00    +0.261 A 
ATOM      7  O   UNL     1      10.110  -0.513  21.691  0.00  0.00    -0.267 OA
ATOM      8  C   UNL     1       9.502  -1.179  23.902  0.00  0.00    +0.056 A 
ATOM      9  C   UNL     1       8.637  -1.954  24.570  0.00  0.00    +0.106 A 
ENDROOT
BRANCH   1  11
ATOM     10  C2* UNL     1       7.548  -4.999  25.158  0.00  0.00    +0.088 C 
ATOM     11  C1* UNL     1       6.877  -3.702  24.726  0.00  0.00    +0.226 C 
ATOM     12  O4* UNL     1       6.414  -3.022  25.910  0.00  0.00    -0.348 OA
ATOM     13  C4* UNL     1       6.841  -3.766  27.074  0.00  0.00    +0.175 C 
ATOM     14  C3* UNL     1       7.942  -4.707  26.587  0.00  0.00    +0.150 C 
BRANCH  14  15
ATOM     15  O3* UNL     1       8.115  -5.878  27.362  0.00  0.00    -0.389 OA
ATOM     16  H3* UNL     1       8.352  -6.610  26.762  0.00  0.00    +0.210 HD
ENDBRANCH  14  15
BRANCH  13  17
ATOM     17  C5* UNL     1       5.616  -4.438  27.702  0.00  0.00    +0.190 C 
BRANCH  17  18
ATOM     18  O5* UNL     1       5.936  -5.028  28.961  0.00  0.00    -0.392 OA
ATOM     19  H5* UNL     1       5.527  -5.915  28.953  0.00  0.00    +0.210 HD
ENDBRANCH  17  18
ENDBRANCH  13  17
ENDBRANCH   1  11
BRANCH   8  20
ATOM     20  C   UNL     1      10.390  -0.203  24.514  0.00  0.00    +0.022 C 
ATOM     21  C   UNL     1      10.215   1.104  24.747  0.00  0.00    +0.052 C 
ATOM     22 BR   UNL     1       8.745   2.171  24.389  0.00  0.00    -0.059 Br
ENDBRANCH   8  20
TORSDOF 5
ENDMDL
MODEL 6
REMARK VINA RESULT:      -5.8      2.841      3.504
REMARK  Name = 
REMARK  5 active torsions:
REMARK  status: ('A' for Active; 'I' for Inactive)
REMARK    1  A    between atoms: C3*_2  and  O3*_22
REMARK    2  A    between atoms: C4*_4  and  C5*_20
REMARK    3  A    between atoms: C1*_7  and  N_9
REMARK    4  A    between atoms: C_11  and  C_17
REMARK    5  A    between atoms: C5*_20  and  O5*_21
REMARK                            x       y       z     vdW  Elec       q    Type
REMARK                         _______ _______ _______ _____ _____    ______ ____
ROOT
ATOM      1  N   UNL     1       6.437  -3.401  24.264  0.00  0.00    -0.273 N 
ATOM      2  C   UNL     1       5.806  -3.015  23.090  0.00  0.00    +0.331 A 
ATOM      3  O   UNL     1       5.104  -3.759  22.408  0.00  0.00    -0.246 OA
ATOM      4  N   UNL     1       6.002  -1.717  22.715  0.00  0.00    -0.274 N 
ATOM      5  H   UNL     1       5.516  -1.406  21.889  0.00  0.00    +0.173 HD
ATOM      6  C   UNL     1       6.758  -0.794  23.373  0.00  0.00    +0.261 A 
ATOM      7  O   UNL     1       6.825   0.371  22.986  0.00  0.00    -0.267 OA
ATOM      8  C   UNL     1       7.486  -1.266  24.593  0.00  0.00    +0.056 A 
ATOM      9  C   UNL     1       7.248  -2.530  24.971  0.00  0.00    +0.106 A 
ENDROOT
BRANCH   1  11
ATOM     10  C2* UNL     1       7.443  -5.338  25.462  0.00  0.00    +0.088 C 
ATOM     11  C1* UNL     1       6.256  -4.790  24.682  0.00  0.00    +0.226 C 
ATOM     12  O4* UNL     1       5.081  -4.915  25.510  0.00  0.00    -0.348 OA
ATOM     13  C4* UNL     1       5.475  -5.418  26.806  0.00  0.00    +0.175 C 
ATOM     14  C3* UNL     1       6.986  -5.208  26.895  0.00  0.00    +0.150 C 
BRANCH  14  15
ATOM     15  O3* UNL     1       7.662  -6.088  27.773  0.00  0.00    -0.389 OA
ATOM     16  H3* UNL     1       7.005  -6.481  28.377  0.00  0.00    +0.210 HD
ENDBRANCH  14  15
BRANCH  13  17
ATOM     17  C5* UNL     1       4.992  -6.866  26.936  0.00  0.00    +0.190 C 
BRANCH  17  18
ATOM     18  O5* UNL     1       5.333  -7.416  28.207  0.00  0.00    -0.392 OA
ATOM     19  H5* UNL     1       4.979  -6.794  28.872  0.00  0.00    +0.210 HD
ENDBRANCH  17  18
ENDBRANCH  13  17
ENDBRANCH   1  11
BRANCH   8  20
ATOM     20  C   UNL     1       8.280  -0.308  25.344  0.00  0.00    +0.022 C 
ATOM     21  C   UNL     1       9.459   0.259  25.057  0.00  0.00    +0.052 C 
ATOM     22 BR   UNL     1      10.529   0.041  23.561  0.00  0.00    -0.059 Br
ENDBRANCH   8  20
TORSDOF 5
ENDMDL
MODEL 7
REMARK VINA RESULT:      -5.7      3.917      6.493
REMARK  Name = 
REMARK  5 active torsions:
REMARK  status: ('A' for Active; 'I' for Inactive)
REMARK    1  A    between atoms: C3*_2  and  O3*_22
REMARK    2  A    between atoms: C4*_4  and  C5*_20
REMARK    3  A    between atoms: C1*_7  and  N_9
REMARK    4  A    between atoms: C_11  and  C_17
REMARK    5  A    between atoms: C5*_20  and  O5*_21
REMARK                            x       y       z     vdW  Elec       q    Type
REMARK                         _______ _______ _______ _____ _____    ______ ____
ROOT
ATOM      1  N   UNL     1       6.520  -5.041  23.255  0.00  0.00    -0.273 N 
ATOM      2  C   UNL     1       5.714  -5.707  22.343  0.00  0.00    +0.331 A 
ATOM      3  O   UNL     1       5.783  -5.559  21.124  0.00  0.00    -0.246 OA
ATOM      4  N   UNL     1       4.808  -6.575  22.881  0.00  0.00    -0.274 N 
ATOM      5  H   UNL     1       4.244  -7.102  22.233  0.00  0.00    +0.173 HD
ATOM      6  C   UNL     1       4.624  -6.828  24.208  0.00  0.00    +0.261 A 
ATOM      7  O   UNL     1       3.819  -7.674  24.591  0.00  0.00    -0.267 OA
ATOM      8  C   UNL     1       5.457  -6.034  25.165  0.00  0.00    +0.056 A 
ATOM      9  C   UNL     1       6.370  -5.219  24.619  0.00  0.00    +0.106 A 
ENDROOT
BRANCH   1  11
ATOM     10  C2* UNL     1       6.920  -2.694  22.528  0.00  0.00    +0.088 C 
ATOM     11  C1* UNL     1       7.490  -4.094  22.707  0.00  0.00    +0.226 C 
ATOM     12  O4* UNL     1       8.642  -4.002  23.570  0.00  0.00    -0.348 OA
ATOM     13  C4* UNL     1       8.774  -2.637  24.027  0.00  0.00    +0.175 C 
ATOM     14  C3* UNL     1       7.426  -1.972  23.754  0.00  0.00    +0.150 C 
BRANCH  14  15
ATOM     15  O3* UNL     1       7.473  -0.567  23.588  0.00  0.00    -0.389 OA
ATOM     16  H3* UNL     1       6.615  -0.272  23.233  0.00  0.00    +0.210 HD
ENDBRANCH  14  15
BRANCH  13  17
ATOM     17  C5* UNL     1       9.984  -2.004  23.334  0.00  0.00    +0.190 C 
BRANCH  17  18
ATOM     18  O5* UNL     1      10.298  -0.731  23.896  0.00  0.00    -0.392 OA
ATOM     19  H5* UNL     1      10.420  -0.884  24.853  0.00  0.00    +0.210 HD
ENDBRANCH  17  18
ENDBRANCH  13  17
ENDBRANCH   1  11
BRANCH   8  20
ATOM     20  C   UNL     1       5.315  -6.292  26.589  0.00  0.00    +0.022 C 
ATOM     21  C   UNL     1       4.917  -5.486  27.583  0.00  0.00    +0.052 C 
ATOM     22 BR   UNL     1       4.371  -3.719  27.509  0.00  0.00    -0.059 Br
ENDBRANCH   8  20
TORSDOF 5
ENDMDL
MODEL 8
REMARK VINA RESULT:      -5.7      3.071      6.404
REMARK  Name = 
REMARK  5 active torsions:
REMARK  status: ('A' for Active; 'I' for Inactive)
REMARK    1  A    between atoms: C3*_2  and  O3*_22
REMARK    2  A    between atoms: C4*_4  and  C5*_20
REMARK    3  A    between atoms: C1*_7  and  N_9
REMARK    4  A    between atoms: C_11  and  C_17
REMARK    5  A    between atoms: C5*_20  and  O5*_21
REMARK                            x       y       z     vdW  Elec       q    Type
REMARK                         _______ _______ _______ _____ _____    ______ ____
ROOT
ATOM      1  N   UNL     1       9.838  -0.730  23.940  0.00  0.00    -0.273 N 
ATOM      2  C   UNL     1      10.088  -1.975  23.381  0.00  0.00    +0.331 A 
ATOM      3  O   UNL     1      10.820  -2.160  22.410  0.00  0.00    -0.246 OA
ATOM      4  N   UNL     1       9.465  -3.029  23.985  0.00  0.00    -0.274 N 
ATOM      5  H   UNL     1       9.670  -3.946  23.621  0.00  0.00    +0.173 HD
ATOM      6  C   UNL     1       8.628  -2.962  25.058  0.00  0.00    +0.261 A 
ATOM      7  O   UNL     1       8.161  -3.978  25.568  0.00  0.00    -0.267 OA
ATOM      8  C   UNL     1       8.320  -1.596  25.587  0.00  0.00    +0.056 A 
ATOM      9  C   UNL     1       8.973  -0.578  25.010  0.00  0.00    +0.106 A 
ENDROOT
BRANCH   1  11
ATOM     10  C2* UNL     1       9.646   1.023  22.183  0.00  0.00    +0.088 C 
ATOM     11  C1* UNL     1      10.480   0.418  23.304  0.00  0.00    +0.226 C 
ATOM     12  O4* UNL     1      10.738   1.451  24.278  0.00  0.00    -0.348 OA
ATOM     13  C4* UNL     1      10.030   2.649  23.885  0.00  0.00    +0.175 C 
ATOM     14  C3* UNL     1       8.990   2.203  22.859  0.00  0.00    +0.150 C 
BRANCH  14  15
ATOM     15  O3* UNL     1       8.580   3.205  21.948  0.00  0.00    -0.389 OA
ATOM     16  H3* UNL     1       7.743   2.920  21.537  0.00  0.00    +0.210 HD
ENDBRANCH  14  15
BRANCH  13  17
ATOM     17  C5* UNL     1      11.051   3.682  23.398  0.00  0.00    +0.190 C 
BRANCH  17  18
ATOM     18  O5* UNL     1      10.461   4.975  23.274  0.00  0.00    -0.392 OA
ATOM     19  H5* UNL     1      11.093   5.509  22.754  0.00  0.00    +0.210 HD
ENDBRANCH  17  18
ENDBRANCH  13  17
ENDBRANCH   1  11
BRANCH   8  20
ATOM     20  C   UNL     1       7.455  -1.479  26.750  0.00  0.00    +0.022 C 
ATOM     21  C   UNL     1       6.132  -1.654  26.870  0.00  0.00    +0.052 C 
ATOM     22 BR   UNL     1       4.893  -2.135  25.581  0.00  0.00    -0.059 Br
ENDBRANCH   8  20
TORSDOF 5
ENDMDL
MODEL 9
REMARK VINA RESULT:      -5.7      3.129      5.542
REMARK  Name = 
REMARK  5 active torsions:
REMARK  status: ('A' for Active; 'I' for Inactive)
REMARK    1  A    between atoms: C3*_2  and  O3*_22
REMARK    2  A    between atoms: C4*_4  and  C5*_20
REMARK    3  A    between atoms: C1*_7  and  N_9
REMARK    4  A    between atoms: C_11  and  C_17
REMARK    5  A    between atoms: C5*_20  and  O5*_21
REMARK                            x       y       z     vdW  Elec       q    Type
REMARK                         _______ _______ _______ _____ _____    ______ ____
ROOT
ATOM      1  N   UNL     1       6.954  -1.362  24.181  0.00  0.00    -0.273 N 
ATOM      2  C   UNL     1       5.695  -1.386  24.765  0.00  0.00    +0.331 A 
ATOM      3  O   UNL     1       5.087  -0.383  25.134  0.00  0.00    -0.246 OA
ATOM      4  N   UNL     1       5.135  -2.623  24.909  0.00  0.00    -0.274 N 
ATOM      5  H   UNL     1       4.203  -2.657  25.289  0.00  0.00    +0.173 HD
ATOM      6  C   UNL     1       5.701  -3.809  24.549  0.00  0.00    +0.261 A 
ATOM      7  O   UNL     1       5.090  -4.869  24.666  0.00  0.00    -0.267 OA
ATOM      8  C   UNL     1       7.090  -3.752  23.995  0.00  0.00    +0.056 A 
ATOM      9  C   UNL     1       7.607  -2.528  23.820  0.00  0.00    +0.106 A 
ENDROOT
BRANCH   1  11
ATOM     10  C2* UNL     1       8.531   0.292  25.168  0.00  0.00    +0.088 C 
ATOM     11  C1* UNL     1       7.583  -0.052  24.028  0.00  0.00    +0.226 C 
ATOM     12  O4* UNL     1       8.328   0.005  22.794  0.00  0.00    -0.348 OA
ATOM     13  C4* UNL     1       9.716   0.267  23.099  0.00  0.00    +0.175 C 
ATOM     14  C3* UNL     1       9.884  -0.042  24.586  0.00  0.00    +0.150 C 
BRANCH  14  15
ATOM     15  O3* UNL     1      10.945   0.643  25.224  0.00  0.00    -0.389 OA
ATOM     16  H3* UNL     1      11.786   0.295  24.876  0.00  0.00    +0.210 HD
ENDBRANCH  14  15
BRANCH  13  17
ATOM     17  C5* UNL     1      10.049   1.700  22.672  0.00  0.00    +0.190 C 
BRANCH  17  18
ATOM     18  O5* UNL     1       9.660   1.942  21.321  0.00  0.00    -0.392 OA
ATOM     19  H5* UNL     1       9.605   1.065  20.896  0.00  0.00    +0.210 HD
ENDBRANCH  17  18
ENDBRANCH  13  17
ENDBRANCH   1  11
BRANCH   8  20
ATOM     20  C   UNL     1       7.721  -4.991  23.569  0.00  0.00    +0.022 C 
ATOM     21  C   UNL     1       7.477  -5.769  22.506  0.00  0.00    +0.052 C 
ATOM     22 BR   UNL     1       6.237  -5.544  21.150  0.00  0.00    -0.059 Br
ENDBRANCH   8  20
TORSDOF 5
ENDMDL
