MODEL 1
REMARK VINA RESULT:      -6.2      0.000      0.000
REMARK  Name = 
REMARK  5 active torsions:
REMARK  status: ('A' for Active; 'I' for Inactive)
REMARK    1  A    between atoms: C_1  and  C_2
REMARK    2  A    between atoms: N_4  and  C_10
REMARK    3  A    between atoms: C_14  and  O_21
REMARK    4  A    between atoms: C_16  and  C_19
REMARK    5  A    between atoms: C_19  and  O_20
REMARK                            x       y       z     vdW  Elec       q    Type
REMARK                         _______ _______ _______ _____ _____    ______ ____
ROOT
ATOM      1  C   UNL     1       8.752  -2.768  23.797  0.00  0.00    +0.260 C 
ATOM      2  O   UNL     1       7.793  -1.676  23.696  0.00  0.00    -0.345 OA
ATOM      3  C   UNL     1       8.503  -0.423  23.839  0.00  0.00    +0.178 C 
ATOM      4  C   UNL     1       9.904  -0.762  24.330  0.00  0.00    +0.184 C 
ATOM      5  C   UNL     1      10.125  -2.096  23.665  0.00  0.00    +0.246 C 
ATOM      6  F   UNL     1      10.364  -1.856  22.332  0.00  0.00    -0.238 F 
ENDROOT
BRANCH   1  15
ATOM      7  C   UNL     1       5.466  -3.895  27.354  0.00  0.00    +0.051 C 
ATOM      8  C   UNL     1       6.783  -4.069  26.674  0.00  0.00    +0.030 A 
ATOM      9  C   UNL     1       7.648  -5.173  27.138  0.00  0.00    +0.257 A 
ATOM     10  O   UNL     1       7.284  -5.972  27.995  0.00  0.00    -0.267 OA
ATOM     11  N   UNL     1       8.860  -5.273  26.523  0.00  0.00    -0.275 N 
ATOM     12  H   UNL     1       9.419  -6.072  26.776  0.00  0.00    +0.173 HD
ATOM     13  C   UNL     1       9.219  -4.623  25.375  0.00  0.00    +0.331 A 
ATOM     14  O   UNL     1      10.173  -5.037  24.725  0.00  0.00    -0.246 OA
ATOM     15  N   UNL     1       8.441  -3.529  25.025  0.00  0.00    -0.271 N 
ATOM     16  C   UNL     1       7.221  -3.317  25.656  0.00  0.00    +0.102 A 
ENDBRANCH   1  15
BRANCH   4  17
ATOM     17  O   UNL     1      10.870   0.209  23.937  0.00  0.00    -0.386 OA
ATOM     18  H   UNL     1      11.689   0.023  24.438  0.00  0.00    +0.210 HD
ENDBRANCH   4  17
BRANCH   3  19
ATOM     19  C   UNL     1       7.739   0.488  24.799  0.00  0.00    +0.190 C 
BRANCH  19  20
ATOM     20  O   UNL     1       8.639   1.233  25.620  0.00  0.00    -0.392 OA
ATOM     21  H   UNL     1       9.244   1.693  25.010  0.00  0.00    +0.210 HD
ENDBRANCH  19  20
ENDBRANCH   3  19
TORSDOF 4
ENDMDL
MODEL 2
REMARK VINA RESULT:      -6.1      2.482      3.166
REMARK  Name = 
REMARK  5 active torsions:
REMARK  status: ('A' for Active; 'I' for Inactive)
REMARK    1  A    between atoms: C_1  and  C_2
REMARK    2  A    between atoms: N_4  and  C_10
REMARK    3  A    between atoms: C_14  and  O_21
REMARK    4  A    between atoms: C_16  and  C_19
REMARK    5  A    between atoms: C_19  and  O_20
REMARK                            x       y       z     vdW  Elec       q    Type
REMARK                         _______ _______ _______ _____ _____    ______ ____
ROOT
ATOM      1  C   UNL     1       9.915  -1.671  24.172  0.00  0.00    +0.260 C 
ATOM      2  O   UNL     1      10.305  -1.184  22.856  0.00  0.00    -0.345 OA
ATOM      3  C   UNL     1       9.932   0.211  22.752  0.00  0.00    +0.178 C 
ATOM      4  C   UNL     1       9.025   0.517  23.936  0.00  0.00    +0.184 C 
ATOM      5  C   UNL     1       9.597  -0.406  24.981  0.00  0.00    +0.246 C 
ATOM      6  F   UNL     1      10.783   0.144  25.409  0.00  0.00    -0.238 F 
ENDROOT
BRANCH   1  15
ATOM      7  C   UNL     1       5.657  -2.973  21.959  0.00  0.00    +0.051 C 
ATOM      8  C   UNL     1       6.832  -3.266  22.833  0.00  0.00    +0.030 A 
ATOM      9  C   UNL     1       7.001  -4.657  23.301  0.00  0.00    +0.257 A 
ATOM     10  O   UNL     1       6.259  -5.563  22.937  0.00  0.00    -0.267 OA
ATOM     11  N   UNL     1       8.060  -4.876  24.130  0.00  0.00    -0.275 N 
ATOM     12  H   UNL     1       8.229  -5.836  24.387  0.00  0.00    +0.173 HD
ATOM     13  C   UNL     1       9.090  -4.004  24.345  0.00  0.00    +0.331 A 
ATOM     14  O   UNL     1      10.141  -4.422  24.817  0.00  0.00    -0.246 OA
ATOM     15  N   UNL     1       8.857  -2.685  23.982  0.00  0.00    -0.271 N 
ATOM     16  C   UNL     1       7.756  -2.368  23.193  0.00  0.00    +0.102 A 
ENDBRANCH   1  15
BRANCH   4  17
ATOM     17  O   UNL     1       9.081   1.885  24.329  0.00  0.00    -0.386 OA
ATOM     18  H   UNL     1       9.703   2.336  23.724  0.00  0.00    +0.210 HD
ENDBRANCH   4  17
BRANCH   3  19
ATOM     19  C   UNL     1       9.256   0.457  21.403  0.00  0.00    +0.190 C 
BRANCH  19  20
ATOM     20  O   UNL     1       9.112   1.856  21.154  0.00  0.00    -0.392 OA
ATOM     21  H   UNL     1       9.942   2.270  21.450  0.00  0.00    +0.210 HD
ENDBRANCH  19  20
ENDBRANCH   3  19
TORSDOF 4
ENDMDL
MODEL 3
REMARK VINA RESULT:      -6.0      2.368      5.614
REMARK  Name = 
REMARK  5 active torsions:
REMARK  status: ('A' for Active; 'I' for Inactive)
REMARK    1  A    between atoms: C_1  and  C_2
REMARK    2  A    between atoms: N_4  and  C_10
REMARK    3  A    between atoms: C_14  and  O_21
REMARK    4  A    between atoms: C_16  and  C_19
REMARK    5  A    between atoms: C_19  and  O_20
REMARK                            x       y       z     vdW  Elec       q    Type
REMARK                         _______ _______ _______ _____ _____    ______ ____
ROOT
ATOM      1  C   UNL     1       7.245  -2.666  25.809  0.00  0.00    +0.260 C 
ATOM      2  O   UNL     1       7.030  -3.509  24.641  0.00  0.00    -0.345 OA
ATOM      3  C   UNL     1       7.354  -4.875  24.993  0.00  0.00    +0.178 C 
ATOM      4  C   UNL     1       8.066  -4.829  26.338  0.00  0.00    +0.184 C 
ATOM      5  C   UNL     1       7.389  -3.646  26.981  0.00  0.00    +0.246 C 
ATOM      6  F   UNL     1       6.130  -4.052  27.362  0.00  0.00    -0.238 F 
ENDROOT
BRANCH   1  15
ATOM      7  C   UNL     1      10.456  -0.888  22.455  0.00  0.00    +0.051 C 
ATOM      8  C   UNL     1       9.841  -0.896  23.815  0.00  0.00    +0.030 A 
ATOM      9  C   UNL     1      10.232   0.182  24.746  0.00  0.00    +0.257 A 
ATOM     10  O   UNL     1      10.974   1.099  24.407  0.00  0.00    -0.267 OA
ATOM     11  N   UNL     1       9.684   0.117  25.991  0.00  0.00    -0.275 N 
ATOM     12  H   UNL     1       9.881   0.893  26.602  0.00  0.00    +0.173 HD
ATOM     13  C   UNL     1       8.637  -0.685  26.352  0.00  0.00    +0.331 A 
ATOM     14  O   UNL     1       8.004  -0.424  27.368  0.00  0.00    -0.246 OA
ATOM     15  N   UNL     1       8.362  -1.748  25.502  0.00  0.00    -0.271 N 
ATOM     16  C   UNL     1       8.939  -1.790  24.238  0.00  0.00    +0.102 A 
ENDBRANCH   1  15
BRANCH   4  17
ATOM     17  O   UNL     1       7.896  -6.028  27.089  0.00  0.00    -0.386 OA
ATOM     18  H   UNL     1       7.229  -6.570  26.623  0.00  0.00    +0.210 HD
ENDBRANCH   4  17
BRANCH   3  19
ATOM     19  C   UNL     1       8.208  -5.496  23.887  0.00  0.00    +0.190 C 
BRANCH  19  20
ATOM     20  O   UNL     1       9.495  -5.865  24.384  0.00  0.00    -0.392 OA
ATOM     21  H   UNL     1      10.121  -5.212  24.021  0.00  0.00    +0.210 HD
ENDBRANCH  19  20
ENDBRANCH   3  19
TORSDOF 4
ENDMDL
MODEL 4
REMARK VINA RESULT:      -5.9      3.909      6.404
REMARK  Name = 
REMARK  5 active torsions:
REMARK  status: ('A' for Active; 'I' for Inactive)
REMARK    1  A    between atoms: C_1  and  C_2
REMARK    2  A    between atoms: N_4  and  C_10
REMARK    3  A    between atoms: C_14  and  O_21
REMARK    4  A    between atoms: C_16  and  C_19
REMARK    5  A    between atoms: C_19  and  O_20
REMARK                            x       y       z     vdW  Elec       q    Type
REMARK                         _______ _______ _______ _____ _____    ______ ____
ROOT
ATOM      1  C   UNL     1       5.134  -5.451  26.376  0.00  0.00    +0.260 C 
ATOM      2  O   UNL     1       4.165  -4.821  25.491  0.00  0.00    -0.345 OA
ATOM      3  C   UNL     1       3.340  -5.853  24.900  0.00  0.00    +0.178 C 
ATOM      4  C   UNL     1       4.009  -7.185  25.209  0.00  0.00    +0.184 C 
ATOM      5  C   UNL     1       4.629  -6.890  26.551  0.00  0.00    +0.246 C 
ATOM      6  F   UNL     1       3.613  -6.883  27.479  0.00  0.00    -0.238 F 
ENDROOT
BRANCH   1  15
ATOM      7  C   UNL     1       7.928  -3.351  22.840  0.00  0.00    +0.051 C 
ATOM      8  C   UNL     1       7.767  -4.137  24.099  0.00  0.00    +0.030 A 
ATOM      9  C   UNL     1       8.993  -4.476  24.851  0.00  0.00    +0.257 A 
ATOM     10  O   UNL     1      10.100  -4.074  24.510  0.00  0.00    -0.267 OA
ATOM     11  N   UNL     1       8.809  -5.230  25.971  0.00  0.00    -0.275 N 
ATOM     12  H   UNL     1       9.630  -5.394  26.532  0.00  0.00    +0.173 HD
ATOM     13  C   UNL     1       7.607  -5.466  26.577  0.00  0.00    +0.331 A 
ATOM     14  O   UNL     1       7.586  -5.848  27.741  0.00  0.00    -0.246 OA
ATOM     15  N   UNL     1       6.478  -5.229  25.804  0.00  0.00    -0.271 N 
ATOM     16  C   UNL     1       6.593  -4.526  24.610  0.00  0.00    +0.102 A 
ENDBRANCH   1  15
BRANCH   4  17
ATOM     17  O   UNL     1       3.080  -8.264  25.265  0.00  0.00    -0.386 OA
ATOM     18  H   UNL     1       3.458  -8.943  25.857  0.00  0.00    +0.210 HD
ENDBRANCH   4  17
BRANCH   3  19
ATOM     19  C   UNL     1       3.196  -5.592  23.400  0.00  0.00    +0.190 C 
BRANCH  19  20
ATOM     20  O   UNL     1       3.385  -6.794  22.654  0.00  0.00    -0.392 OA
ATOM     21  H   UNL     1       3.906  -7.388  23.224  0.00  0.00    +0.210 HD
ENDBRANCH  19  20
ENDBRANCH   3  19
TORSDOF 4
ENDMDL
MODEL 5
REMARK VINA RESULT:      -5.8      2.913      4.004
REMARK  Name = 
REMARK  5 active torsions:
REMARK  status: ('A' for Active; 'I' for Inactive)
REMARK    1  A    between atoms: C_1  and  C_2
REMARK    2  A    between atoms: N_4  and  C_10
REMARK    3  A    between atoms: C_14  and  O_21
REMARK    4  A    between atoms: C_16  and  C_19
REMARK    5  A    between atoms: C_19  and  O_20
REMARK                            x       y       z     vdW  Elec       q    Type
REMARK                         _______ _______ _______ _____ _____    ______ ____
ROOT
ATOM      1  C   UNL     1       8.006  -3.782  23.900  0.00  0.00    +0.260 C 
ATOM      2  O   UNL     1       8.223  -4.901  22.993  0.00  0.00    -0.345 OA
ATOM      3  C   UNL     1       7.152  -4.919  22.019  0.00  0.00    +0.178 C 
ATOM      4  C   UNL     1       6.086  -3.952  22.515  0.00  0.00    +0.184 C 
ATOM      5  C   UNL     1       6.936  -2.922  23.214  0.00  0.00    +0.246 C 
ATOM      6  F   UNL     1       7.546  -2.165  22.241  0.00  0.00    -0.238 F 
ENDROOT
BRANCH   1  15
ATOM      7  C   UNL     1       4.671  -4.814  27.441  0.00  0.00    +0.051 C 
ATOM      8  C   UNL     1       6.054  -4.857  26.880  0.00  0.00    +0.030 A 
ATOM      9  C   UNL     1       7.058  -5.662  27.606  0.00  0.00    +0.257 A 
ATOM     10  O   UNL     1       6.768  -6.334  28.590  0.00  0.00    -0.267 OA
ATOM     11  N   UNL     1       8.318  -5.642  27.088  0.00  0.00    -0.275 N 
ATOM     12  H   UNL     1       8.987  -6.253  27.529  0.00  0.00    +0.173 HD
ATOM     13  C   UNL     1       8.656  -5.170  25.851  0.00  0.00    +0.331 A 
ATOM     14  O   UNL     1       9.723  -5.509  25.351  0.00  0.00    -0.246 OA
ATOM     15  N   UNL     1       7.729  -4.336  25.241  0.00  0.00    -0.271 N 
ATOM     16  C   UNL     1       6.439  -4.247  25.752  0.00  0.00    +0.102 A 
ENDBRANCH   1  15
BRANCH   4  17
ATOM     17  O   UNL     1       5.318  -3.393  21.453  0.00  0.00    -0.386 OA
ATOM     18  H   UNL     1       5.671  -3.756  20.617  0.00  0.00    +0.210 HD
ENDBRANCH   4  17
BRANCH   3  19
ATOM     19  C   UNL     1       6.634  -6.348  21.860  0.00  0.00    +0.190 C 
BRANCH  19  20
ATOM     20  O   UNL     1       5.339  -6.356  21.259  0.00  0.00    -0.392 OA
ATOM     21  H   UNL     1       4.722  -6.657  21.949  0.00  0.00    +0.210 HD
ENDBRANCH  19  20
ENDBRANCH   3  19
TORSDOF 4
ENDMDL
MODEL 6
REMARK VINA RESULT:      -5.8      3.146      3.914
REMARK  Name = 
REMARK  5 active torsions:
REMARK  status: ('A' for Active; 'I' for Inactive)
REMARK    1  A    between atoms: C_1  and  C_2
REMARK    2  A    between atoms: N_4  and  C_10
REMARK    3  A    between atoms: C_14  and  O_21
REMARK    4  A    between atoms: C_16  and  C_19
REMARK    5  A    between atoms: C_19  and  O_20
REMARK                            x       y       z     vdW  Elec       q    Type
REMARK                         _______ _______ _______ _____ _____    ______ ____
ROOT
ATOM      1  C   UNL     1       6.541  -3.658  23.674  0.00  0.00    +0.260 C 
ATOM      2  O   UNL     1       6.691  -2.920  24.921  0.00  0.00    -0.345 OA
ATOM      3  C   UNL     1       8.102  -2.813  25.226  0.00  0.00    +0.178 C 
ATOM      4  C   UNL     1       8.832  -3.763  24.286  0.00  0.00    +0.184 C 
ATOM      5  C   UNL     1       7.949  -3.693  23.066  0.00  0.00    +0.246 C 
ATOM      6  F   UNL     1       8.189  -2.483  22.456  0.00  0.00    -0.238 F 
ENDROOT
BRANCH   1  15
ATOM      7  C   UNL     1       4.670  -6.724  27.112  0.00  0.00    +0.051 C 
ATOM      8  C   UNL     1       4.928  -6.335  25.694  0.00  0.00    +0.030 A 
ATOM      9  C   UNL     1       4.290  -7.147  24.638  0.00  0.00    +0.257 A 
ATOM     10  O   UNL     1       3.516  -8.062  24.897  0.00  0.00    -0.267 OA
ATOM     11  N   UNL     1       4.585  -6.787  23.357  0.00  0.00    -0.275 N 
ATOM     12  H   UNL     1       4.089  -7.283  22.634  0.00  0.00    +0.173 HD
ATOM     13  C   UNL     1       5.188  -5.619  22.983  0.00  0.00    +0.331 A 
ATOM     14  O   UNL     1       5.092  -5.240  21.821  0.00  0.00    -0.246 OA
ATOM     15  N   UNL     1       5.862  -4.933  23.984  0.00  0.00    -0.271 N 
ATOM     16  C   UNL     1       5.669  -5.286  25.315  0.00  0.00    +0.102 A 
ENDBRANCH   1  15
BRANCH   4  17
ATOM     17  O   UNL     1      10.167  -3.347  24.016  0.00  0.00    -0.386 OA
ATOM     18  H   UNL     1      10.698  -3.535  24.815  0.00  0.00    +0.210 HD
ENDBRANCH   4  17
BRANCH   3  19
ATOM     19  C   UNL     1       8.329  -3.142  26.701  0.00  0.00    +0.190 C 
BRANCH  19  20
ATOM     20  O   UNL     1       9.063  -4.359  26.845  0.00  0.00    -0.392 OA
ATOM     21  H   UNL     1       9.671  -4.399  26.085  0.00  0.00    +0.210 HD
ENDBRANCH  19  20
ENDBRANCH   3  19
TORSDOF 4
ENDMDL
MODEL 7
REMARK VINA RESULT:      -5.7      2.684      5.338
REMARK  Name = 
REMARK  5 active torsions:
REMARK  status: ('A' for Active; 'I' for Inactive)
REMARK    1  A    between atoms: C_1  and  C_2
REMARK    2  A    between atoms: N_4  and  C_10
REMARK    3  A    between atoms: C_14  and  O_21
REMARK    4  A    between atoms: C_16  and  C_19
REMARK    5  A    between atoms: C_19  and  O_20
REMARK                            x       y       z     vdW  Elec       q    Type
REMARK                         _______ _______ _______ _____ _____    ______ ____
ROOT
ATOM      1  C   UNL     1       8.324  -2.907  25.279  0.00  0.00    +0.260 C 
ATOM      2  O   UNL     1       6.902  -2.715  25.027  0.00  0.00    -0.345 OA
ATOM      3  C   UNL     1       6.507  -3.574  23.931  0.00  0.00    +0.178 C 
ATOM      4  C   UNL     1       7.788  -4.102  23.299  0.00  0.00    +0.184 C 
ATOM      5  C   UNL     1       8.691  -4.179  24.503  0.00  0.00    +0.246 C 
ATOM      6  F   UNL     1       8.294  -5.269  25.243  0.00  0.00    -0.238 F 
ENDROOT
BRANCH   1  15
ATOM      7  C   UNL     1       9.811   0.317  21.798  0.00  0.00    +0.051 C 
ATOM      8  C   UNL     1       9.649  -0.104  23.221  0.00  0.00    +0.030 A 
ATOM      9  C   UNL     1       9.996   0.880  24.267  0.00  0.00    +0.257 A 
ATOM     10  O   UNL     1      10.334   2.028  23.996  0.00  0.00    -0.267 OA
ATOM     11  N   UNL     1       9.877   0.444  25.552  0.00  0.00    -0.275 N 
ATOM     12  H   UNL     1      10.032   1.135  26.269  0.00  0.00    +0.173 HD
ATOM     13  C   UNL     1       9.235  -0.698  25.943  0.00  0.00    +0.331 A 
ATOM     14  O   UNL     1       8.884  -0.819  27.111  0.00  0.00    -0.246 OA
ATOM     15  N   UNL     1       9.015  -1.643  24.950  0.00  0.00    -0.271 N 
ATOM     16  C   UNL     1       9.183  -1.296  23.615  0.00  0.00    +0.102 A 
ENDBRANCH   1  15
BRANCH   4  17
ATOM     17  O   UNL     1       7.607  -5.369  22.672  0.00  0.00    -0.386 OA
ATOM     18  H   UNL     1       6.680  -5.638  22.825  0.00  0.00    +0.210 HD
ENDBRANCH   4  17
BRANCH   3  19
ATOM     19  C   UNL     1       5.641  -2.783  22.951  0.00  0.00    +0.190 C 
BRANCH  19  20
ATOM     20  O   UNL     1       5.384  -3.543  21.770  0.00  0.00    -0.392 OA
ATOM     21  H   UNL     1       5.649  -2.978  21.022  0.00  0.00    +0.210 HD
ENDBRANCH  19  20
ENDBRANCH   3  19
TORSDOF 4
ENDMDL
MODEL 8
REMARK VINA RESULT:      -5.7      2.317      5.616
REMARK  Name = 
REMARK  5 active torsions:
REMARK  status: ('A' for Active; 'I' for Inactive)
REMARK    1  A    between atoms: C_1  and  C_2
REMARK    2  A    between atoms: N_4  and  C_10
REMARK    3  A    between atoms: C_14  and  O_21
REMARK    4  A    between atoms: C_16  and  C_19
REMARK    5  A    between atoms: C_19  and  O_20
REMARK                            x       y       z     vdW  Elec       q    Type
REMARK                         _______ _______ _______ _____ _____    ______ ____
ROOT
ATOM      1  C   UNL     1       7.949  -3.960  23.325  0.00  0.00    +0.260 C 
ATOM      2  O   UNL     1       8.874  -4.528  24.295  0.00  0.00    -0.345 OA
ATOM      3  C   UNL     1       8.123  -5.336  25.232  0.00  0.00    +0.178 C 
ATOM      4  C   UNL     1       6.650  -5.026  25.001  0.00  0.00    +0.184 C 
ATOM      5  C   UNL     1       6.644  -4.743  23.521  0.00  0.00    +0.246 C 
ATOM      6  F   UNL     1       6.763  -5.952  22.873  0.00  0.00    -0.238 F 
ENDROOT
BRANCH   1  15
ATOM      7  C   UNL     1      10.429   0.151  24.618  0.00  0.00    +0.051 C 
ATOM      8  C   UNL     1       9.217  -0.548  24.097  0.00  0.00    +0.030 A 
ATOM      9  C   UNL     1       8.118   0.292  23.577  0.00  0.00    +0.257 A 
ATOM     10  O   UNL     1       8.209   1.512  23.500  0.00  0.00    -0.267 OA
ATOM     11  N   UNL     1       7.012  -0.380  23.151  0.00  0.00    -0.275 N 
ATOM     12  H   UNL     1       6.294   0.179  22.720  0.00  0.00    +0.173 HD
ATOM     13  C   UNL     1       6.943  -1.727  22.928  0.00  0.00    +0.331 A 
ATOM     14  O   UNL     1       6.040  -2.174  22.229  0.00  0.00    -0.246 OA
ATOM     15  N   UNL     1       7.940  -2.494  23.515  0.00  0.00    -0.271 N 
ATOM     16  C   UNL     1       9.070  -1.877  24.038  0.00  0.00    +0.102 A 
ENDBRANCH   1  15
BRANCH   4  17
ATOM     17  O   UNL     1       5.800  -6.115  25.351  0.00  0.00    -0.386 OA
ATOM     18  H   UNL     1       5.583  -6.591  24.526  0.00  0.00    +0.210 HD
ENDBRANCH   4  17
BRANCH   3  19
ATOM     19  C   UNL     1       8.582  -5.025  26.656  0.00  0.00    +0.190 C 
BRANCH  19  20
ATOM     20  O   UNL     1       7.861  -5.809  27.606  0.00  0.00    -0.392 OA
ATOM     21  H   UNL     1       8.520  -6.380  28.042  0.00  0.00    +0.210 HD
ENDBRANCH  19  20
ENDBRANCH   3  19
TORSDOF 4
ENDMDL
MODEL 9
REMARK VINA RESULT:      -5.6      2.389      3.319
REMARK  Name = 
REMARK  5 active torsions:
REMARK  status: ('A' for Active; 'I' for Inactive)
REMARK    1  A    between atoms: C_1  and  C_2
REMARK    2  A    between atoms: N_4  and  C_10
REMARK    3  A    between atoms: C_14  and  O_21
REMARK    4  A    between atoms: C_16  and  C_19
REMARK    5  A    between atoms: C_19  and  O_20
REMARK                            x       y       z     vdW  Elec       q    Type
REMARK                         _______ _______ _______ _____ _____    ______ ____
ROOT
ATOM      1  C   UNL     1       8.252  -4.715  24.430  0.00  0.00    +0.260 C 
ATOM      2  O   UNL     1       7.755  -4.977  23.086  0.00  0.00    -0.345 OA
ATOM      3  C   UNL     1       7.539  -3.711  22.419  0.00  0.00    +0.178 C 
ATOM      4  C   UNL     1       7.634  -2.627  23.485  0.00  0.00    +0.184 C 
ATOM      5  C   UNL     1       8.649  -3.233  24.420  0.00  0.00    +0.246 C 
ATOM      6  F   UNL     1       9.881  -3.118  23.817  0.00  0.00    -0.238 F 
ENDROOT
BRANCH   1  15
ATOM      7  C   UNL     1       3.901  -7.000  25.190  0.00  0.00    +0.051 C 
ATOM      8  C   UNL     1       5.147  -6.340  25.682  0.00  0.00    +0.030 A 
ATOM      9  C   UNL     1       5.407  -6.373  27.136  0.00  0.00    +0.257 A 
ATOM     10  O   UNL     1       4.678  -6.977  27.916  0.00  0.00    -0.267 OA
ATOM     11  N   UNL     1       6.530  -5.723  27.551  0.00  0.00    -0.275 N 
ATOM     12  H   UNL     1       6.756  -5.812  28.529  0.00  0.00    +0.173 HD
ATOM     13  C   UNL     1       7.537  -5.287  26.736  0.00  0.00    +0.331 A 
ATOM     14  O   UNL     1       8.635  -5.038  27.220  0.00  0.00    -0.246 OA
ATOM     15  N   UNL     1       7.225  -5.175  25.388  0.00  0.00    -0.271 N 
ATOM     16  C   UNL     1       6.058  -5.751  24.898  0.00  0.00    +0.102 A 
ENDBRANCH   1  15
BRANCH   4  17
ATOM     17  O   UNL     1       8.060  -1.375  22.955  0.00  0.00    -0.386 OA
ATOM     18  H   UNL     1       8.783  -1.558  22.323  0.00  0.00    +0.210 HD
ENDBRANCH   4  17
BRANCH   3  19
ATOM     19  C   UNL     1       6.185  -3.734  21.710  0.00  0.00    +0.190 C 
BRANCH  19  20
ATOM     20  O   UNL     1       5.383  -2.622  22.109  0.00  0.00    -0.392 OA
ATOM     21  H   UNL     1       5.941  -2.082  22.696  0.00  0.00    +0.210 HD
ENDBRANCH  19  20
ENDBRANCH   3  19
TORSDOF 4
ENDMDL
