MODEL 1
REMARK VINA RESULT:      -6.3      0.000      0.000
REMARK  Name = 
REMARK  11 active torsions:
REMARK  status: ('A' for Active; 'I' for Inactive)
REMARK    1  A    between atoms: C_1  and  C_2
REMARK    2  A    between atoms: N_4  and  C_5
REMARK    3  A    between atoms: C_7  and  N_25
REMARK    4  A    between atoms: C_10  and  C_22
REMARK    5  A    between atoms: C_12  and  C_14
REMARK    6  A    between atoms: C_14  and  C_16
REMARK    7  A    between atoms: C_14  and  O_21
REMARK    8  A    between atoms: C_16  and  C_18
REMARK    9  A    between atoms: C_16  and  O_20
REMARK   10  A    between atoms: C_18  and  O_19
REMARK   11  A    between atoms: C_22  and  O_24
REMARK                            x       y       z     vdW  Elec       q    Type
REMARK                         _______ _______ _______ _____ _____    ______ ____
ROOT
ATOM      1  C   UNL     1       8.907  -3.113  24.243  0.00  0.00    +0.160 C 
ATOM      2  C   UNL     1       8.277  -4.490  23.831  0.00  0.00    +0.229 C 
ATOM      3  O   UNL     1       7.860  -5.354  24.909  0.00  0.00    -0.477 OA
ATOM      4  C   UNL     1       7.346  -4.760  26.041  0.00  0.00    +0.204 C 
ATOM      5  C   UNL     1       7.655  -3.519  26.431  0.00  0.00    +0.071 C 
ATOM      6  C   UNL     1       8.585  -2.636  25.690  0.00  0.00    +0.238 C 
ENDROOT
BRANCH   6   7
ATOM      7  N   UNL     1       8.007  -1.279  25.657  0.00  0.00    -0.104 NA
ATOM      8  C   UNL     1       8.355  -0.414  26.533  0.00  0.00    +0.377 C 
ATOM      9  N   UNL     1       7.761   0.796  26.524  0.00  0.00    -0.289 N 
ATOM     10  H   UNL     1       8.331   1.599  26.741  0.00  0.00    +0.255 HD
ATOM     11  H   UNL     1       7.172   0.934  25.710  0.00  0.00    +0.255 HD
ATOM     12  N   UNL     1       9.221  -0.521  27.560  0.00  0.00    -0.289 N 
ATOM     13  H   UNL     1       9.576   0.311  28.006  0.00  0.00    +0.255 HD
ATOM     14  H   UNL     1       9.788  -1.347  27.670  0.00  0.00    +0.255 HD
ENDBRANCH   6   7
BRANCH   1  17
ATOM     15  C   UNL     1       9.066  -0.386  21.579  0.00  0.00    +0.109 C 
ATOM     16  C   UNL     1       9.625  -1.465  22.465  0.00  0.00    +0.210 C 
ATOM     17  N   UNL     1       8.694  -2.002  23.307  0.00  0.00    -0.305 N 
ATOM     18  H   UNL     1       7.758  -1.603  23.367  0.00  0.00    +0.149 HD
ATOM     19  O   UNL     1      10.774  -1.884  22.375  0.00  0.00    -0.276 OA
ENDBRANCH   1  17
BRANCH   4  20
ATOM     20  C   UNL     1       6.472  -5.565  26.953  0.00  0.00    +0.372 C 
ATOM     21  O   UNL     1       5.707  -6.454  26.611  0.00  0.00    -0.242 OA
BRANCH  20  22
ATOM     22  O   UNL     1       6.592  -5.150  28.237  0.00  0.00    -0.475 OA
ATOM     23  H   UNL     1       6.110  -5.751  28.835  0.00  0.00    +0.296 HD
ENDBRANCH  20  22
ENDBRANCH   4  20
BRANCH   2  24
ATOM     24  C   UNL     1       7.180  -4.435  22.728  0.00  0.00    +0.187 C 
BRANCH  24  25
ATOM     25  O   UNL     1       6.222  -3.411  23.005  0.00  0.00    -0.385 OA
ATOM     26  H   UNL     1       6.571  -2.584  22.620  0.00  0.00    +0.210 HD
ENDBRANCH  24  25
BRANCH  24  27
ATOM     27  C   UNL     1       6.469  -5.786  22.469  0.00  0.00    +0.172 C 
BRANCH  27  28
ATOM     28  O   UNL     1       6.320  -5.942  21.036  0.00  0.00    -0.387 OA
ATOM     29  H   UNL     1       6.220  -6.898  20.862  0.00  0.00    +0.210 HD
ENDBRANCH  27  28
BRANCH  27  30
ATOM     30  C   UNL     1       5.060  -5.897  23.051  0.00  0.00    +0.189 C 
BRANCH  30  31
ATOM     31  O   UNL     1       4.911  -7.157  23.706  0.00  0.00    -0.392 OA
ATOM     32  H   UNL     1       4.973  -6.957  24.661  0.00  0.00    +0.210 HD
ENDBRANCH  30  31
ENDBRANCH  27  30
ENDBRANCH  24  27
ENDBRANCH   2  24
TORSDOF 10
ENDMDL
MODEL 2
REMARK VINA RESULT:      -6.0      2.800      6.400
REMARK  Name = 
REMARK  11 active torsions:
REMARK  status: ('A' for Active; 'I' for Inactive)
REMARK    1  A    between atoms: C_1  and  C_2
REMARK    2  A    between atoms: N_4  and  C_5
REMARK    3  A    between atoms: C_7  and  N_25
REMARK    4  A    between atoms: C_10  and  C_22
REMARK    5  A    between atoms: C_12  and  C_14
REMARK    6  A    between atoms: C_14  and  C_16
REMARK    7  A    between atoms: C_14  and  O_21
REMARK    8  A    between atoms: C_16  and  C_18
REMARK    9  A    between atoms: C_16  and  O_20
REMARK   10  A    between atoms: C_18  and  O_19
REMARK   11  A    between atoms: C_22  and  O_24
REMARK                            x       y       z     vdW  Elec       q    Type
REMARK                         _______ _______ _______ _____ _____    ______ ____
ROOT
ATOM      1  C   UNL     1       7.922  -4.349  25.110  0.00  0.00    +0.160 C 
ATOM      2  C   UNL     1       8.710  -3.038  25.461  0.00  0.00    +0.229 C 
ATOM      3  O   UNL     1       9.365  -2.368  24.361  0.00  0.00    -0.477 OA
ATOM      4  C   UNL     1       8.741  -2.399  23.133  0.00  0.00    +0.204 C 
ATOM      5  C   UNL     1       7.900  -3.366  22.754  0.00  0.00    +0.071 C 
ATOM      6  C   UNL     1       7.538  -4.518  23.612  0.00  0.00    +0.238 C 
ENDROOT
BRANCH   6   7
ATOM      7  N   UNL     1       6.085  -4.750  23.486  0.00  0.00    -0.104 NA
ATOM      8  C   UNL     1       5.652  -5.734  22.794  0.00  0.00    +0.377 C 
ATOM      9  N   UNL     1       4.321  -5.883  22.638  0.00  0.00    -0.289 N 
ATOM     10  H   UNL     1       3.951  -6.821  22.638  0.00  0.00    +0.255 HD
ATOM     11  H   UNL     1       3.787  -5.244  23.217  0.00  0.00    +0.255 HD
ATOM     12  N   UNL     1       6.329  -6.674  22.105  0.00  0.00    -0.289 N 
ATOM     13  H   UNL     1       5.862  -7.521  21.820  0.00  0.00    +0.255 HD
ATOM     14  H   UNL     1       7.333  -6.732  22.166  0.00  0.00    +0.255 HD
ENDBRANCH   6   7
BRANCH   1  17
ATOM     15  C   UNL     1       5.397  -5.395  27.773  0.00  0.00    +0.109 C 
ATOM     16  C   UNL     1       6.751  -5.341  27.119  0.00  0.00    +0.210 C 
ATOM     17  N   UNL     1       6.752  -4.638  25.948  0.00  0.00    -0.305 N 
ATOM     18  H   UNL     1       5.879  -4.300  25.546  0.00  0.00    +0.149 HD
ATOM     19  O   UNL     1       7.766  -5.798  27.632  0.00  0.00    -0.276 OA
ENDBRANCH   1  17
BRANCH   4  20
ATOM     20  C   UNL     1       9.088  -1.357  22.115  0.00  0.00    +0.372 C 
ATOM     21  O   UNL     1       8.449  -0.342  21.881  0.00  0.00    -0.242 OA
BRANCH  20  22
ATOM     22  O   UNL     1      10.200  -1.703  21.422  0.00  0.00    -0.475 OA
ATOM     23  H   UNL     1       9.958  -2.180  20.607  0.00  0.00    +0.296 HD
ENDBRANCH  20  22
ENDBRANCH   4  20
BRANCH   2  24
ATOM     24  C   UNL     1       7.957  -2.005  26.349  0.00  0.00    +0.187 C 
BRANCH  24  25
ATOM     25  O   UNL     1       6.606  -1.839  25.911  0.00  0.00    -0.385 OA
ATOM     26  H   UNL     1       6.633  -1.273  25.116  0.00  0.00    +0.210 HD
ENDBRANCH  24  25
BRANCH  24  27
ATOM     27  C   UNL     1       8.661  -0.632  26.467  0.00  0.00    +0.172 C 
BRANCH  27  28
ATOM     28  O   UNL     1       8.958  -0.403  27.867  0.00  0.00    -0.387 OA
ATOM     29  H   UNL     1       8.375   0.321  28.168  0.00  0.00    +0.210 HD
ENDBRANCH  27  28
BRANCH  27  30
ATOM     30  C   UNL     1       7.824   0.565  26.016  0.00  0.00    +0.189 C 
BRANCH  30  31
ATOM     31  O   UNL     1       7.671   0.533  24.597  0.00  0.00    -0.392 OA
ATOM     32  H   UNL     1       7.775   1.461  24.307  0.00  0.00    +0.210 HD
ENDBRANCH  30  31
ENDBRANCH  27  30
ENDBRANCH  24  27
ENDBRANCH   2  24
TORSDOF 10
ENDMDL
MODEL 3
REMARK VINA RESULT:      -5.9      3.036      5.408
REMARK  Name = 
REMARK  11 active torsions:
REMARK  status: ('A' for Active; 'I' for Inactive)
REMARK    1  A    between atoms: C_1  and  C_2
REMARK    2  A    between atoms: N_4  and  C_5
REMARK    3  A    between atoms: C_7  and  N_25
REMARK    4  A    between atoms: C_10  and  C_22
REMARK    5  A    between atoms: C_12  and  C_14
REMARK    6  A    between atoms: C_14  and  C_16
REMARK    7  A    between atoms: C_14  and  O_21
REMARK    8  A    between atoms: C_16  and  C_18
REMARK    9  A    between atoms: C_16  and  O_20
REMARK   10  A    between atoms: C_18  and  O_19
REMARK   11  A    between atoms: C_22  and  O_24
REMARK                            x       y       z     vdW  Elec       q    Type
REMARK                         _______ _______ _______ _____ _____    ______ ____
ROOT
ATOM      1  C   UNL     1       6.591  -2.868  23.586  0.00  0.00    +0.160 C 
ATOM      2  C   UNL     1       7.637  -1.736  23.296  0.00  0.00    +0.229 C 
ATOM      3  O   UNL     1       7.822  -0.750  24.335  0.00  0.00    -0.477 OA
ATOM      4  C   UNL     1       7.724  -1.174  25.642  0.00  0.00    +0.204 C 
ATOM      5  C   UNL     1       7.006  -2.235  26.025  0.00  0.00    +0.071 C 
ATOM      6  C   UNL     1       6.233  -3.081  25.086  0.00  0.00    +0.238 C 
ENDROOT
BRANCH   6   7
ATOM      7  N   UNL     1       6.440  -4.494  25.459  0.00  0.00    -0.104 NA
ATOM      8  C   UNL     1       5.612  -5.077  26.240  0.00  0.00    +0.377 C 
ATOM      9  N   UNL     1       5.862  -6.347  26.621  0.00  0.00    -0.289 N 
ATOM     10  H   UNL     1       5.075  -6.972  26.707  0.00  0.00    +0.255 HD
ATOM     11  H   UNL     1       6.644  -6.756  26.123  0.00  0.00    +0.255 HD
ATOM     12  N   UNL     1       4.497  -4.604  26.831  0.00  0.00    -0.289 N 
ATOM     13  H   UNL     1       3.819  -5.247  27.212  0.00  0.00    +0.255 HD
ATOM     14  H   UNL     1       4.144  -3.687  26.604  0.00  0.00    +0.255 HD
ENDBRANCH   6   7
BRANCH   1  17
ATOM     15  C   UNL     1       6.909  -5.958  21.371  0.00  0.00    +0.109 C 
ATOM     16  C   UNL     1       6.381  -4.606  21.762  0.00  0.00    +0.210 C 
ATOM     17  N   UNL     1       6.862  -4.169  22.962  0.00  0.00    -0.305 N 
ATOM     18  H   UNL     1       7.431  -4.781  23.545  0.00  0.00    +0.149 HD
ATOM     19  O   UNL     1       5.666  -3.924  21.034  0.00  0.00    -0.276 OA
ENDBRANCH   1  17
BRANCH   4  20
ATOM     20  C   UNL     1       8.365  -0.358  26.722  0.00  0.00    +0.372 C 
ATOM     21  O   UNL     1       7.833  -0.002  27.763  0.00  0.00    -0.242 OA
BRANCH  20  22
ATOM     22  O   UNL     1       9.627  -0.002  26.382  0.00  0.00    -0.475 OA
ATOM     23  H   UNL     1       9.784  -0.172  25.434  0.00  0.00    +0.296 HD
ENDBRANCH  20  22
ENDBRANCH   4  20
BRANCH   2  24
ATOM     24  C   UNL     1       9.016  -2.204  22.748  0.00  0.00    +0.187 C 
BRANCH  24  25
ATOM     25  O   UNL     1       9.686  -3.046  23.691  0.00  0.00    -0.385 OA
ATOM     26  H   UNL     1       9.502  -2.681  24.578  0.00  0.00    +0.210 HD
ENDBRANCH  24  25
BRANCH  24  27
ATOM     27  C   UNL     1       9.946  -1.054  22.294  0.00  0.00    +0.172 C 
BRANCH  27  28
ATOM     28  O   UNL     1      10.379  -0.338  23.477  0.00  0.00    -0.387 OA
ATOM     29  H   UNL     1      11.202   0.133  23.241  0.00  0.00    +0.210 HD
ENDBRANCH  27  28
BRANCH  27  30
ATOM     30  C   UNL     1       9.290  -0.009  21.390  0.00  0.00    +0.189 C 
BRANCH  30  31
ATOM     31  O   UNL     1       9.929   1.254  21.577  0.00  0.00    -0.392 OA
ATOM     32  H   UNL     1      10.532   1.126  22.336  0.00  0.00    +0.210 HD
ENDBRANCH  30  31
ENDBRANCH  27  30
ENDBRANCH  24  27
ENDBRANCH   2  24
TORSDOF 10
ENDMDL
MODEL 4
REMARK VINA RESULT:      -5.8      1.318      1.392
REMARK  Name = 
REMARK  11 active torsions:
REMARK  status: ('A' for Active; 'I' for Inactive)
REMARK    1  A    between atoms: C_1  and  C_2
REMARK    2  A    between atoms: N_4  and  C_5
REMARK    3  A    between atoms: C_7  and  N_25
REMARK    4  A    between atoms: C_10  and  C_22
REMARK    5  A    between atoms: C_12  and  C_14
REMARK    6  A    between atoms: C_14  and  C_16
REMARK    7  A    between atoms: C_14  and  O_21
REMARK    8  A    between atoms: C_16  and  C_18
REMARK    9  A    between atoms: C_16  and  O_20
REMARK   10  A    between atoms: C_18  and  O_19
REMARK   11  A    between atoms: C_22  and  O_24
REMARK                            x       y       z     vdW  Elec       q    Type
REMARK                         _______ _______ _______ _____ _____    ______ ____
ROOT
ATOM      1  C   UNL     1       8.789  -2.011  23.726  0.00  0.00    +0.160 C 
ATOM      2  C   UNL     1       8.276  -3.355  23.100  0.00  0.00    +0.229 C 
ATOM      3  O   UNL     1       8.221  -4.496  23.984  0.00  0.00    -0.477 OA
ATOM      4  C   UNL     1       7.890  -4.266  25.301  0.00  0.00    +0.204 C 
ATOM      5  C   UNL     1       8.106  -3.106  25.928  0.00  0.00    +0.071 C 
ATOM      6  C   UNL     1       8.727  -1.928  25.279  0.00  0.00    +0.238 C 
ENDROOT
BRANCH   6   7
ATOM      7  N   UNL     1       7.978  -0.725  25.691  0.00  0.00    -0.104 NA
ATOM      8  C   UNL     1       8.263  -0.140  26.792  0.00  0.00    +0.377 C 
ATOM      9  N   UNL     1       7.519   0.916  27.179  0.00  0.00    -0.289 N 
ATOM     10  H   UNL     1       7.993   1.681  27.634  0.00  0.00    +0.255 HD
ATOM     11  H   UNL     1       6.870   1.219  26.461  0.00  0.00    +0.255 HD
ATOM     12  N   UNL     1       9.195  -0.442  27.718  0.00  0.00    -0.289 N 
ATOM     13  H   UNL     1       9.466   0.249  28.401  0.00  0.00    +0.255 HD
ATOM     14  H   UNL     1       9.869  -1.173  27.550  0.00  0.00    +0.255 HD
ENDBRANCH   6   7
BRANCH   1  17
ATOM     15  C   UNL     1       7.977   1.187  21.808  0.00  0.00    +0.109 C 
ATOM     16  C   UNL     1       8.850   0.049  22.260  0.00  0.00    +0.210 C 
ATOM     17  N   UNL     1       8.231  -0.780  23.151  0.00  0.00    -0.305 N 
ATOM     18  H   UNL     1       7.312  -0.547  23.523  0.00  0.00    +0.149 HD
ATOM     19  O   UNL     1       9.968  -0.166  21.804  0.00  0.00    -0.276 OA
ENDBRANCH   1  17
BRANCH   4  20
ATOM     20  C   UNL     1       7.350  -5.397  26.123  0.00  0.00    +0.372 C 
ATOM     21  O   UNL     1       6.212  -5.839  26.074  0.00  0.00    -0.242 OA
BRANCH  20  22
ATOM     22  O   UNL     1       8.281  -5.857  26.992  0.00  0.00    -0.475 OA
ATOM     23  H   UNL     1       8.597  -6.738  26.717  0.00  0.00    +0.296 HD
ENDBRANCH  20  22
ENDBRANCH   4  20
BRANCH   2  24
ATOM     24  C   UNL     1       6.969  -3.262  22.259  0.00  0.00    +0.187 C 
BRANCH  24  25
ATOM     25  O   UNL     1       5.960  -2.527  22.957  0.00  0.00    -0.385 OA
ATOM     26  H   UNL     1       6.080  -2.712  23.908  0.00  0.00    +0.210 HD
ENDBRANCH  24  25
BRANCH  24  27
ATOM     27  C   UNL     1       6.416  -4.628  21.788  0.00  0.00    +0.172 C 
BRANCH  27  28
ATOM     28  O   UNL     1       5.753  -4.424  20.515  0.00  0.00    -0.387 OA
ATOM     29  H   UNL     1       5.371  -5.284  20.252  0.00  0.00    +0.210 HD
ENDBRANCH  27  28
BRANCH  27  30
ATOM     30  C   UNL     1       5.368  -5.254  22.709  0.00  0.00    +0.189 C 
BRANCH  30  31
ATOM     31  O   UNL     1       4.131  -4.555  22.571  0.00  0.00    -0.392 OA
ATOM     32  H   UNL     1       3.444  -5.250  22.552  0.00  0.00    +0.210 HD
ENDBRANCH  30  31
ENDBRANCH  27  30
ENDBRANCH  24  27
ENDBRANCH   2  24
TORSDOF 10
ENDMDL
MODEL 5
REMARK VINA RESULT:      -5.7      2.526      4.600
REMARK  Name = 
REMARK  11 active torsions:
REMARK  status: ('A' for Active; 'I' for Inactive)
REMARK    1  A    between atoms: C_1  and  C_2
REMARK    2  A    between atoms: N_4  and  C_5
REMARK    3  A    between atoms: C_7  and  N_25
REMARK    4  A    between atoms: C_10  and  C_22
REMARK    5  A    between atoms: C_12  and  C_14
REMARK    6  A    between atoms: C_14  and  C_16
REMARK    7  A    between atoms: C_14  and  O_21
REMARK    8  A    between atoms: C_16  and  C_18
REMARK    9  A    between atoms: C_16  and  O_20
REMARK   10  A    between atoms: C_18  and  O_19
REMARK   11  A    between atoms: C_22  and  O_24
REMARK                            x       y       z     vdW  Elec       q    Type
REMARK                         _______ _______ _______ _____ _____    ______ ____
ROOT
ATOM      1  C   UNL     1       5.913  -2.157  23.632  0.00  0.00    +0.160 C 
ATOM      2  C   UNL     1       4.873  -3.327  23.742  0.00  0.00    +0.229 C 
ATOM      3  O   UNL     1       4.810  -4.238  22.623  0.00  0.00    -0.477 OA
ATOM      4  C   UNL     1       5.986  -4.523  21.966  0.00  0.00    +0.204 C 
ATOM      5  C   UNL     1       7.034  -3.695  21.930  0.00  0.00    +0.071 C 
ATOM      6  C   UNL     1       7.055  -2.372  22.596  0.00  0.00    +0.238 C 
ENDROOT
BRANCH   6   7
ATOM      7  N   UNL     1       8.367  -2.202  23.249  0.00  0.00    -0.104 NA
ATOM      8  C   UNL     1       9.333  -1.656  22.612  0.00  0.00    +0.377 C 
ATOM      9  N   UNL     1      10.541  -1.576  23.206  0.00  0.00    -0.289 N 
ATOM     10  H   UNL     1      11.086  -0.743  23.048  0.00  0.00    +0.255 HD
ATOM     11  H   UNL     1      10.515  -1.856  24.181  0.00  0.00    +0.255 HD
ATOM     12  N   UNL     1       9.376  -1.165  21.358  0.00  0.00    -0.289 N 
ATOM     13  H   UNL     1      10.124  -0.546  21.087  0.00  0.00    +0.255 HD
ATOM     14  H   UNL     1       8.538  -1.102  20.801  0.00  0.00    +0.255 HD
ENDBRANCH   6   7
BRANCH   1  17
ATOM     15  C   UNL     1       6.775  -0.505  26.961  0.00  0.00    +0.109 C 
ATOM     16  C   UNL     1       5.993  -0.692  25.691  0.00  0.00    +0.210 C 
ATOM     17  N   UNL     1       6.488  -1.688  24.898  0.00  0.00    -0.305 N 
ATOM     18  H   UNL     1       7.364  -2.151  25.135  0.00  0.00    +0.149 HD
ATOM     19  O   UNL     1       4.961  -0.079  25.437  0.00  0.00    -0.276 OA
ENDBRANCH   1  17
BRANCH   4  20
ATOM     20  C   UNL     1       6.080  -5.780  21.156  0.00  0.00    +0.372 C 
ATOM     21  O   UNL     1       5.963  -5.860  19.943  0.00  0.00    -0.242 OA
BRANCH  20  22
ATOM     22  O   UNL     1       6.264  -6.861  21.951  0.00  0.00    -0.475 OA
ATOM     23  H   UNL     1       7.182  -6.890  22.279  0.00  0.00    +0.296 HD
ENDBRANCH  20  22
ENDBRANCH   4  20
BRANCH   2  24
ATOM     24  C   UNL     1       4.874  -4.118  25.082  0.00  0.00    +0.187 C 
BRANCH  24  25
ATOM     25  O   UNL     1       6.206  -4.456  25.477  0.00  0.00    -0.385 OA
ATOM     26  H   UNL     1       6.607  -4.948  24.735  0.00  0.00    +0.210 HD
ENDBRANCH  24  25
BRANCH  24  27
ATOM     27  C   UNL     1       3.974  -5.377  25.080  0.00  0.00    +0.172 C 
BRANCH  27  28
ATOM     28  O   UNL     1       3.135  -5.325  26.261  0.00  0.00    -0.387 OA
ATOM     29  H   UNL     1       3.289  -6.153  26.756  0.00  0.00    +0.210 HD
ENDBRANCH  27  28
BRANCH  27  30
ATOM     30  C   UNL     1       4.722  -6.708  25.156  0.00  0.00    +0.189 C 
BRANCH  30  31
ATOM     31  O   UNL     1       4.345  -7.532  24.052  0.00  0.00    -0.392 OA
ATOM     32  H   UNL     1       5.170  -7.679  23.549  0.00  0.00    +0.210 HD
ENDBRANCH  30  31
ENDBRANCH  27  30
ENDBRANCH  24  27
ENDBRANCH   2  24
TORSDOF 10
ENDMDL
MODEL 6
REMARK VINA RESULT:      -5.6      2.610      4.484
REMARK  Name = 
REMARK  11 active torsions:
REMARK  status: ('A' for Active; 'I' for Inactive)
REMARK    1  A    between atoms: C_1  and  C_2
REMARK    2  A    between atoms: N_4  and  C_5
REMARK    3  A    between atoms: C_7  and  N_25
REMARK    4  A    between atoms: C_10  and  C_22
REMARK    5  A    between atoms: C_12  and  C_14
REMARK    6  A    between atoms: C_14  and  C_16
REMARK    7  A    between atoms: C_14  and  O_21
REMARK    8  A    between atoms: C_16  and  C_18
REMARK    9  A    between atoms: C_16  and  O_20
REMARK   10  A    between atoms: C_18  and  O_19
REMARK   11  A    between atoms: C_22  and  O_24
REMARK                            x       y       z     vdW  Elec       q    Type
REMARK                         _______ _______ _______ _____ _____    ______ ____
ROOT
ATOM      1  C   UNL     1       8.460  -2.564  23.105  0.00  0.00    +0.160 C 
ATOM      2  C   UNL     1       7.190  -2.049  22.342  0.00  0.00    +0.229 C 
ATOM      3  O   UNL     1       6.240  -3.054  21.923  0.00  0.00    -0.477 OA
ATOM      4  C   UNL     1       6.062  -4.145  22.746  0.00  0.00    +0.204 C 
ATOM      5  C   UNL     1       6.997  -4.601  23.584  0.00  0.00    +0.071 C 
ATOM      6  C   UNL     1       8.336  -3.984  23.731  0.00  0.00    +0.238 C 
ENDROOT
BRANCH   6   7
ATOM      7  N   UNL     1       8.668  -3.933  25.168  0.00  0.00    -0.104 NA
ATOM      8  C   UNL     1       9.297  -4.903  25.714  0.00  0.00    +0.377 C 
ATOM      9  N   UNL     1       9.526  -4.864  27.043  0.00  0.00    -0.289 N 
ATOM     10  H   UNL     1      10.409  -5.220  27.376  0.00  0.00    +0.255 HD
ATOM     11  H   UNL     1       9.275  -3.972  27.454  0.00  0.00    +0.255 HD
ATOM     12  N   UNL     1       9.751  -6.053  25.178  0.00  0.00    -0.289 N 
ATOM     13  H   UNL     1      10.440  -6.600  25.671  0.00  0.00    +0.255 HD
ATOM     14  H   UNL     1       9.705  -6.210  24.183  0.00  0.00    +0.255 HD
ENDBRANCH   6   7
BRANCH   1  17
ATOM     15  C   UNL     1      10.330   0.109  25.084  0.00  0.00    +0.109 C 
ATOM     16  C   UNL     1      10.026  -0.735  23.877  0.00  0.00    +0.210 C 
ATOM     17  N   UNL     1       9.031  -1.644  24.097  0.00  0.00    -0.305 N 
ATOM     18  H   UNL     1       8.643  -1.772  25.030  0.00  0.00    +0.149 HD
ATOM     19  O   UNL     1      10.551  -0.562  22.783  0.00  0.00    -0.276 OA
ENDBRANCH   1  17
BRANCH   4  20
ATOM     20  C   UNL     1       4.797  -4.939  22.635  0.00  0.00    +0.372 C 
ATOM     21  O   UNL     1       3.714  -4.631  23.109  0.00  0.00    -0.242 OA
BRANCH  20  22
ATOM     22  O   UNL     1       5.007  -6.102  21.974  0.00  0.00    -0.475 OA
ATOM     23  H   UNL     1       5.544  -6.710  22.516  0.00  0.00    +0.296 HD
ENDBRANCH  20  22
ENDBRANCH   4  20
BRANCH   2  24
ATOM     24  C   UNL     1       6.448  -0.843  22.988  0.00  0.00    +0.187 C 
BRANCH  24  25
ATOM     25  O   UNL     1       7.136   0.383  22.726  0.00  0.00    -0.385 OA
ATOM     26  H   UNL     1       6.474   1.011  22.377  0.00  0.00    +0.210 HD
ENDBRANCH  24  25
BRANCH  24  27
ATOM     27  C   UNL     1       6.176  -0.999  24.503  0.00  0.00    +0.172 C 
BRANCH  27  28
ATOM     28  O   UNL     1       4.979  -1.801  24.661  0.00  0.00    -0.387 OA
ATOM     29  H   UNL     1       4.223  -1.238  24.404  0.00  0.00    +0.210 HD
ENDBRANCH  27  28
BRANCH  27  30
ATOM     30  C   UNL     1       5.905   0.308  25.250  0.00  0.00    +0.189 C 
BRANCH  30  31
ATOM     31  O   UNL     1       4.990   1.107  24.498  0.00  0.00    -0.392 OA
ATOM     32  H   UNL     1       4.703   0.538  23.757  0.00  0.00    +0.210 HD
ENDBRANCH  30  31
ENDBRANCH  27  30
ENDBRANCH  24  27
ENDBRANCH   2  24
TORSDOF 10
ENDMDL
MODEL 7
REMARK VINA RESULT:      -5.6      2.530      4.980
REMARK  Name = 
REMARK  11 active torsions:
REMARK  status: ('A' for Active; 'I' for Inactive)
REMARK    1  A    between atoms: C_1  and  C_2
REMARK    2  A    between atoms: N_4  and  C_5
REMARK    3  A    between atoms: C_7  and  N_25
REMARK    4  A    between atoms: C_10  and  C_22
REMARK    5  A    between atoms: C_12  and  C_14
REMARK    6  A    between atoms: C_14  and  C_16
REMARK    7  A    between atoms: C_14  and  O_21
REMARK    8  A    between atoms: C_16  and  C_18
REMARK    9  A    between atoms: C_16  and  O_20
REMARK   10  A    between atoms: C_18  and  O_19
REMARK   11  A    between atoms: C_22  and  O_24
REMARK                            x       y       z     vdW  Elec       q    Type
REMARK                         _______ _______ _______ _____ _____    ______ ____
ROOT
ATOM      1  C   UNL     1       8.157  -2.945  24.888  0.00  0.00    +0.160 C 
ATOM      2  C   UNL     1       7.982  -2.480  23.400  0.00  0.00    +0.229 C 
ATOM      3  O   UNL     1       7.749  -3.520  22.425  0.00  0.00    -0.477 OA
ATOM      4  C   UNL     1       7.001  -4.608  22.820  0.00  0.00    +0.204 C 
ATOM      5  C   UNL     1       6.911  -5.024  24.086  0.00  0.00    +0.071 C 
ATOM      6  C   UNL     1       7.603  -4.362  25.216  0.00  0.00    +0.238 C 
ENDROOT
BRANCH   6   7
ATOM      7  N   UNL     1       6.664  -4.287  26.353  0.00  0.00    -0.104 NA
ATOM      8  C   UNL     1       6.789  -5.090  27.340  0.00  0.00    +0.377 C 
ATOM      9  N   UNL     1       5.877  -5.046  28.333  0.00  0.00    -0.289 N 
ATOM     10  H   UNL     1       6.206  -5.184  29.277  0.00  0.00    +0.255 HD
ATOM     11  H   UNL     1       5.241  -4.262  28.243  0.00  0.00    +0.255 HD
ATOM     12  N   UNL     1       7.691  -6.068  27.553  0.00  0.00    -0.289 N 
ATOM     13  H   UNL     1       7.814  -6.444  28.481  0.00  0.00    +0.255 HD
ATOM     14  H   UNL     1       8.472  -6.192  26.928  0.00  0.00    +0.255 HD
ENDBRANCH   6   7
BRANCH   1  17
ATOM     15  C   UNL     1       7.606  -0.081  27.349  0.00  0.00    +0.109 C 
ATOM     16  C   UNL     1       8.375  -0.883  26.335  0.00  0.00    +0.210 C 
ATOM     17  N   UNL     1       7.707  -1.998  25.915  0.00  0.00    -0.305 N 
ATOM     18  H   UNL     1       6.830  -2.272  26.355  0.00  0.00    +0.149 HD
ATOM     19  O   UNL     1       9.449  -0.523  25.864  0.00  0.00    -0.276 OA
ENDBRANCH   1  17
BRANCH   4  20
ATOM     20  C   UNL     1       6.328  -5.444  21.775  0.00  0.00    +0.372 C 
ATOM     21  O   UNL     1       5.938  -5.053  20.686  0.00  0.00    -0.242 OA
BRANCH  20  22
ATOM     22  O   UNL     1       6.148  -6.715  22.209  0.00  0.00    -0.475 OA
ATOM     23  H   UNL     1       5.882  -6.720  23.147  0.00  0.00    +0.296 HD
ENDBRANCH  20  22
ENDBRANCH   4  20
BRANCH   2  24
ATOM     24  C   UNL     1       7.004  -1.293  23.167  0.00  0.00    +0.187 C 
BRANCH  24  25
ATOM     25  O   UNL     1       5.958  -1.658  22.264  0.00  0.00    -0.385 OA
ATOM     26  H   UNL     1       6.303  -2.382  21.706  0.00  0.00    +0.210 HD
ENDBRANCH  24  25
BRANCH  24  27
ATOM     27  C   UNL     1       7.688   0.015  22.701  0.00  0.00    +0.172 C 
BRANCH  27  28
ATOM     28  O   UNL     1       9.115  -0.131  22.910  0.00  0.00    -0.387 OA
ATOM     29  H   UNL     1       9.345   0.407  23.692  0.00  0.00    +0.210 HD
ENDBRANCH  27  28
BRANCH  27  30
ATOM     30  C   UNL     1       7.279   1.270  23.473  0.00  0.00    +0.189 C 
BRANCH  30  31
ATOM     31  O   UNL     1       8.416   1.806  24.151  0.00  0.00    -0.392 OA
ATOM     32  H   UNL     1       8.873   1.032  24.535  0.00  0.00    +0.210 HD
ENDBRANCH  30  31
ENDBRANCH  27  30
ENDBRANCH  24  27
ENDBRANCH   2  24
TORSDOF 10
ENDMDL
MODEL 8
REMARK VINA RESULT:      -5.4      2.780      4.846
REMARK  Name = 
REMARK  11 active torsions:
REMARK  status: ('A' for Active; 'I' for Inactive)
REMARK    1  A    between atoms: C_1  and  C_2
REMARK    2  A    between atoms: N_4  and  C_5
REMARK    3  A    between atoms: C_7  and  N_25
REMARK    4  A    between atoms: C_10  and  C_22
REMARK    5  A    between atoms: C_12  and  C_14
REMARK    6  A    between atoms: C_14  and  C_16
REMARK    7  A    between atoms: C_14  and  O_21
REMARK    8  A    between atoms: C_16  and  C_18
REMARK    9  A    between atoms: C_16  and  O_20
REMARK   10  A    between atoms: C_18  and  O_19
REMARK   11  A    between atoms: C_22  and  O_24
REMARK                            x       y       z     vdW  Elec       q    Type
REMARK                         _______ _______ _______ _____ _____    ______ ____
ROOT
ATOM      1  C   UNL     1       5.871  -3.241  24.979  0.00  0.00    +0.160 C 
ATOM      2  C   UNL     1       6.239  -3.395  26.496  0.00  0.00    +0.229 C 
ATOM      3  O   UNL     1       5.383  -4.254  27.281  0.00  0.00    -0.477 OA
ATOM      4  C   UNL     1       4.855  -5.366  26.662  0.00  0.00    +0.204 C 
ATOM      5  C   UNL     1       4.645  -5.451  25.345  0.00  0.00    +0.071 C 
ATOM      6  C   UNL     1       4.958  -4.358  24.394  0.00  0.00    +0.238 C 
ENDROOT
BRANCH   6   7
ATOM      7  N   UNL     1       5.588  -4.951  23.198  0.00  0.00    -0.104 NA
ATOM      8  C   UNL     1       4.955  -5.823  22.508  0.00  0.00    +0.377 C 
ATOM      9  N   UNL     1       5.579  -6.400  21.461  0.00  0.00    -0.289 N 
ATOM     10  H   UNL     1       5.030  -6.592  20.637  0.00  0.00    +0.255 HD
ATOM     11  H   UNL     1       6.472  -5.967  21.253  0.00  0.00    +0.255 HD
ATOM     12  N   UNL     1       3.723  -6.339  22.682  0.00  0.00    -0.289 N 
ATOM     13  H   UNL     1       3.269  -6.823  21.923  0.00  0.00    +0.255 HD
ATOM     14  H   UNL     1       3.107  -5.970  23.390  0.00  0.00    +0.255 HD
ENDBRANCH   6   7
BRANCH   1  17
ATOM     15  C   UNL     1       8.494  -1.930  22.536  0.00  0.00    +0.109 C 
ATOM     16  C   UNL     1       7.204  -1.889  23.310  0.00  0.00    +0.210 C 
ATOM     17  N   UNL     1       6.996  -3.007  24.065  0.00  0.00    -0.305 N 
ATOM     18  H   UNL     1       7.625  -3.805  23.993  0.00  0.00    +0.149 HD
ATOM     19  O   UNL     1       6.463  -0.912  23.333  0.00  0.00    -0.276 OA
ENDBRANCH   1  17
BRANCH   4  20
ATOM     20  C   UNL     1       4.389  -6.515  27.503  0.00  0.00    +0.372 C 
ATOM     21  O   UNL     1       3.245  -6.704  27.886  0.00  0.00    -0.242 OA
BRANCH  20  22
ATOM     22  O   UNL     1       5.423  -7.319  27.847  0.00  0.00    -0.475 OA
ATOM     23  H   UNL     1       5.119  -8.028  28.444  0.00  0.00    +0.296 HD
ENDBRANCH  20  22
ENDBRANCH   4  20
BRANCH   2  24
ATOM     24  C   UNL     1       7.734  -3.693  26.809  0.00  0.00    +0.187 C 
BRANCH  24  25
ATOM     25  O   UNL     1       8.572  -2.615  26.386  0.00  0.00    -0.385 OA
ATOM     26  H   UNL     1       8.077  -2.120  25.706  0.00  0.00    +0.210 HD
ENDBRANCH  24  25
BRANCH  24  27
ATOM     27  C   UNL     1       8.250  -5.036  26.239  0.00  0.00    +0.172 C 
BRANCH  27  28
ATOM     28  O   UNL     1       8.107  -6.042  27.272  0.00  0.00    -0.387 OA
ATOM     29  H   UNL     1       7.186  -6.365  27.231  0.00  0.00    +0.210 HD
ENDBRANCH  27  28
BRANCH  27  30
ATOM     30  C   UNL     1       9.728  -5.047  25.846  0.00  0.00    +0.189 C 
BRANCH  30  31
ATOM     31  O   UNL     1       9.895  -4.375  24.597  0.00  0.00    -0.392 OA
ATOM     32  H   UNL     1       9.174  -3.715  24.562  0.00  0.00    +0.210 HD
ENDBRANCH  30  31
ENDBRANCH  27  30
ENDBRANCH  24  27
ENDBRANCH   2  24
TORSDOF 10
ENDMDL
MODEL 9
REMARK VINA RESULT:      -5.4      2.116      5.126
REMARK  Name = 
REMARK  11 active torsions:
REMARK  status: ('A' for Active; 'I' for Inactive)
REMARK    1  A    between atoms: C_1  and  C_2
REMARK    2  A    between atoms: N_4  and  C_5
REMARK    3  A    between atoms: C_7  and  N_25
REMARK    4  A    between atoms: C_10  and  C_22
REMARK    5  A    between atoms: C_12  and  C_14
REMARK    6  A    between atoms: C_14  and  C_16
REMARK    7  A    between atoms: C_14  and  O_21
REMARK    8  A    between atoms: C_16  and  C_18
REMARK    9  A    between atoms: C_16  and  O_20
REMARK   10  A    between atoms: C_18  and  O_19
REMARK   11  A    between atoms: C_22  and  O_24
REMARK                            x       y       z     vdW  Elec       q    Type
REMARK                         _______ _______ _______ _____ _____    ______ ____
ROOT
ATOM      1  C   UNL     1       6.409  -2.186  24.522  0.00  0.00    +0.160 C 
ATOM      2  C   UNL     1       7.046  -3.001  23.343  0.00  0.00    +0.229 C 
ATOM      3  O   UNL     1       7.704  -2.232  22.312  0.00  0.00    -0.477 OA
ATOM      4  C   UNL     1       8.368  -1.088  22.697  0.00  0.00    +0.204 C 
ATOM      5  C   UNL     1       8.050  -0.376  23.782  0.00  0.00    +0.071 C 
ATOM      6  C   UNL     1       6.948  -0.737  24.703  0.00  0.00    +0.238 C 
ENDROOT
BRANCH   6   7
ATOM      7  N   UNL     1       7.419  -0.543  26.088  0.00  0.00    -0.104 NA
ATOM      8  C   UNL     1       7.170   0.552  26.701  0.00  0.00    +0.377 C 
ATOM      9  N   UNL     1       7.671   0.731  27.940  0.00  0.00    -0.289 N 
ATOM     10  H   UNL     1       7.094   1.213  28.613  0.00  0.00    +0.255 HD
ATOM     11  H   UNL     1       8.100  -0.108  28.312  0.00  0.00    +0.255 HD
ATOM     12  N   UNL     1       6.503   1.646  26.285  0.00  0.00    -0.289 N 
ATOM     13  H   UNL     1       6.175   2.321  26.958  0.00  0.00    +0.255 HD
ATOM     14  H   UNL     1       6.020   1.648  25.400  0.00  0.00    +0.255 HD
ENDBRANCH   6   7
BRANCH   1  17
ATOM     15  C   UNL     1       5.598  -4.075  27.737  0.00  0.00    +0.109 C 
ATOM     16  C   UNL     1       5.278  -3.384  26.440  0.00  0.00    +0.210 C 
ATOM     17  N   UNL     1       6.379  -2.860  25.826  0.00  0.00    -0.305 N 
ATOM     18  H   UNL     1       7.285  -2.867  26.293  0.00  0.00    +0.149 HD
ATOM     19  O   UNL     1       4.159  -3.374  25.940  0.00  0.00    -0.276 OA
ENDBRANCH   1  17
BRANCH   4  20
ATOM     20  C   UNL     1       9.441  -0.536  21.808  0.00  0.00    +0.372 C 
ATOM     21  O   UNL     1       9.504   0.609  21.387  0.00  0.00    -0.242 OA
BRANCH  20  22
ATOM     22  O   UNL     1      10.335  -1.495  21.469  0.00  0.00    -0.475 OA
ATOM     23  H   UNL     1       9.875  -2.323  21.236  0.00  0.00    +0.296 HD
ENDBRANCH  20  22
ENDBRANCH   4  20
BRANCH   2  24
ATOM     24  C   UNL     1       7.926  -4.219  23.751  0.00  0.00    +0.187 C 
BRANCH  24  25
ATOM     25  O   UNL     1       7.123  -5.281  24.270  0.00  0.00    -0.385 OA
ATOM     26  H   UNL     1       7.657  -5.735  24.951  0.00  0.00    +0.210 HD
ENDBRANCH  24  25
BRANCH  24  27
ATOM     27  C   UNL     1       9.072  -3.876  24.733  0.00  0.00    +0.172 C 
BRANCH  27  28
ATOM     28  O   UNL     1      10.164  -3.313  23.964  0.00  0.00    -0.387 OA
ATOM     29  H   UNL     1      10.979  -3.769  24.250  0.00  0.00    +0.210 HD
ENDBRANCH  27  28
BRANCH  27  30
ATOM     30  C   UNL     1       9.661  -5.072  25.482  0.00  0.00    +0.189 C 
BRANCH  30  31
ATOM     31  O   UNL     1       8.897  -5.320  26.663  0.00  0.00    -0.392 OA
ATOM     32  H   UNL     1       9.359  -6.050  27.119  0.00  0.00    +0.210 HD
ENDBRANCH  30  31
ENDBRANCH  27  30
ENDBRANCH  24  27
ENDBRANCH   2  24
TORSDOF 10
ENDMDL
