MODEL 1
REMARK VINA RESULT:      -6.3      0.000      0.000
REMARK  Name = 
REMARK  21 active torsions:
REMARK  status: ('A' for Active; 'I' for Inactive)
REMARK    1  A    between atoms: C_1  and  C_2
REMARK    2  A    between atoms: C_2  and  C_3
REMARK    3  A    between atoms: C_2  and  C_4
REMARK    4  A    between atoms: C_9  and  C_12
REMARK    5  A    between atoms: C_18  and  O_21
REMARK    6  A    between atoms: O_21  and  C_22
REMARK    7  A    between atoms: C_23  and  O_25
REMARK    8  A    between atoms: O_25  and  C_26
REMARK    9  A    between atoms: C_29  and  C_50
REMARK   10  A    between atoms: C_33  and  C_35
REMARK   11  A    between atoms: C_35  and  C_37
REMARK   12  A    between atoms: C_35  and  N_41
REMARK   13  A    between atoms: C_37  and  C_38
REMARK   14  A    between atoms: C_37  and  C_39
REMARK   15  A    between atoms: C_37  and  C_40
REMARK   16  A    between atoms: C_42  and  O_44
REMARK   17  A    between atoms: O_44  and  C_45
REMARK   18  A    between atoms: N_52  and  C_53
REMARK   19  A    between atoms: C_53  and  C_59
REMARK   20  A    between atoms: C_55  and  C_57
REMARK   21  A    between atoms: C_59  and  O_61
REMARK                            x       y       z     vdW  Elec       q    Type
REMARK                         _______ _______ _______ _____ _____    ______ ____
ROOT
ATOM      1  C   UNL     1       4.562  -0.336  26.051  0.00  0.00    +0.193 C 
ATOM      2  C   UNL     1       5.362  -1.210  25.076  0.00  0.00    +0.153 C 
ATOM      3  N   UNL     1       5.788  -2.398  25.817  0.00  0.00    -0.285 N 
ATOM      4  C   UNL     1       6.907  -3.136  25.484  0.00  0.00    +0.237 C 
ATOM      5  O   UNL     1       7.541  -3.731  26.362  0.00  0.00    -0.274 OA
ATOM      6  C   UNL     1       5.301  -2.359  27.198  0.00  0.00    +0.166 C 
ATOM      7  C   UNL     1       4.109  -1.389  27.096  0.00  0.00    +0.078 C 
ENDROOT
BRANCH   6   8
ATOM      8  C   UNL     1       4.902  -3.770  27.758  0.00  0.00    +0.235 C 
ATOM      9  N   UNL     1       3.953  -4.431  26.987  0.00  0.00    -0.298 N 
ATOM     10  H   UNL     1       3.285  -3.811  26.524  0.00  0.00    +0.150 HD
ATOM     11  O   UNL     1       5.297  -4.237  28.827  0.00  0.00    -0.274 OA
BRANCH   9  12
ATOM     12  C   UNL     1       3.428  -5.772  27.307  0.00  0.00    +0.138 C 
ATOM     13  C   UNL     1       3.077  -6.652  26.098  0.00  0.00    +0.048 C 
ATOM     14  C   UNL     1       4.259  -6.998  26.947  0.00  0.00    +0.048 C 
BRANCH  12  15
ATOM     15  C   UNL     1       2.661  -5.858  28.604  0.00  0.00    +0.329 C 
ATOM     16  O   UNL     1       1.590  -5.314  28.802  0.00  0.00    -0.249 OA
BRANCH  15  17
ATOM     17  O   UNL     1       3.321  -6.588  29.547  0.00  0.00    -0.479 OA
ATOM     18  H   UNL     1       4.096  -7.057  29.145  0.00  0.00    +0.295 HD
ENDBRANCH  15  17
ENDBRANCH  12  15
BRANCH  13  19
ATOM     19  C   UNL     1       1.997  -7.652  26.034  0.00  0.00    -0.028 C 
ATOM     20  C   UNL     1       1.904  -8.605  25.093  0.00  0.00    +0.004 C 
ENDBRANCH  13  19
ENDBRANCH   9  12
ENDBRANCH   6   8
BRANCH   1  21
ATOM     21  O   UNL     1       5.283   0.664  26.770  0.00  0.00    -0.486 OA
BRANCH  21  24
ATOM     22  C   UNL     1       5.512   3.943  25.422  0.00  0.00    +0.094 A 
ATOM     23  C   UNL     1       5.688   2.598  25.683  0.00  0.00    +0.076 A 
ATOM     24  C   UNL     1       5.080   2.015  26.799  0.00  0.00    +0.132 A 
ATOM     25  C   UNL     1       4.378   2.855  27.705  0.00  0.00    +0.043 A 
ATOM     26  C   UNL     1       3.942   2.516  29.011  0.00  0.00    +0.017 A 
ATOM     27  C   UNL     1       3.132   3.379  29.772  0.00  0.00    +0.047 A 
ATOM     28  C   UNL     1       2.714   4.593  29.242  0.00  0.00    +0.136 A 
ATOM     29  C   UNL     1       3.254   4.998  28.013  0.00  0.00    +0.085 A 
ATOM     30 BR   UNL     1       2.768   6.724  27.311  0.00  0.00    -0.044 Br
ATOM     31  C   UNL     1       4.122   4.185  27.268  0.00  0.00    +0.093 A 
ATOM     32  N   UNL     1       4.693   4.704  26.162  0.00  0.00    -0.244 NA
BRANCH  22  39
ATOM     33  C   UNL     1      10.268   5.693  24.123  0.00  0.00    +0.221 C 
ATOM     34  N   UNL     1       9.325   5.788  23.115  0.00  0.00    -0.264 N 
ATOM     35  H   UNL     1       9.517   6.261  22.244  0.00  0.00    +0.157 HD
ATOM     36  C   UNL     1       8.037   5.386  23.353  0.00  0.00    +0.165 A 
ATOM     37  S   UNL     1       6.873   5.823  22.193  0.00  0.00    -0.060 S 
ATOM     38  C   UNL     1       5.647   5.153  23.209  0.00  0.00    +0.078 A 
ATOM     39  C   UNL     1       6.230   4.583  24.328  0.00  0.00    +0.098 A 
ATOM     40  N   UNL     1       7.604   4.710  24.381  0.00  0.00    -0.223 NA
ATOM     41  O   UNL     1      10.060   5.318  25.265  0.00  0.00    -0.275 OA
BRANCH  33  43
ATOM     42  C   UNL     1      12.392   6.776  24.865  0.00  0.00    +0.017 C 
ATOM     43  C   UNL     1      11.666   6.130  23.684  0.00  0.00    +0.069 C 
ATOM     44  C   UNL     1      12.453   4.927  23.173  0.00  0.00    +0.017 C 
ENDBRANCH  33  43
ENDBRANCH  22  39
BRANCH  28  45
ATOM     45  O   UNL     1       1.858   5.465  29.860  0.00  0.00    -0.494 OA
ATOM     46  C   UNL     1       0.494   5.093  29.990  0.00  0.00    +0.277 C 
ENDBRANCH  28  45
ENDBRANCH  21  24
ENDBRANCH   1  21
BRANCH   4  47
ATOM     47  C   UNL     1       7.308  -3.222  23.977  0.00  0.00    +0.168 C 
BRANCH  47  48
ATOM     48  N   UNL     1       8.682  -2.715  23.905  0.00  0.00    -0.269 N 
ATOM     49  H   UNL     1       9.291  -2.864  24.701  0.00  0.00    +0.153 HD
ATOM     50  C   UNL     1       9.163  -1.881  22.939  0.00  0.00    +0.401 C 
ATOM     51  O   UNL     1       8.541  -1.531  21.945  0.00  0.00    -0.226 OA
BRANCH  50  52
ATOM     52  O   UNL     1      10.431  -1.504  23.248  0.00  0.00    -0.447 OA
BRANCH  52  53
ATOM     53  C   UNL     1      10.654  -0.113  23.539  0.00  0.00    +0.178 C 
ATOM     54  C   UNL     1       9.890   0.286  24.813  0.00  0.00    +0.045 C 
ATOM     55  C   UNL     1       9.337   1.692  24.575  0.00  0.00    +0.004 C 
ATOM     56  C   UNL     1       9.898   2.136  23.233  0.00  0.00    +0.004 C 
ATOM     57  C   UNL     1      10.102   0.832  22.476  0.00  0.00    +0.045 C 
ENDBRANCH  52  53
ENDBRANCH  50  52
ENDBRANCH  47  48
BRANCH  47  58
ATOM     58  C   UNL     1       7.115  -4.690  23.435  0.00  0.00    -0.011 C 
ATOM     59  C   UNL     1       8.330  -5.582  23.779  0.00  0.00    +0.013 C 
ATOM     60  C   UNL     1       7.038  -4.668  21.886  0.00  0.00    +0.013 C 
ATOM     61  C   UNL     1       5.843  -5.368  23.996  0.00  0.00    +0.013 C 
ENDBRANCH  47  58
ENDBRANCH   4  47
TORSDOF 15
ENDMDL
MODEL 2
REMARK VINA RESULT:      -6.1      2.478      6.769
REMARK  Name = 
REMARK  21 active torsions:
REMARK  status: ('A' for Active; 'I' for Inactive)
REMARK    1  A    between atoms: C_1  and  C_2
REMARK    2  A    between atoms: C_2  and  C_3
REMARK    3  A    between atoms: C_2  and  C_4
REMARK    4  A    between atoms: C_9  and  C_12
REMARK    5  A    between atoms: C_18  and  O_21
REMARK    6  A    between atoms: O_21  and  C_22
REMARK    7  A    between atoms: C_23  and  O_25
REMARK    8  A    between atoms: O_25  and  C_26
REMARK    9  A    between atoms: C_29  and  C_50
REMARK   10  A    between atoms: C_33  and  C_35
REMARK   11  A    between atoms: C_35  and  C_37
REMARK   12  A    between atoms: C_35  and  N_41
REMARK   13  A    between atoms: C_37  and  C_38
REMARK   14  A    between atoms: C_37  and  C_39
REMARK   15  A    between atoms: C_37  and  C_40
REMARK   16  A    between atoms: C_42  and  O_44
REMARK   17  A    between atoms: O_44  and  C_45
REMARK   18  A    between atoms: N_52  and  C_53
REMARK   19  A    between atoms: C_53  and  C_59
REMARK   20  A    between atoms: C_55  and  C_57
REMARK   21  A    between atoms: C_59  and  O_61
REMARK                            x       y       z     vdW  Elec       q    Type
REMARK                         _______ _______ _______ _____ _____    ______ ____
ROOT
ATOM      1  C   UNL     1       8.034  -1.578  23.492  0.00  0.00    +0.193 C 
ATOM      2  C   UNL     1       7.402  -1.429  24.882  0.00  0.00    +0.153 C 
ATOM      3  N   UNL     1       6.077  -2.050  24.819  0.00  0.00    -0.285 N 
ATOM      4  C   UNL     1       5.033  -1.687  25.646  0.00  0.00    +0.237 C 
ATOM      5  O   UNL     1       3.866  -1.780  25.249  0.00  0.00    -0.274 OA
ATOM      6  C   UNL     1       5.820  -2.605  23.487  0.00  0.00    +0.166 C 
ATOM      7  C   UNL     1       7.244  -2.790  22.931  0.00  0.00    +0.078 C 
ENDROOT
BRANCH   6   8
ATOM      8  C   UNL     1       4.991  -3.937  23.519  0.00  0.00    +0.235 C 
ATOM      9  N   UNL     1       4.569  -4.305  24.791  0.00  0.00    -0.298 N 
ATOM     10  H   UNL     1       5.212  -4.036  25.539  0.00  0.00    +0.150 HD
ATOM     11  O   UNL     1       4.798  -4.665  22.543  0.00  0.00    -0.274 OA
BRANCH   9  12
ATOM     12  C   UNL     1       3.770  -5.513  25.071  0.00  0.00    +0.138 C 
ATOM     13  C   UNL     1       2.497  -5.289  25.900  0.00  0.00    +0.048 C 
ATOM     14  C   UNL     1       2.383  -5.644  24.451  0.00  0.00    +0.048 C 
BRANCH  12  15
ATOM     15  C   UNL     1       4.568  -6.791  25.167  0.00  0.00    +0.329 C 
ATOM     16  O   UNL     1       5.202  -7.128  26.150  0.00  0.00    -0.249 OA
BRANCH  15  17
ATOM     17  O   UNL     1       4.528  -7.513  24.012  0.00  0.00    -0.479 OA
ATOM     18  H   UNL     1       5.088  -7.086  23.314  0.00  0.00    +0.295 HD
ENDBRANCH  15  17
ENDBRANCH  12  15
BRANCH  13  19
ATOM     19  C   UNL     1       1.904  -6.237  26.859  0.00  0.00    -0.028 C 
ATOM     20  C   UNL     1       2.149  -6.229  28.179  0.00  0.00    +0.004 C 
ENDBRANCH  13  19
ENDBRANCH   9  12
ENDBRANCH   6   8
BRANCH   1  21
ATOM     21  O   UNL     1       7.839  -0.506  22.571  0.00  0.00    -0.486 OA
BRANCH  21  24
ATOM     22  C   UNL     1       6.077   2.473  23.370  0.00  0.00    +0.094 A 
ATOM     23  C   UNL     1       6.412   1.191  22.983  0.00  0.00    +0.076 A 
ATOM     24  C   UNL     1       7.754   0.834  22.820  0.00  0.00    +0.132 A 
ATOM     25  C   UNL     1       8.744   1.845  22.954  0.00  0.00    +0.043 A 
ATOM     26  C   UNL     1      10.104   1.757  22.560  0.00  0.00    +0.017 A 
ATOM     27  C   UNL     1      11.034   2.768  22.866  0.00  0.00    +0.047 A 
ATOM     28  C   UNL     1      10.638   3.883  23.595  0.00  0.00    +0.136 A 
ATOM     29  C   UNL     1       9.272   4.045  23.865  0.00  0.00    +0.085 A 
ATOM     30 BR   UNL     1       8.692   5.636  24.783  0.00  0.00    -0.044 Br
ATOM     31  C   UNL     1       8.314   3.085  23.505  0.00  0.00    +0.093 A 
ATOM     32  N   UNL     1       7.012   3.380  23.689  0.00  0.00    -0.244 NA
BRANCH  22  39
ATOM     33  C   UNL     1       1.878   2.214  26.480  0.00  0.00    +0.221 C 
ATOM     34  N   UNL     1       1.695   2.957  25.328  0.00  0.00    -0.264 N 
ATOM     35  H   UNL     1       0.792   3.321  25.061  0.00  0.00    +0.157 HD
ATOM     36  C   UNL     1       2.719   3.069  24.425  0.00  0.00    +0.165 A 
ATOM     37  S   UNL     1       2.330   3.719  22.902  0.00  0.00    -0.060 S 
ATOM     38  C   UNL     1       3.946   3.401  22.382  0.00  0.00    +0.078 A 
ATOM     39  C   UNL     1       4.681   2.885  23.435  0.00  0.00    +0.098 A 
ATOM     40  N   UNL     1       3.964   2.722  24.603  0.00  0.00    -0.223 NA
ATOM     41  O   UNL     1       2.879   1.580  26.772  0.00  0.00    -0.275 OA
BRANCH  33  43
ATOM     42  C   UNL     1       0.881   1.239  28.552  0.00  0.00    +0.017 C 
ATOM     43  C   UNL     1       0.663   2.230  27.408  0.00  0.00    +0.069 C 
ATOM     44  C   UNL     1       0.446   3.636  27.959  0.00  0.00    +0.017 C 
ENDBRANCH  33  43
ENDBRANCH  22  39
BRANCH  28  45
ATOM     45  O   UNL     1      11.476   4.879  24.020  0.00  0.00    -0.494 OA
ATOM     46  C   UNL     1      12.610   5.192  23.224  0.00  0.00    +0.277 C 
ENDBRANCH  28  45
ENDBRANCH  21  24
ENDBRANCH   1  21
BRANCH   4  47
ATOM     47  C   UNL     1       5.374  -1.204  27.092  0.00  0.00    +0.168 C 
BRANCH  47  48
ATOM     48  N   UNL     1       5.355   0.262  27.033  0.00  0.00    -0.269 N 
ATOM     49  H   UNL     1       4.623   0.711  26.494  0.00  0.00    +0.153 HD
ATOM     50  C   UNL     1       6.352   1.079  27.476  0.00  0.00    +0.401 C 
ATOM     51  O   UNL     1       7.349   0.704  28.079  0.00  0.00    -0.226 OA
BRANCH  50  52
ATOM     52  O   UNL     1       6.068   2.367  27.149  0.00  0.00    -0.447 OA
BRANCH  52  53
ATOM     53  C   UNL     1       5.730   3.262  28.224  0.00  0.00    +0.178 C 
ATOM     54  C   UNL     1       4.969   2.500  29.322  0.00  0.00    +0.045 C 
ATOM     55  C   UNL     1       3.878   3.440  29.838  0.00  0.00    +0.004 C 
ATOM     56  C   UNL     1       4.108   4.768  29.133  0.00  0.00    +0.004 C 
ATOM     57  C   UNL     1       4.764   4.371  27.817  0.00  0.00    +0.045 C 
ENDBRANCH  52  53
ENDBRANCH  50  52
ENDBRANCH  47  48
BRANCH  47  58
ATOM     58  C   UNL     1       4.380  -1.838  28.138  0.00  0.00    -0.011 C 
ATOM     59  C   UNL     1       4.655  -3.347  28.335  0.00  0.00    +0.013 C 
ATOM     60  C   UNL     1       2.928  -1.745  27.601  0.00  0.00    +0.013 C 
ATOM     61  C   UNL     1       4.454  -1.148  29.521  0.00  0.00    +0.013 C 
ENDBRANCH  47  58
ENDBRANCH   4  47
TORSDOF 15
ENDMDL
MODEL 3
REMARK VINA RESULT:      -5.3      1.915      5.669
REMARK  Name = 
REMARK  21 active torsions:
REMARK  status: ('A' for Active; 'I' for Inactive)
REMARK    1  A    between atoms: C_1  and  C_2
REMARK    2  A    between atoms: C_2  and  C_3
REMARK    3  A    between atoms: C_2  and  C_4
REMARK    4  A    between atoms: C_9  and  C_12
REMARK    5  A    between atoms: C_18  and  O_21
REMARK    6  A    between atoms: O_21  and  C_22
REMARK    7  A    between atoms: C_23  and  O_25
REMARK    8  A    between atoms: O_25  and  C_26
REMARK    9  A    between atoms: C_29  and  C_50
REMARK   10  A    between atoms: C_33  and  C_35
REMARK   11  A    between atoms: C_35  and  C_37
REMARK   12  A    between atoms: C_35  and  N_41
REMARK   13  A    between atoms: C_37  and  C_38
REMARK   14  A    between atoms: C_37  and  C_39
REMARK   15  A    between atoms: C_37  and  C_40
REMARK   16  A    between atoms: C_42  and  O_44
REMARK   17  A    between atoms: O_44  and  C_45
REMARK   18  A    between atoms: N_52  and  C_53
REMARK   19  A    between atoms: C_53  and  C_59
REMARK   20  A    between atoms: C_55  and  C_57
REMARK   21  A    between atoms: C_59  and  O_61
REMARK                            x       y       z     vdW  Elec       q    Type
REMARK                         _______ _______ _______ _____ _____    ______ ____
ROOT
ATOM      1  C   UNL     1       4.954  -0.220  28.362  0.00  0.00    +0.193 C 
ATOM      2  C   UNL     1       4.424  -1.642  28.587  0.00  0.00    +0.153 C 
ATOM      3  N   UNL     1       4.866  -2.448  27.447  0.00  0.00    -0.285 N 
ATOM      4  C   UNL     1       4.199  -3.578  27.017  0.00  0.00    +0.237 C 
ATOM      5  O   UNL     1       4.223  -3.896  25.822  0.00  0.00    -0.274 OA
ATOM      6  C   UNL     1       5.660  -1.646  26.512  0.00  0.00    +0.166 C 
ATOM      7  C   UNL     1       6.145  -0.490  27.406  0.00  0.00    +0.078 C 
ENDROOT
BRANCH   6   8
ATOM      8  C   UNL     1       6.834  -2.447  25.846  0.00  0.00    +0.235 C 
ATOM      9  N   UNL     1       6.535  -2.929  24.577  0.00  0.00    -0.298 N 
ATOM     10  H   UNL     1       5.552  -3.177  24.445  0.00  0.00    +0.150 HD
ATOM     11  O   UNL     1       7.896  -2.726  26.404  0.00  0.00    -0.274 OA
BRANCH   9  12
ATOM     12  C   UNL     1       7.480  -3.703  23.752  0.00  0.00    +0.138 C 
ATOM     13  C   UNL     1       6.963  -4.122  22.368  0.00  0.00    +0.048 C 
ATOM     14  C   UNL     1       8.030  -3.080  22.474  0.00  0.00    +0.048 C 
BRANCH  12  15
ATOM     15  C   UNL     1       8.448  -4.559  24.533  0.00  0.00    +0.329 C 
ATOM     16  O   UNL     1       8.136  -5.572  25.131  0.00  0.00    -0.249 OA
BRANCH  15  17
ATOM     17  O   UNL     1       9.712  -4.050  24.523  0.00  0.00    -0.479 OA
ATOM     18  H   UNL     1       9.794  -3.310  25.177  0.00  0.00    +0.295 HD
ENDBRANCH  15  17
ENDBRANCH  12  15
BRANCH  13  19
ATOM     19  C   UNL     1       7.316  -5.355  21.643  0.00  0.00    -0.028 C 
ATOM     20  C   UNL     1       6.731  -6.546  21.848  0.00  0.00    +0.004 C 
ENDBRANCH  13  19
ENDBRANCH   9  12
ENDBRANCH   6   8
BRANCH   1  21
ATOM     21  O   UNL     1       4.092   0.696  27.687  0.00  0.00    -0.486 OA
BRANCH  21  24
ATOM     22  C   UNL     1       5.536   3.103  25.510  0.00  0.00    +0.094 A 
ATOM     23  C   UNL     1       5.226   1.940  26.186  0.00  0.00    +0.076 A 
ATOM     24  C   UNL     1       4.350   1.973  27.275  0.00  0.00    +0.132 A 
ATOM     25  C   UNL     1       3.883   3.235  27.731  0.00  0.00    +0.043 A 
ATOM     26  C   UNL     1       3.231   3.504  28.961  0.00  0.00    +0.017 A 
ATOM     27  C   UNL     1       2.684   4.768  29.253  0.00  0.00    +0.047 A 
ATOM     28  C   UNL     1       2.751   5.791  28.314  0.00  0.00    +0.136 A 
ATOM     29  C   UNL     1       3.515   5.578  27.158  0.00  0.00    +0.085 A 
ATOM     30 BR   UNL     1       3.705   7.020  25.895  0.00  0.00    -0.044 Br
ATOM     31  C   UNL     1       4.131   4.348  26.879  0.00  0.00    +0.093 A 
ATOM     32  N   UNL     1       4.949   4.271  25.810  0.00  0.00    -0.244 NA
BRANCH  22  39
ATOM     33  C   UNL     1      10.059   5.341  24.133  0.00  0.00    +0.221 C 
ATOM     34  N   UNL     1       9.617   4.357  23.266  0.00  0.00    -0.264 N 
ATOM     35  H   UNL     1      10.075   4.172  22.386  0.00  0.00    +0.157 HD
ATOM     36  C   UNL     1       8.428   3.723  23.512  0.00  0.00    +0.165 A 
ATOM     37  S   UNL     1       7.797   2.767  22.256  0.00  0.00    -0.060 S 
ATOM     38  C   UNL     1       6.383   2.494  23.210  0.00  0.00    +0.078 A 
ATOM     39  C   UNL     1       6.532   3.098  24.446  0.00  0.00    +0.098 A 
ATOM     40  N   UNL     1       7.721   3.781  24.607  0.00  0.00    -0.223 NA
ATOM     41  O   UNL     1       9.459   5.758  25.109  0.00  0.00    -0.275 OA
BRANCH  33  43
ATOM     42  C   UNL     1      12.073   6.552  24.980  0.00  0.00    +0.017 C 
ATOM     43  C   UNL     1      11.426   5.913  23.750  0.00  0.00    +0.069 C 
ATOM     44  C   UNL     1      12.318   4.807  23.195  0.00  0.00    +0.017 C 
ENDBRANCH  33  43
ENDBRANCH  22  39
BRANCH  28  45
ATOM     45  O   UNL     1       2.179   7.026  28.460  0.00  0.00    -0.494 OA
ATOM     46  C   UNL     1       0.764   7.107  28.555  0.00  0.00    +0.277 C 
ENDBRANCH  28  45
ENDBRANCH  21  24
ENDBRANCH   1  21
BRANCH   4  47
ATOM     47  C   UNL     1       3.461  -4.446  28.085  0.00  0.00    +0.168 C 
BRANCH  47  48
ATOM     48  N   UNL     1       2.471  -5.232  27.339  0.00  0.00    -0.269 N 
ATOM     49  H   UNL     1       2.782  -6.077  26.874  0.00  0.00    +0.153 HD
ATOM     50  C   UNL     1       1.204  -4.825  27.047  0.00  0.00    +0.401 C 
ATOM     51  O   UNL     1       0.687  -3.796  27.458  0.00  0.00    -0.226 OA
BRANCH  50  52
ATOM     52  O   UNL     1       0.606  -5.737  26.234  0.00  0.00    -0.447 OA
BRANCH  52  53
ATOM     53  C   UNL     1       1.407  -6.311  25.186  0.00  0.00    +0.178 C 
ATOM     54  C   UNL     1       0.814  -5.948  23.814  0.00  0.00    +0.045 C 
ATOM     55  C   UNL     1       0.967  -7.184  22.925  0.00  0.00    +0.004 C 
ATOM     56  C   UNL     1       1.762  -8.188  23.746  0.00  0.00    +0.004 C 
ATOM     57  C   UNL     1       1.413  -7.837  25.186  0.00  0.00    +0.045 C 
ENDBRANCH  52  53
ENDBRANCH  50  52
ENDBRANCH  47  48
BRANCH  47  58
ATOM     58  C   UNL     1       4.494  -5.299  28.916  0.00  0.00    -0.011 C 
ATOM     59  C   UNL     1       5.885  -5.313  28.241  0.00  0.00    +0.013 C 
ATOM     60  C   UNL     1       4.035  -6.780  28.956  0.00  0.00    +0.013 C 
ATOM     61  C   UNL     1       4.663  -4.781  30.364  0.00  0.00    +0.013 C 
ENDBRANCH  47  58
ENDBRANCH   4  47
TORSDOF 15
ENDMDL
MODEL 4
REMARK VINA RESULT:      -5.3      2.969      6.641
REMARK  Name = 
REMARK  21 active torsions:
REMARK  status: ('A' for Active; 'I' for Inactive)
REMARK    1  A    between atoms: C_1  and  C_2
REMARK    2  A    between atoms: C_2  and  C_3
REMARK    3  A    between atoms: C_2  and  C_4
REMARK    4  A    between atoms: C_9  and  C_12
REMARK    5  A    between atoms: C_18  and  O_21
REMARK    6  A    between atoms: O_21  and  C_22
REMARK    7  A    between atoms: C_23  and  O_25
REMARK    8  A    between atoms: O_25  and  C_26
REMARK    9  A    between atoms: C_29  and  C_50
REMARK   10  A    between atoms: C_33  and  C_35
REMARK   11  A    between atoms: C_35  and  C_37
REMARK   12  A    between atoms: C_35  and  N_41
REMARK   13  A    between atoms: C_37  and  C_38
REMARK   14  A    between atoms: C_37  and  C_39
REMARK   15  A    between atoms: C_37  and  C_40
REMARK   16  A    between atoms: C_42  and  O_44
REMARK   17  A    between atoms: O_44  and  C_45
REMARK   18  A    between atoms: N_52  and  C_53
REMARK   19  A    between atoms: C_53  and  C_59
REMARK   20  A    between atoms: C_55  and  C_57
REMARK   21  A    between atoms: C_59  and  O_61
REMARK                            x       y       z     vdW  Elec       q    Type
REMARK                         _______ _______ _______ _____ _____    ______ ____
ROOT
ATOM      1  C   UNL     1       7.940  -1.485  24.516  0.00  0.00    +0.193 C 
ATOM      2  C   UNL     1       7.314  -1.126  25.871  0.00  0.00    +0.153 C 
ATOM      3  N   UNL     1       5.936  -1.621  25.850  0.00  0.00    -0.285 N 
ATOM      4  C   UNL     1       4.925  -1.074  26.614  0.00  0.00    +0.237 C 
ATOM      5  O   UNL     1       3.758  -1.098  26.207  0.00  0.00    -0.274 OA
ATOM      6  C   UNL     1       5.638  -2.291  24.581  0.00  0.00    +0.166 C 
ATOM      7  C   UNL     1       7.042  -2.670  24.074  0.00  0.00    +0.078 C 
ENDROOT
BRANCH   6   8
ATOM      8  C   UNL     1       4.684  -3.527  24.739  0.00  0.00    +0.235 C 
ATOM      9  N   UNL     1       4.894  -4.251  25.907  0.00  0.00    -0.298 N 
ATOM     10  H   UNL     1       5.865  -4.258  26.226  0.00  0.00    +0.150 HD
ATOM     11  O   UNL     1       3.882  -3.907  23.885  0.00  0.00    -0.274 OA
BRANCH   9  12
ATOM     12  C   UNL     1       4.117  -5.448  26.279  0.00  0.00    +0.138 C 
ATOM     13  C   UNL     1       4.323  -6.678  25.382  0.00  0.00    +0.048 C 
ATOM     14  C   UNL     1       4.856  -6.684  26.780  0.00  0.00    +0.048 C 
BRANCH  12  15
ATOM     15  C   UNL     1       2.793  -5.161  26.946  0.00  0.00    +0.329 C 
ATOM     16  O   UNL     1       2.533  -5.450  28.100  0.00  0.00    -0.249 OA
BRANCH  15  17
ATOM     17  O   UNL     1       1.905  -4.571  26.099  0.00  0.00    -0.479 OA
ATOM     18  H   UNL     1       1.369  -3.888  26.577  0.00  0.00    +0.295 HD
ENDBRANCH  15  17
ENDBRANCH  12  15
BRANCH  13  19
ATOM     19  C   UNL     1       3.311  -7.698  25.058  0.00  0.00    -0.028 C 
ATOM     20  C   UNL     1       2.454  -7.612  24.028  0.00  0.00    +0.004 C 
ENDBRANCH  13  19
ENDBRANCH   9  12
ENDBRANCH   6   8
BRANCH   1  21
ATOM     21  O   UNL     1       7.857  -0.505  23.482  0.00  0.00    -0.486 OA
BRANCH  21  24
ATOM     22  C   UNL     1       5.984   2.438  24.153  0.00  0.00    +0.094 A 
ATOM     23  C   UNL     1       6.365   1.141  23.871  0.00  0.00    +0.076 A 
ATOM     24  C   UNL     1       7.703   0.848  23.592  0.00  0.00    +0.132 A 
ATOM     25  C   UNL     1       8.628   1.924  23.499  0.00  0.00    +0.043 A 
ATOM     26  C   UNL     1       9.939   1.871  22.960  0.00  0.00    +0.017 A 
ATOM     27  C   UNL     1      10.822   2.964  23.044  0.00  0.00    +0.047 A 
ATOM     28  C   UNL     1      10.429   4.131  23.688  0.00  0.00    +0.136 A 
ATOM     29  C   UNL     1       9.092   4.242  24.096  0.00  0.00    +0.085 A 
ATOM     30 BR   UNL     1       8.503   5.892  24.897  0.00  0.00    -0.044 Br
ATOM     31  C   UNL     1       8.172   3.192  23.958  0.00  0.00    +0.093 A 
ATOM     32  N   UNL     1       6.881   3.429  24.259  0.00  0.00    -0.244 NA
BRANCH  22  39
ATOM     33  C   UNL     1       1.840   4.249  21.523  0.00  0.00    +0.221 C 
ATOM     34  N   UNL     1       1.578   3.893  22.834  0.00  0.00    -0.264 N 
ATOM     35  H   UNL     1       0.688   4.076  23.272  0.00  0.00    +0.157 HD
ATOM     36  C   UNL     1       2.596   3.433  23.626  0.00  0.00    +0.165 A 
ATOM     37  S   UNL     1       2.277   3.320  25.293  0.00  0.00    -0.060 S 
ATOM     38  C   UNL     1       3.925   2.869  25.551  0.00  0.00    +0.078 A 
ATOM     39  C   UNL     1       4.577   2.772  24.334  0.00  0.00    +0.098 A 
ATOM     40  N   UNL     1       3.792   3.079  23.242  0.00  0.00    -0.223 NA
ATOM     41  O   UNL     1       2.934   4.243  20.984  0.00  0.00    -0.275 OA
BRANCH  33  43
ATOM     42  C   UNL     1       0.443   6.210  20.858  0.00  0.00    +0.017 C 
ATOM     43  C   UNL     1       0.592   4.691  20.757  0.00  0.00    +0.069 C 
ATOM     44  C   UNL     1       0.697   4.264  19.296  0.00  0.00    +0.017 C 
ENDBRANCH  33  43
ENDBRANCH  22  39
BRANCH  28  45
ATOM     45  O   UNL     1      11.235   5.217  23.901  0.00  0.00    -0.494 OA
ATOM     46  C   UNL     1      12.532   5.218  23.323  0.00  0.00    +0.277 C 
ENDBRANCH  28  45
ENDBRANCH  21  24
ENDBRANCH   1  21
BRANCH   4  47
ATOM     47  C   UNL     1       5.300  -0.471  28.005  0.00  0.00    +0.168 C 
BRANCH  47  48
ATOM     48  N   UNL     1       5.551   0.954  27.764  0.00  0.00    -0.269 N 
ATOM     49  H   UNL     1       4.969   1.436  27.088  0.00  0.00    +0.153 HD
ATOM     50  C   UNL     1       6.630   1.650  28.221  0.00  0.00    +0.401 C 
ATOM     51  O   UNL     1       7.478   1.205  28.983  0.00  0.00    -0.226 OA
BRANCH  50  52
ATOM     52  O   UNL     1       6.617   2.907  27.705  0.00  0.00    -0.447 OA
BRANCH  52  53
ATOM     53  C   UNL     1       6.441   3.997  28.627  0.00  0.00    +0.178 C 
ATOM     54  C   UNL     1       4.945   4.206  28.915  0.00  0.00    +0.045 C 
ATOM     55  C   UNL     1       4.716   5.716  28.999  0.00  0.00    +0.004 C 
ATOM     56  C   UNL     1       6.095   6.350  28.894  0.00  0.00    +0.004 C 
ATOM     57  C   UNL     1       6.894   5.346  28.075  0.00  0.00    +0.045 C 
ENDBRANCH  52  53
ENDBRANCH  50  52
ENDBRANCH  47  48
BRANCH  47  58
ATOM     58  C   UNL     1       4.171  -0.774  29.063  0.00  0.00    -0.011 C 
ATOM     59  C   UNL     1       2.866  -0.014  28.728  0.00  0.00    +0.013 C 
ATOM     60  C   UNL     1       4.609  -0.257  30.457  0.00  0.00    +0.013 C 
ATOM     61  C   UNL     1       3.840  -2.282  29.163  0.00  0.00    +0.013 C 
ENDBRANCH  47  58
ENDBRANCH   4  47
TORSDOF 15
ENDMDL
MODEL 5
REMARK VINA RESULT:      -5.0      3.106      6.935
REMARK  Name = 
REMARK  21 active torsions:
REMARK  status: ('A' for Active; 'I' for Inactive)
REMARK    1  A    between atoms: C_1  and  C_2
REMARK    2  A    between atoms: C_2  and  C_3
REMARK    3  A    between atoms: C_2  and  C_4
REMARK    4  A    between atoms: C_9  and  C_12
REMARK    5  A    between atoms: C_18  and  O_21
REMARK    6  A    between atoms: O_21  and  C_22
REMARK    7  A    between atoms: C_23  and  O_25
REMARK    8  A    between atoms: O_25  and  C_26
REMARK    9  A    between atoms: C_29  and  C_50
REMARK   10  A    between atoms: C_33  and  C_35
REMARK   11  A    between atoms: C_35  and  C_37
REMARK   12  A    between atoms: C_35  and  N_41
REMARK   13  A    between atoms: C_37  and  C_38
REMARK   14  A    between atoms: C_37  and  C_39
REMARK   15  A    between atoms: C_37  and  C_40
REMARK   16  A    between atoms: C_42  and  O_44
REMARK   17  A    between atoms: O_44  and  C_45
REMARK   18  A    between atoms: N_52  and  C_53
REMARK   19  A    between atoms: C_53  and  C_59
REMARK   20  A    between atoms: C_55  and  C_57
REMARK   21  A    between atoms: C_59  and  O_61
REMARK                            x       y       z     vdW  Elec       q    Type
REMARK                         _______ _______ _______ _____ _____    ______ ____
ROOT
ATOM      1  C   UNL     1       7.104  -0.927  24.170  0.00  0.00    +0.193 C 
ATOM      2  C   UNL     1       6.469  -0.954  25.567  0.00  0.00    +0.153 C 
ATOM      3  N   UNL     1       5.262  -1.778  25.472  0.00  0.00    -0.285 N 
ATOM      4  C   UNL     1       4.180  -1.633  26.317  0.00  0.00    +0.237 C 
ATOM      5  O   UNL     1       3.041  -1.894  25.916  0.00  0.00    -0.274 OA
ATOM      6  C   UNL     1       5.086  -2.298  24.113  0.00  0.00    +0.166 C 
ATOM      7  C   UNL     1       6.517  -2.220  23.547  0.00  0.00    +0.078 C 
ENDROOT
BRANCH   6   8
ATOM      8  C   UNL     1       4.485  -3.747  24.074  0.00  0.00    +0.235 C 
ATOM      9  N   UNL     1       4.195  -4.267  25.331  0.00  0.00    -0.298 N 
ATOM     10  H   UNL     1       4.825  -3.949  26.070  0.00  0.00    +0.150 HD
ATOM     11  O   UNL     1       4.361  -4.427  23.055  0.00  0.00    -0.274 OA
BRANCH   9  12
ATOM     12  C   UNL     1       3.617  -5.606  25.549  0.00  0.00    +0.138 C 
ATOM     13  C   UNL     1       2.426  -5.665  26.516  0.00  0.00    +0.048 C 
ATOM     14  C   UNL     1       2.203  -5.892  25.054  0.00  0.00    +0.048 C 
BRANCH  12  15
ATOM     15  C   UNL     1       4.598  -6.747  25.423  0.00  0.00    +0.329 C 
ATOM     16  O   UNL     1       4.535  -7.611  24.568  0.00  0.00    -0.249 OA
BRANCH  15  17
ATOM     17  O   UNL     1       5.548  -6.722  26.400  0.00  0.00    -0.479 OA
ATOM     18  H   UNL     1       5.979  -7.610  26.488  0.00  0.00    +0.295 HD
ENDBRANCH  15  17
ENDBRANCH  12  15
BRANCH  13  19
ATOM     19  C   UNL     1       2.088  -6.782  27.415  0.00  0.00    -0.028 C 
ATOM     20  C   UNL     1       1.093  -7.655  27.195  0.00  0.00    +0.004 C 
ENDBRANCH  13  19
ENDBRANCH   9  12
ENDBRANCH   6   8
BRANCH   1  21
ATOM     21  O   UNL     1       6.730   0.146  23.307  0.00  0.00    -0.486 OA
BRANCH  21  24
ATOM     22  C   UNL     1       6.091   3.606  23.799  0.00  0.00    +0.094 A 
ATOM     23  C   UNL     1       5.961   2.249  23.577  0.00  0.00    +0.076 A 
ATOM     24  C   UNL     1       7.096   1.461  23.363  0.00  0.00    +0.132 A 
ATOM     25  C   UNL     1       8.360   2.104  23.270  0.00  0.00    +0.043 A 
ATOM     26  C   UNL     1       9.567   1.536  22.788  0.00  0.00    +0.017 A 
ATOM     27  C   UNL     1      10.795   2.220  22.869  0.00  0.00    +0.047 A 
ATOM     28  C   UNL     1      10.856   3.477  23.456  0.00  0.00    +0.136 A 
ATOM     29  C   UNL     1       9.651   4.103  23.805  0.00  0.00    +0.085 A 
ATOM     30 BR   UNL     1       9.710   5.889  24.523  0.00  0.00    -0.044 Br
ATOM     31  C   UNL     1       8.406   3.471  23.666  0.00  0.00    +0.093 A 
ATOM     32  N   UNL     1       7.293   4.191  23.906  0.00  0.00    -0.244 NA
BRANCH  22  39
ATOM     33  C   UNL     1       1.846   5.080  21.120  0.00  0.00    +0.221 C 
ATOM     34  N   UNL     1       1.918   5.584  22.406  0.00  0.00    -0.264 N 
ATOM     35  H   UNL     1       1.262   6.269  22.752  0.00  0.00    +0.157 HD
ATOM     36  C   UNL     1       3.002   5.288  23.190  0.00  0.00    +0.165 A 
ATOM     37  S   UNL     1       3.180   6.187  24.622  0.00  0.00    -0.060 S 
ATOM     38  C   UNL     1       4.690   5.396  24.900  0.00  0.00    +0.078 A 
ATOM     39  C   UNL     1       4.911   4.453  23.912  0.00  0.00    +0.098 A 
ATOM     40  N   UNL     1       3.921   4.393  22.952  0.00  0.00    -0.223 NA
ATOM     41  O   UNL     1       2.701   4.409  20.565  0.00  0.00    -0.275 OA
BRANCH  33  43
ATOM     42  C   UNL     1       0.443   6.981  20.308  0.00  0.00    +0.017 C 
ATOM     43  C   UNL     1       0.553   5.457  20.396  0.00  0.00    +0.069 C 
ATOM     44  C   UNL     1       0.538   4.843  19.000  0.00  0.00    +0.017 C 
ENDBRANCH  33  43
ENDBRANCH  22  39
BRANCH  28  45
ATOM     45  O   UNL     1      12.008   4.189  23.663  0.00  0.00    -0.494 OA
ATOM     46  C   UNL     1      12.458   5.058  22.634  0.00  0.00    +0.277 C 
ENDBRANCH  28  45
ENDBRANCH  21  24
ENDBRANCH   1  21
BRANCH   4  47
ATOM     47  C   UNL     1       4.452  -1.176  27.786  0.00  0.00    +0.168 C 
BRANCH  47  48
ATOM     48  N   UNL     1       3.931   0.192  27.877  0.00  0.00    -0.269 N 
ATOM     49  H   UNL     1       2.994   0.372  27.536  0.00  0.00    +0.153 HD
ATOM     50  C   UNL     1       4.668   1.293  28.197  0.00  0.00    +0.401 C 
ATOM     51  O   UNL     1       5.837   1.273  28.557  0.00  0.00    -0.226 OA
BRANCH  50  52
ATOM     52  O   UNL     1       3.906   2.410  28.060  0.00  0.00    -0.447 OA
BRANCH  52  53
ATOM     53  C   UNL     1       2.564   2.237  27.571  0.00  0.00    +0.178 C 
ATOM     54  C   UNL     1       2.507   2.553  26.067  0.00  0.00    +0.045 C 
ATOM     55  C   UNL     1       1.189   3.287  25.818  0.00  0.00    +0.004 C 
ATOM     56  C   UNL     1       0.446   3.266  27.145  0.00  0.00    +0.004 C 
ATOM     57  C   UNL     1       1.559   3.209  28.183  0.00  0.00    +0.045 C 
ENDBRANCH  52  53
ENDBRANCH  50  52
ENDBRANCH  47  48
BRANCH  47  58
ATOM     58  C   UNL     1       3.819  -2.194  28.810  0.00  0.00    -0.011 C 
ATOM     59  C   UNL     1       2.293  -2.333  28.596  0.00  0.00    +0.013 C 
ATOM     60  C   UNL     1       3.991  -1.658  30.254  0.00  0.00    +0.013 C 
ATOM     61  C   UNL     1       4.450  -3.603  28.713  0.00  0.00    +0.013 C 
ENDBRANCH  47  58
ENDBRANCH   4  47
TORSDOF 15
ENDMDL
MODEL 6
REMARK VINA RESULT:      -4.8      3.048      7.119
REMARK  Name = 
REMARK  21 active torsions:
REMARK  status: ('A' for Active; 'I' for Inactive)
REMARK    1  A    between atoms: C_1  and  C_2
REMARK    2  A    between atoms: C_2  and  C_3
REMARK    3  A    between atoms: C_2  and  C_4
REMARK    4  A    between atoms: C_9  and  C_12
REMARK    5  A    between atoms: C_18  and  O_21
REMARK    6  A    between atoms: O_21  and  C_22
REMARK    7  A    between atoms: C_23  and  O_25
REMARK    8  A    between atoms: O_25  and  C_26
REMARK    9  A    between atoms: C_29  and  C_50
REMARK   10  A    between atoms: C_33  and  C_35
REMARK   11  A    between atoms: C_35  and  C_37
REMARK   12  A    between atoms: C_35  and  N_41
REMARK   13  A    between atoms: C_37  and  C_38
REMARK   14  A    between atoms: C_37  and  C_39
REMARK   15  A    between atoms: C_37  and  C_40
REMARK   16  A    between atoms: C_42  and  O_44
REMARK   17  A    between atoms: O_44  and  C_45
REMARK   18  A    between atoms: N_52  and  C_53
REMARK   19  A    between atoms: C_53  and  C_59
REMARK   20  A    between atoms: C_55  and  C_57
REMARK   21  A    between atoms: C_59  and  O_61
REMARK                            x       y       z     vdW  Elec       q    Type
REMARK                         _______ _______ _______ _____ _____    ______ ____
ROOT
ATOM      1  C   UNL     1       8.334  -1.459  26.276  0.00  0.00    +0.193 C 
ATOM      2  C   UNL     1       7.643  -2.540  27.116  0.00  0.00    +0.153 C 
ATOM      3  N   UNL     1       6.413  -2.907  26.413  0.00  0.00    -0.285 N 
ATOM      4  C   UNL     1       5.303  -3.425  27.051  0.00  0.00    +0.237 C 
ATOM      5  O   UNL     1       4.172  -3.208  26.602  0.00  0.00    -0.274 OA
ATOM      6  C   UNL     1       6.273  -2.148  25.167  0.00  0.00    +0.166 C 
ATOM      7  C   UNL     1       7.727  -1.732  24.875  0.00  0.00    +0.078 C 
ENDROOT
BRANCH   6   8
ATOM      8  C   UNL     1       5.623  -2.977  24.003  0.00  0.00    +0.235 C 
ATOM      9  N   UNL     1       5.319  -4.289  24.351  0.00  0.00    -0.298 N 
ATOM     10  H   UNL     1       5.962  -4.700  25.031  0.00  0.00    +0.150 HD
ATOM     11  O   UNL     1       5.472  -2.568  22.851  0.00  0.00    -0.274 OA
BRANCH   9  12
ATOM     12  C   UNL     1       4.697  -5.257  23.429  0.00  0.00    +0.138 C 
ATOM     13  C   UNL     1       3.542  -6.082  24.015  0.00  0.00    +0.048 C 
ATOM     14  C   UNL     1       3.255  -5.035  22.985  0.00  0.00    +0.048 C 
BRANCH  12  15
ATOM     15  C   UNL     1       5.626  -5.819  22.380  0.00  0.00    +0.329 C 
ATOM     16  O   UNL     1       5.317  -5.990  21.215  0.00  0.00    -0.249 OA
BRANCH  15  17
ATOM     17  O   UNL     1       6.845  -6.149  22.892  0.00  0.00    -0.479 OA
ATOM     18  H   UNL     1       6.968  -7.132  22.891  0.00  0.00    +0.295 HD
ENDBRANCH  15  17
ENDBRANCH  12  15
BRANCH  13  19
ATOM     19  C   UNL     1       3.195  -7.469  23.659  0.00  0.00    -0.028 C 
ATOM     20  C   UNL     1       2.315  -8.225  24.334  0.00  0.00    +0.004 C 
ENDBRANCH  13  19
ENDBRANCH   9  12
ENDBRANCH   6   8
BRANCH   1  21
ATOM     21  O   UNL     1       8.033  -0.099  26.590  0.00  0.00    -0.486 OA
BRANCH  21  24
ATOM     22  C   UNL     1       6.102   2.504  25.135  0.00  0.00    +0.094 A 
ATOM     23  C   UNL     1       6.510   1.369  25.808  0.00  0.00    +0.076 A 
ATOM     24  C   UNL     1       7.844   0.956  25.742  0.00  0.00    +0.132 A 
ATOM     25  C   UNL     1       8.732   1.664  24.887  0.00  0.00    +0.043 A 
ATOM     26  C   UNL     1      10.021   1.245  24.470  0.00  0.00    +0.017 A 
ATOM     27  C   UNL     1      10.874   2.088  23.732  0.00  0.00    +0.047 A 
ATOM     28  C   UNL     1      10.473   3.379  23.412  0.00  0.00    +0.136 A 
ATOM     29  C   UNL     1       9.151   3.750  23.695  0.00  0.00    +0.085 A 
ATOM     30 BR   UNL     1       8.546   5.500  23.164  0.00  0.00    -0.044 Br
ATOM     31  C   UNL     1       8.258   2.901  24.366  0.00  0.00    +0.093 A 
ATOM     32  N   UNL     1       6.973   3.288  24.483  0.00  0.00    -0.244 NA
BRANCH  22  39
ATOM     33  C   UNL     1       2.244   3.638  21.790  0.00  0.00    +0.221 C 
ATOM     34  N   UNL     1       1.864   3.615  23.119  0.00  0.00    -0.264 N 
ATOM     35  H   UNL     1       0.945   3.905  23.420  0.00  0.00    +0.157 HD
ATOM     36  C   UNL     1       2.799   3.358  24.087  0.00  0.00    +0.165 A 
ATOM     37  S   UNL     1       2.338   3.658  25.696  0.00  0.00    -0.060 S 
ATOM     38  C   UNL     1       3.945   3.276  26.200  0.00  0.00    +0.078 A 
ATOM     39  C   UNL     1       4.695   2.880  25.106  0.00  0.00    +0.098 A 
ATOM     40  N   UNL     1       4.012   2.914  23.906  0.00  0.00    -0.223 NA
ATOM     41  O   UNL     1       3.379   3.495  21.367  0.00  0.00    -0.275 OA
BRANCH  33  43
ATOM     42  C   UNL     1       1.070   5.355  20.406  0.00  0.00    +0.017 C 
ATOM     43  C   UNL     1       1.077   3.886  20.832  0.00  0.00    +0.069 C 
ATOM     44  C   UNL     1       1.202   2.980  19.611  0.00  0.00    +0.017 C 
ENDBRANCH  33  43
ENDBRANCH  22  39
BRANCH  28  45
ATOM     45  O   UNL     1      11.254   4.307  22.776  0.00  0.00    -0.494 OA
ATOM     46  C   UNL     1      12.442   4.745  23.421  0.00  0.00    +0.277 C 
ENDBRANCH  28  45
ENDBRANCH  21  24
ENDBRANCH   1  21
BRANCH   4  47
ATOM     47  C   UNL     1       5.531  -4.314  28.315  0.00  0.00    +0.168 C 
BRANCH  47  48
ATOM     48  N   UNL     1       4.245  -4.335  29.020  0.00  0.00    -0.269 N 
ATOM     49  H   UNL     1       3.540  -4.995  28.713  0.00  0.00    +0.153 HD
ATOM     50  C   UNL     1       3.833  -3.407  29.931  0.00  0.00    +0.401 C 
ATOM     51  O   UNL     1       4.524  -2.493  30.360  0.00  0.00    -0.226 OA
BRANCH  50  52
ATOM     52  O   UNL     1       2.546  -3.656  30.287  0.00  0.00    -0.447 OA
BRANCH  52  53
ATOM     53  C   UNL     1       1.516  -2.941  29.580  0.00  0.00    +0.178 C 
ATOM     54  C   UNL     1       0.975  -3.802  28.428  0.00  0.00    +0.045 C 
ATOM     55  C   UNL     1       0.724  -2.859  27.250  0.00  0.00    +0.004 C 
ATOM     56  C   UNL     1       0.994  -1.458  27.777  0.00  0.00    +0.004 C 
ATOM     57  C   UNL     1       2.015  -1.677  28.885  0.00  0.00    +0.045 C 
ENDBRANCH  52  53
ENDBRANCH  50  52
ENDBRANCH  47  48
BRANCH  47  58
ATOM     58  C   UNL     1       6.083  -5.732  27.903  0.00  0.00    -0.011 C 
ATOM     59  C   UNL     1       5.006  -6.565  27.169  0.00  0.00    +0.013 C 
ATOM     60  C   UNL     1       6.442  -6.542  29.176  0.00  0.00    +0.013 C 
ATOM     61  C   UNL     1       7.330  -5.642  26.991  0.00  0.00    +0.013 C 
ENDBRANCH  47  58
ENDBRANCH   4  47
TORSDOF 15
ENDMDL
MODEL 7
REMARK VINA RESULT:      -4.6      3.343      9.454
REMARK  Name = 
REMARK  21 active torsions:
REMARK  status: ('A' for Active; 'I' for Inactive)
REMARK    1  A    between atoms: C_1  and  C_2
REMARK    2  A    between atoms: C_2  and  C_3
REMARK    3  A    between atoms: C_2  and  C_4
REMARK    4  A    between atoms: C_9  and  C_12
REMARK    5  A    between atoms: C_18  and  O_21
REMARK    6  A    between atoms: O_21  and  C_22
REMARK    7  A    between atoms: C_23  and  O_25
REMARK    8  A    between atoms: O_25  and  C_26
REMARK    9  A    between atoms: C_29  and  C_50
REMARK   10  A    between atoms: C_33  and  C_35
REMARK   11  A    between atoms: C_35  and  C_37
REMARK   12  A    between atoms: C_35  and  N_41
REMARK   13  A    between atoms: C_37  and  C_38
REMARK   14  A    between atoms: C_37  and  C_39
REMARK   15  A    between atoms: C_37  and  C_40
REMARK   16  A    between atoms: C_42  and  O_44
REMARK   17  A    between atoms: O_44  and  C_45
REMARK   18  A    between atoms: N_52  and  C_53
REMARK   19  A    between atoms: C_53  and  C_59
REMARK   20  A    between atoms: C_55  and  C_57
REMARK   21  A    between atoms: C_59  and  O_61
REMARK                            x       y       z     vdW  Elec       q    Type
REMARK                         _______ _______ _______ _____ _____    ______ ____
ROOT
ATOM      1  C   UNL     1       4.095   0.690  26.849  0.00  0.00    +0.193 C 
ATOM      2  C   UNL     1       4.091   2.175  27.233  0.00  0.00    +0.153 C 
ATOM      3  N   UNL     1       5.456   2.670  27.045  0.00  0.00    -0.285 N 
ATOM      4  C   UNL     1       5.971   3.747  27.738  0.00  0.00    +0.237 C 
ATOM      5  O   UNL     1       7.180   3.800  27.992  0.00  0.00    -0.274 OA
ATOM      6  C   UNL     1       6.336   1.608  26.548  0.00  0.00    +0.166 C 
ATOM      7  C   UNL     1       5.334   0.624  25.918  0.00  0.00    +0.078 C 
ENDROOT
BRANCH   6   8
ATOM      8  C   UNL     1       7.419   2.121  25.535  0.00  0.00    +0.235 C 
ATOM      9  N   UNL     1       7.050   3.279  24.859  0.00  0.00    -0.298 N 
ATOM     10  H   UNL     1       6.047   3.359  24.684  0.00  0.00    +0.150 HD
ATOM     11  O   UNL     1       8.463   1.526  25.265  0.00  0.00    -0.274 OA
BRANCH   9  12
ATOM     12  C   UNL     1       7.905   3.953  23.864  0.00  0.00    +0.138 C 
ATOM     13  C   UNL     1       7.772   5.482  23.802  0.00  0.00    +0.048 C 
ATOM     14  C   UNL     1       9.023   4.869  24.347  0.00  0.00    +0.048 C 
BRANCH  12  15
ATOM     15  C   UNL     1       8.215   3.130  22.637  0.00  0.00    +0.329 C 
ATOM     16  O   UNL     1       7.391   2.818  21.797  0.00  0.00    -0.249 OA
BRANCH  15  17
ATOM     17  O   UNL     1       9.521   2.744  22.590  0.00  0.00    -0.479 OA
ATOM     18  H   UNL     1      10.000   3.036  23.408  0.00  0.00    +0.295 HD
ENDBRANCH  15  17
ENDBRANCH  12  15
BRANCH  13  19
ATOM     19  C   UNL     1       7.918   6.321  22.600  0.00  0.00    -0.028 C 
ATOM     20  C   UNL     1       6.890   6.773  21.864  0.00  0.00    +0.004 C 
ENDBRANCH  13  19
ENDBRANCH   9  12
ENDBRANCH   6   8
BRANCH   1  21
ATOM     21  O   UNL     1       4.325  -0.252  27.897  0.00  0.00    -0.486 OA
BRANCH  21  24
ATOM     22  C   UNL     1       5.906  -3.334  27.109  0.00  0.00    +0.094 A 
ATOM     23  C   UNL     1       5.561  -1.999  27.185  0.00  0.00    +0.076 A 
ATOM     24  C   UNL     1       4.381  -1.615  27.828  0.00  0.00    +0.132 A 
ATOM     25  C   UNL     1       3.503  -2.631  28.297  0.00  0.00    +0.043 A 
ATOM     26  C   UNL     1       2.157  -2.463  28.712  0.00  0.00    +0.017 A 
ATOM     27  C   UNL     1       1.421  -3.514  29.290  0.00  0.00    +0.047 A 
ATOM     28  C   UNL     1       2.014  -4.753  29.492  0.00  0.00    +0.136 A 
ATOM     29  C   UNL     1       3.292  -4.969  28.957  0.00  0.00    +0.085 A 
ATOM     30 BR   UNL     1       4.088  -6.714  29.135  0.00  0.00    -0.044 Br
ATOM     31  C   UNL     1       4.019  -3.957  28.311  0.00  0.00    +0.093 A 
ATOM     32  N   UNL     1       5.183  -4.285  27.717  0.00  0.00    -0.244 NA
BRANCH  22  39
ATOM     33  C   UNL     1       8.802  -1.950  22.977  0.00  0.00    +0.221 C 
ATOM     34  N   UNL     1       9.273  -3.052  23.666  0.00  0.00    -0.264 N 
ATOM     35  H   UNL     1      10.047  -3.606  23.328  0.00  0.00    +0.157 HD
ATOM     36  C   UNL     1       8.578  -3.523  24.749  0.00  0.00    +0.165 A 
ATOM     37  S   UNL     1       9.030  -5.050  25.345  0.00  0.00    -0.060 S 
ATOM     38  C   UNL     1       7.718  -4.972  26.465  0.00  0.00    +0.078 A 
ATOM     39  C   UNL     1       7.075  -3.753  26.346  0.00  0.00    +0.098 A 
ATOM     40  N   UNL     1       7.597  -2.928  25.369  0.00  0.00    -0.223 NA
ATOM     41  O   UNL     1       7.764  -1.351  23.208  0.00  0.00    -0.275 OA
BRANCH  33  43
ATOM     42  C   UNL     1       9.171  -0.237  21.198  0.00  0.00    +0.017 C 
ATOM     43  C   UNL     1       9.717  -1.518  21.830  0.00  0.00    +0.069 C 
ATOM     44  C   UNL     1      11.133  -1.291  22.349  0.00  0.00    +0.017 C 
ENDBRANCH  33  43
ENDBRANCH  22  39
BRANCH  28  45
ATOM     45  O   UNL     1       1.419  -5.814  30.121  0.00  0.00    -0.494 OA
ATOM     46  C   UNL     1       0.467  -6.581  29.397  0.00  0.00    +0.277 C 
ENDBRANCH  28  45
ENDBRANCH  21  24
ENDBRANCH   1  21
BRANCH   4  47
ATOM     47  C   UNL     1       4.994   4.895  28.145  0.00  0.00    +0.168 C 
BRANCH  47  48
ATOM     48  N   UNL     1       3.907   4.855  27.160  0.00  0.00    -0.269 N 
ATOM     49  H   UNL     1       3.386   3.992  27.056  0.00  0.00    +0.153 HD
ATOM     50  C   UNL     1       3.658   5.816  26.226  0.00  0.00    +0.401 C 
ATOM     51  O   UNL     1       4.241   6.889  26.152  0.00  0.00    -0.226 OA
BRANCH  50  52
ATOM     52  O   UNL     1       2.666   5.400  25.395  0.00  0.00    -0.447 OA
BRANCH  52  53
ATOM     53  C   UNL     1       3.009   4.428  24.392  0.00  0.00    +0.178 C 
ATOM     54  C   UNL     1       3.757   5.109  23.234  0.00  0.00    +0.045 C 
ATOM     55  C   UNL     1       3.265   4.453  21.942  0.00  0.00    +0.004 C 
ATOM     56  C   UNL     1       2.349   3.320  22.377  0.00  0.00    +0.004 C 
ATOM     57  C   UNL     1       1.798   3.791  23.716  0.00  0.00    +0.045 C 
ENDBRANCH  52  53
ENDBRANCH  50  52
ENDBRANCH  47  48
BRANCH  47  58
ATOM     58  C   UNL     1       4.535   4.729  29.644  0.00  0.00    -0.011 C 
ATOM     59  C   UNL     1       2.994   4.772  29.770  0.00  0.00    +0.013 C 
ATOM     60  C   UNL     1       5.057   5.922  30.485  0.00  0.00    +0.013 C 
ATOM     61  C   UNL     1       5.035   3.407  30.274  0.00  0.00    +0.013 C 
ENDBRANCH  47  58
ENDBRANCH   4  47
TORSDOF 15
ENDMDL
MODEL 8
REMARK VINA RESULT:      -4.5      2.992      5.744
REMARK  Name = 
REMARK  21 active torsions:
REMARK  status: ('A' for Active; 'I' for Inactive)
REMARK    1  A    between atoms: C_1  and  C_2
REMARK    2  A    between atoms: C_2  and  C_3
REMARK    3  A    between atoms: C_2  and  C_4
REMARK    4  A    between atoms: C_9  and  C_12
REMARK    5  A    between atoms: C_18  and  O_21
REMARK    6  A    between atoms: O_21  and  C_22
REMARK    7  A    between atoms: C_23  and  O_25
REMARK    8  A    between atoms: O_25  and  C_26
REMARK    9  A    between atoms: C_29  and  C_50
REMARK   10  A    between atoms: C_33  and  C_35
REMARK   11  A    between atoms: C_35  and  C_37
REMARK   12  A    between atoms: C_35  and  N_41
REMARK   13  A    between atoms: C_37  and  C_38
REMARK   14  A    between atoms: C_37  and  C_39
REMARK   15  A    between atoms: C_37  and  C_40
REMARK   16  A    between atoms: C_42  and  O_44
REMARK   17  A    between atoms: O_44  and  C_45
REMARK   18  A    between atoms: N_52  and  C_53
REMARK   19  A    between atoms: C_53  and  C_59
REMARK   20  A    between atoms: C_55  and  C_57
REMARK   21  A    between atoms: C_59  and  O_61
REMARK                            x       y       z     vdW  Elec       q    Type
REMARK                         _______ _______ _______ _____ _____    ______ ____
ROOT
ATOM      1  C   UNL     1       5.322   0.424  24.977  0.00  0.00    +0.193 C 
ATOM      2  C   UNL     1       5.357  -1.098  24.791  0.00  0.00    +0.153 C 
ATOM      3  N   UNL     1       5.307  -1.693  26.128  0.00  0.00    -0.285 N 
ATOM      4  C   UNL     1       5.821  -2.941  26.419  0.00  0.00    +0.237 C 
ATOM      5  O   UNL     1       6.266  -3.181  27.547  0.00  0.00    -0.274 OA
ATOM      6  C   UNL     1       5.224  -0.658  27.162  0.00  0.00    +0.166 C 
ATOM      7  C   UNL     1       4.663   0.542  26.376  0.00  0.00    +0.078 C 
ENDROOT
BRANCH   6   8
ATOM      8  C   UNL     1       4.329  -1.069  28.384  0.00  0.00    +0.235 C 
ATOM      9  N   UNL     1       3.280  -1.918  28.050  0.00  0.00    -0.298 N 
ATOM     10  H   UNL     1       2.900  -1.765  27.113  0.00  0.00    +0.150 HD
ATOM     11  O   UNL     1       4.454  -0.623  29.525  0.00  0.00    -0.274 OA
BRANCH   9  12
ATOM     12  C   UNL     1       2.310  -2.444  29.028  0.00  0.00    +0.138 C 
ATOM     13  C   UNL     1       2.226  -3.975  29.120  0.00  0.00    +0.048 C 
ATOM     14  C   UNL     1       2.825  -3.197  30.250  0.00  0.00    +0.048 C 
BRANCH  12  15
ATOM     15  C   UNL     1       1.105  -1.565  29.260  0.00  0.00    +0.329 C 
ATOM     16  O   UNL     1       0.734  -1.190  30.358  0.00  0.00    -0.249 OA
BRANCH  15  17
ATOM     17  O   UNL     1       0.454  -1.263  28.102  0.00  0.00    -0.479 OA
ATOM     18  H   UNL     1      -0.528  -1.301  28.234  0.00  0.00    +0.295 HD
ENDBRANCH  15  17
ENDBRANCH  12  15
BRANCH  13  19
ATOM     19  C   UNL     1       1.020  -4.763  29.430  0.00  0.00    -0.028 C 
ATOM     20  C   UNL     1       0.933  -6.096  29.292  0.00  0.00    +0.004 C 
ENDBRANCH  13  19
ENDBRANCH   9  12
ENDBRANCH   6   8
BRANCH   1  21
ATOM     21  O   UNL     1       6.578   1.098  25.062  0.00  0.00    -0.486 OA
BRANCH  21  24
ATOM     22  C   UNL     1       5.841   4.518  24.444  0.00  0.00    +0.094 A 
ATOM     23  C   UNL     1       5.749   3.160  24.680  0.00  0.00    +0.076 A 
ATOM     24  C   UNL     1       6.900   2.366  24.670  0.00  0.00    +0.132 A 
ATOM     25  C   UNL     1       8.135   2.968  24.306  0.00  0.00    +0.043 A 
ATOM     26  C   UNL     1       9.338   2.296  23.968  0.00  0.00    +0.017 A 
ATOM     27  C   UNL     1      10.543   2.991  23.757  0.00  0.00    +0.047 A 
ATOM     28  C   UNL     1      10.588   4.372  23.901  0.00  0.00    +0.136 A 
ATOM     29  C   UNL     1       9.379   5.055  24.095  0.00  0.00    +0.085 A 
ATOM     30 BR   UNL     1       9.408   6.979  24.193  0.00  0.00    -0.044 Br
ATOM     31  C   UNL     1       8.152   4.389  24.236  0.00  0.00    +0.093 A 
ATOM     32  N   UNL     1       7.026   5.128  24.291  0.00  0.00    -0.244 NA
BRANCH  22  39
ATOM     33  C   UNL     1       1.741   5.379  21.312  0.00  0.00    +0.221 C 
ATOM     34  N   UNL     1       1.722   6.097  22.494  0.00  0.00    -0.264 N 
ATOM     35  H   UNL     1       1.031   6.809  22.678  0.00  0.00    +0.157 HD
ATOM     36  C   UNL     1       2.761   5.972  23.378  0.00  0.00    +0.165 A 
ATOM     37  S   UNL     1       2.830   7.108  24.642  0.00  0.00    -0.060 S 
ATOM     38  C   UNL     1       4.337   6.424  25.138  0.00  0.00    +0.078 A 
ATOM     39  C   UNL     1       4.639   5.334  24.341  0.00  0.00    +0.098 A 
ATOM     40  N   UNL     1       3.712   5.079  23.350  0.00  0.00    -0.223 NA
ATOM     41  O   UNL     1       2.642   4.650  20.930  0.00  0.00    -0.275 OA
BRANCH  33  43
ATOM     42  C   UNL     1       0.481   7.009  19.899  0.00  0.00    +0.017 C 
ATOM     43  C   UNL     1       0.487   5.586  20.460  0.00  0.00    +0.069 C 
ATOM     44  C   UNL     1       0.454   4.569  19.323  0.00  0.00    +0.017 C 
ENDBRANCH  33  43
ENDBRANCH  22  39
BRANCH  28  45
ATOM     45  O   UNL     1      11.722   5.134  23.805  0.00  0.00    -0.494 OA
ATOM     46  C   UNL     1      12.495   5.044  22.617  0.00  0.00    +0.277 C 
ENDBRANCH  28  45
ENDBRANCH  21  24
ENDBRANCH   1  21
BRANCH   4  47
ATOM     47  C   UNL     1       5.780  -4.031  25.301  0.00  0.00    +0.168 C 
BRANCH  47  48
ATOM     48  N   UNL     1       7.180  -4.269  24.930  0.00  0.00    -0.269 N 
ATOM     49  H   UNL     1       7.854  -4.417  25.673  0.00  0.00    +0.153 HD
ATOM     50  C   UNL     1       7.699  -4.113  23.680  0.00  0.00    +0.401 C 
ATOM     51  O   UNL     1       7.045  -3.858  22.677  0.00  0.00    -0.226 OA
BRANCH  50  52
ATOM     52  O   UNL     1       9.046  -4.287  23.718  0.00  0.00    -0.447 OA
BRANCH  52  53
ATOM     53  C   UNL     1       9.846  -3.156  24.104  0.00  0.00    +0.178 C 
ATOM     54  C   UNL     1       9.224  -2.466  25.328  0.00  0.00    +0.045 C 
ATOM     55  C   UNL     1       9.398  -0.960  25.124  0.00  0.00    +0.004 C 
ATOM     56  C   UNL     1      10.232  -0.807  23.861  0.00  0.00    +0.004 C 
ATOM     57  C   UNL     1       9.895  -2.052  23.051  0.00  0.00    +0.045 C 
ENDBRANCH  52  53
ENDBRANCH  50  52
ENDBRANCH  47  48
BRANCH  47  58
ATOM     58  C   UNL     1       5.002  -5.308  25.800  0.00  0.00    -0.011 C 
ATOM     59  C   UNL     1       4.856  -6.356  24.671  0.00  0.00    +0.013 C 
ATOM     60  C   UNL     1       3.554  -4.916  26.195  0.00  0.00    +0.013 C 
ATOM     61  C   UNL     1       5.689  -5.990  27.006  0.00  0.00    +0.013 C 
ENDBRANCH  47  58
ENDBRANCH   4  47
TORSDOF 15
ENDMDL
MODEL 9
REMARK VINA RESULT:      -4.1      2.496      6.015
REMARK  Name = 
REMARK  21 active torsions:
REMARK  status: ('A' for Active; 'I' for Inactive)
REMARK    1  A    between atoms: C_1  and  C_2
REMARK    2  A    between atoms: C_2  and  C_3
REMARK    3  A    between atoms: C_2  and  C_4
REMARK    4  A    between atoms: C_9  and  C_12
REMARK    5  A    between atoms: C_18  and  O_21
REMARK    6  A    between atoms: O_21  and  C_22
REMARK    7  A    between atoms: C_23  and  O_25
REMARK    8  A    between atoms: O_25  and  C_26
REMARK    9  A    between atoms: C_29  and  C_50
REMARK   10  A    between atoms: C_33  and  C_35
REMARK   11  A    between atoms: C_35  and  C_37
REMARK   12  A    between atoms: C_35  and  N_41
REMARK   13  A    between atoms: C_37  and  C_38
REMARK   14  A    between atoms: C_37  and  C_39
REMARK   15  A    between atoms: C_37  and  C_40
REMARK   16  A    between atoms: C_42  and  O_44
REMARK   17  A    between atoms: O_44  and  C_45
REMARK   18  A    between atoms: N_52  and  C_53
REMARK   19  A    between atoms: C_53  and  C_59
REMARK   20  A    between atoms: C_55  and  C_57
REMARK   21  A    between atoms: C_59  and  O_61
REMARK                            x       y       z     vdW  Elec       q    Type
REMARK                         _______ _______ _______ _____ _____    ______ ____
ROOT
ATOM      1  C   UNL     1       5.853   0.720  24.269  0.00  0.00    +0.193 C 
ATOM      2  C   UNL     1       5.767  -0.809  24.367  0.00  0.00    +0.153 C 
ATOM      3  N   UNL     1       5.746  -1.146  25.791  0.00  0.00    -0.285 N 
ATOM      4  C   UNL     1       6.183  -2.358  26.288  0.00  0.00    +0.237 C 
ATOM      5  O   UNL     1       6.669  -2.424  27.422  0.00  0.00    -0.274 OA
ATOM      6  C   UNL     1       5.793   0.063  26.618  0.00  0.00    +0.166 C 
ATOM      7  C   UNL     1       5.280   1.142  25.647  0.00  0.00    +0.078 C 
ENDROOT
BRANCH   6   8
ATOM      8  C   UNL     1       4.937  -0.046  27.929  0.00  0.00    +0.235 C 
ATOM      9  N   UNL     1       3.741  -0.734  27.762  0.00  0.00    -0.298 N 
ATOM     10  H   UNL     1       3.322  -0.626  26.836  0.00  0.00    +0.150 HD
ATOM     11  O   UNL     1       5.220   0.499  28.997  0.00  0.00    -0.274 OA
BRANCH   9  12
ATOM     12  C   UNL     1       2.773  -0.971  28.850  0.00  0.00    +0.138 C 
ATOM     13  C   UNL     1       2.377  -2.437  29.077  0.00  0.00    +0.048 C 
ATOM     14  C   UNL     1       3.226  -1.734  30.089  0.00  0.00    +0.048 C 
BRANCH  12  15
ATOM     15  C   UNL     1       1.807   0.163  29.095  0.00  0.00    +0.329 C 
ATOM     16  O   UNL     1       1.615   0.674  30.183  0.00  0.00    -0.249 OA
BRANCH  15  17
ATOM     17  O   UNL     1       1.143   0.530  27.963  0.00  0.00    -0.479 OA
ATOM     18  H   UNL     1       1.263  -0.151  27.252  0.00  0.00    +0.295 HD
ENDBRANCH  15  17
ENDBRANCH  12  15
BRANCH  13  19
ATOM     19  C   UNL     1       1.066  -2.923  29.540  0.00  0.00    -0.028 C 
ATOM     20  C   UNL     1       0.471  -4.039  29.089  0.00  0.00    +0.004 C 
ENDBRANCH  13  19
ENDBRANCH   9  12
ENDBRANCH   6   8
BRANCH   1  21
ATOM     21  O   UNL     1       7.157   1.293  24.179  0.00  0.00    -0.486 OA
BRANCH  21  24
ATOM     22  C   UNL     1       6.539   4.768  24.584  0.00  0.00    +0.094 A 
ATOM     23  C   UNL     1       6.400   3.402  24.437  0.00  0.00    +0.076 A 
ATOM     24  C   UNL     1       7.513   2.612  24.139  0.00  0.00    +0.132 A 
ATOM     25  C   UNL     1       8.754   3.257  23.884  0.00  0.00    +0.043 A 
ATOM     26  C   UNL     1       9.909   2.675  23.302  0.00  0.00    +0.017 A 
ATOM     27  C   UNL     1      11.131   3.367  23.222  0.00  0.00    +0.047 A 
ATOM     28  C   UNL     1      11.242   4.650  23.744  0.00  0.00    +0.136 A 
ATOM     29  C   UNL     1      10.074   5.285  24.191  0.00  0.00    +0.085 A 
ATOM     30 BR   UNL     1      10.191   7.101  24.820  0.00  0.00    -0.044 Br
ATOM     31  C   UNL     1       8.828   4.640  24.213  0.00  0.00    +0.093 A 
ATOM     32  N   UNL     1       7.739   5.364  24.538  0.00  0.00    -0.244 NA
BRANCH  22  39
ATOM     33  C   UNL     1       3.090   6.169  28.259  0.00  0.00    +0.221 C 
ATOM     34  N   UNL     1       2.936   6.821  27.049  0.00  0.00    -0.264 N 
ATOM     35  H   UNL     1       2.153   7.430  26.863  0.00  0.00    +0.157 HD
ATOM     36  C   UNL     1       3.766   6.512  26.004  0.00  0.00    +0.165 A 
ATOM     37  S   UNL     1       3.324   7.107  24.474  0.00  0.00    -0.060 S 
ATOM     38  C   UNL     1       4.647   6.238  23.782  0.00  0.00    +0.078 A 
ATOM     39  C   UNL     1       5.368   5.613  24.784  0.00  0.00    +0.098 A 
ATOM     40  N   UNL     1       4.858   5.800  26.054  0.00  0.00    -0.223 NA
ATOM     41  O   UNL     1       3.887   5.276  28.496  0.00  0.00    -0.275 OA
BRANCH  33  43
ATOM     42  C   UNL     1       0.813   7.105  28.684  0.00  0.00    +0.017 C 
ATOM     43  C   UNL     1       2.124   6.664  29.338  0.00  0.00    +0.069 C 
ATOM     44  C   UNL     1       1.863   5.556  30.353  0.00  0.00    +0.017 C 
ENDBRANCH  33  43
ENDBRANCH  22  39
BRANCH  28  45
ATOM     45  O   UNL     1      12.401   5.377  23.796  0.00  0.00    -0.494 OA
ATOM     46  C   UNL     1      13.174   5.502  22.611  0.00  0.00    +0.277 C 
ENDBRANCH  28  45
ENDBRANCH  21  24
ENDBRANCH   1  21
BRANCH   4  47
ATOM     47  C   UNL     1       6.004  -3.626  25.393  0.00  0.00    +0.168 C 
BRANCH  47  48
ATOM     48  N   UNL     1       7.326  -3.889  24.813  0.00  0.00    -0.269 N 
ATOM     49  H   UNL     1       8.119  -3.963  25.440  0.00  0.00    +0.153 HD
ATOM     50  C   UNL     1       7.623  -3.847  23.483  0.00  0.00    +0.401 C 
ATOM     51  O   UNL     1       6.804  -3.689  22.588  0.00  0.00    -0.226 OA
BRANCH  50  52
ATOM     52  O   UNL     1       8.960  -4.009  23.307  0.00  0.00    -0.447 OA
BRANCH  52  53
ATOM     53  C   UNL     1       9.815  -2.924  23.708  0.00  0.00    +0.178 C 
ATOM     54  C   UNL     1       9.280  -2.284  25.000  0.00  0.00    +0.045 C 
ATOM     55  C   UNL     1       9.490  -0.774  24.866  0.00  0.00    +0.004 C 
ATOM     56  C   UNL     1      10.260  -0.577  23.569  0.00  0.00    +0.004 C 
ATOM     57  C   UNL     1       9.842  -1.766  22.715  0.00  0.00    +0.045 C 
ENDBRANCH  52  53
ENDBRANCH  50  52
ENDBRANCH  47  48
BRANCH  47  58
ATOM     58  C   UNL     1       5.401  -4.816  26.232  0.00  0.00    -0.011 C 
ATOM     59  C   UNL     1       4.812  -5.912  25.313  0.00  0.00    +0.013 C 
ATOM     60  C   UNL     1       4.212  -4.303  27.085  0.00  0.00    +0.013 C 
ATOM     61  C   UNL     1       6.446  -5.476  27.163  0.00  0.00    +0.013 C 
ENDBRANCH  47  58
ENDBRANCH   4  47
TORSDOF 15
ENDMDL
