MODEL 1
REMARK VINA RESULT:      -7.0      0.000      0.000
REMARK  Name = 
REMARK  12 active torsions:
REMARK  status: ('A' for Active; 'I' for Inactive)
REMARK    1  A    between atoms: C_1  and  C_2
REMARK    2  A    between atoms: C_2  and  C_3
REMARK    3  A    between atoms: C_2  and  C_4
REMARK    4  A    between atoms: C_4  and  C_5
REMARK    5  A    between atoms: C_4  and  N_7
REMARK    6  A    between atoms: C_5  and  O_6
REMARK    7  A    between atoms: C_9  and  C_29
REMARK    8  A    between atoms: C_15  and  O_27
REMARK    9  A    between atoms: C_16  and  C_18
REMARK   10  A    between atoms: C_18  and  C_19
REMARK   11  A    between atoms: O_27  and  C_28
REMARK   12  A    between atoms: C_29  and  O_31
REMARK                            x       y       z     vdW  Elec       q    Type
REMARK                         _______ _______ _______ _____ _____    ______ ____
ROOT
ATOM      1  N   UNL     1       4.429  -5.414  25.184  0.00  0.00    -0.323 N 
ATOM      2  C   UNL     1       5.694  -4.952  24.803  0.00  0.00    +0.044 A 
ATOM      3  C   UNL     1       5.954  -4.270  23.603  0.00  0.00    +0.069 A 
ATOM      4  C   UNL     1       7.215  -3.706  23.279  0.00  0.00    +0.125 A 
ATOM      5  C   UNL     1       8.289  -3.832  24.168  0.00  0.00    -0.001 A 
ATOM      6  C   UNL     1       8.070  -4.574  25.338  0.00  0.00    +0.020 A 
ATOM      7  C   UNL     1       6.799  -5.078  25.664  0.00  0.00    +0.040 A 
ATOM      8  C   UNL     1       6.613  -5.583  27.036  0.00  0.00    +0.180 C 
ATOM      9  O   UNL     1       7.575  -5.808  27.769  0.00  0.00    -0.291 OA
ATOM     10  C   UNL     1       5.205  -5.634  27.545  0.00  0.00    +0.185 C 
ATOM     11  C   UNL     1       4.344  -6.203  26.433  0.00  0.00    +0.128 C 
ENDROOT
BRANCH   4  12
ATOM     12  O   UNL     1       7.173  -2.945  22.140  0.00  0.00    -0.495 OA
ATOM     13  C   UNL     1       5.952  -2.887  21.415  0.00  0.00    +0.277 C 
ENDBRANCH   4  12
BRANCH  10  14
ATOM     14  C   UNL     1       5.007  -6.455  28.798  0.00  0.00    +0.317 C 
ATOM     15  O   UNL     1       4.449  -6.018  29.796  0.00  0.00    -0.250 OA
BRANCH  14  16
ATOM     16  O   UNL     1       5.557  -7.689  28.796  0.00  0.00    -0.480 OA
ATOM     17  H   UNL     1       4.913  -8.417  28.983  0.00  0.00    +0.295 HD
ENDBRANCH  14  16
ENDBRANCH  10  14
BRANCH   1  18
ATOM     18  C   UNL     1       3.180  -5.223  24.362  0.00  0.00    +0.101 C 
BRANCH  18  20
ATOM     19  C   UNL     1       1.061  -6.537  25.025  0.00  0.00    +0.009 C 
ATOM     20  C   UNL     1       2.343  -6.533  24.175  0.00  0.00    +0.005 C 
ATOM     21  C   UNL     1       1.927  -6.766  22.717  0.00  0.00    +0.009 C 
ENDBRANCH  18  20
BRANCH  18  22
ATOM     22  C   UNL     1       2.323  -4.100  25.014  0.00  0.00    +0.178 C 
BRANCH  22  23
ATOM     23  O   UNL     1       3.065  -2.895  25.191  0.00  0.00    -0.393 OA
ATOM     24  H   UNL     1       2.636  -2.236  24.616  0.00  0.00    +0.209 HD
ENDBRANCH  22  23
ENDBRANCH  18  22
ENDBRANCH   1  18
BRANCH   5  25
ATOM     25  C   UNL     1       9.620  -3.120  24.088  0.00  0.00    +0.077 C 
BRANCH  25  26
ATOM     26  C   UNL     1       9.543  -1.616  24.244  0.00  0.00    -0.006 A 
ATOM     27  C   UNL     1       9.017  -1.020  25.401  0.00  0.00    +0.007 A 
ATOM     28  C   UNL     1       8.842   0.366  25.476  0.00  0.00    +0.002 A 
ATOM     29  C   UNL     1       9.182   1.176  24.394  0.00  0.00    +0.023 A 
ATOM     30  C   UNL     1       9.729   0.601  23.248  0.00  0.00    +0.076 A 
ATOM     31 CL   UNL     1      10.132   1.607  21.909  0.00  0.00    -0.081 Cl
ATOM     32  C   UNL     1       9.917  -0.781  23.182  0.00  0.00    +0.145 A 
ATOM     33  F   UNL     1      10.447  -1.327  22.076  0.00  0.00    -0.204 F 
ENDBRANCH  25  26
ENDBRANCH   5  25
TORSDOF 9
ENDMDL
MODEL 2
REMARK VINA RESULT:      -6.8      4.013      7.964
REMARK  Name = 
REMARK  12 active torsions:
REMARK  status: ('A' for Active; 'I' for Inactive)
REMARK    1  A    between atoms: C_1  and  C_2
REMARK    2  A    between atoms: C_2  and  C_3
REMARK    3  A    between atoms: C_2  and  C_4
REMARK    4  A    between atoms: C_4  and  C_5
REMARK    5  A    between atoms: C_4  and  N_7
REMARK    6  A    between atoms: C_5  and  O_6
REMARK    7  A    between atoms: C_9  and  C_29
REMARK    8  A    between atoms: C_15  and  O_27
REMARK    9  A    between atoms: C_16  and  C_18
REMARK   10  A    between atoms: C_18  and  C_19
REMARK   11  A    between atoms: O_27  and  C_28
REMARK   12  A    between atoms: C_29  and  O_31
REMARK                            x       y       z     vdW  Elec       q    Type
REMARK                         _______ _______ _______ _____ _____    ______ ____
ROOT
ATOM      1  N   UNL     1       7.661   1.310  25.559  0.00  0.00    -0.323 N 
ATOM      2  C   UNL     1       7.865  -0.073  25.617  0.00  0.00    +0.044 A 
ATOM      3  C   UNL     1       7.051  -0.958  26.343  0.00  0.00    +0.069 A 
ATOM      4  C   UNL     1       7.198  -2.369  26.303  0.00  0.00    +0.125 A 
ATOM      5  C   UNL     1       8.208  -2.948  25.526  0.00  0.00    -0.001 A 
ATOM      6  C   UNL     1       9.079  -2.078  24.853  0.00  0.00    +0.020 A 
ATOM      7  C   UNL     1       8.883  -0.686  24.864  0.00  0.00    +0.040 A 
ATOM      8  C   UNL     1       9.667   0.106  23.900  0.00  0.00    +0.180 C 
ATOM      9  O   UNL     1      10.633  -0.378  23.313  0.00  0.00    -0.291 OA
ATOM     10  C   UNL     1       9.124   1.456  23.543  0.00  0.00    +0.185 C 
ATOM     11  C   UNL     1       8.668   2.114  24.832  0.00  0.00    +0.128 C 
ENDROOT
BRANCH   4  12
ATOM     12  O   UNL     1       6.182  -3.022  26.951  0.00  0.00    -0.495 OA
ATOM     13  C   UNL     1       4.851  -2.804  26.504  0.00  0.00    +0.277 C 
ENDBRANCH   4  12
BRANCH  10  14
ATOM     14  C   UNL     1      10.094   2.370  22.833  0.00  0.00    +0.317 C 
ATOM     15  O   UNL     1      10.677   3.286  23.398  0.00  0.00    -0.250 OA
BRANCH  14  16
ATOM     16  O   UNL     1      10.231   2.178  21.503  0.00  0.00    -0.480 OA
ATOM     17  H   UNL     1       9.428   2.423  20.977  0.00  0.00    +0.295 HD
ENDBRANCH  14  16
ENDBRANCH  10  14
BRANCH   1  18
ATOM     18  C   UNL     1       6.530   2.024  26.254  0.00  0.00    +0.101 C 
BRANCH  18  20
ATOM     19  C   UNL     1       6.249   4.509  26.892  0.00  0.00    +0.009 C 
ATOM     20  C   UNL     1       7.000   3.197  27.179  0.00  0.00    +0.005 C 
ATOM     21  C   UNL     1       6.822   2.885  28.670  0.00  0.00    +0.009 C 
ENDBRANCH  18  20
BRANCH  18  22
ATOM     22  C   UNL     1       5.525   2.529  25.179  0.00  0.00    +0.178 C 
BRANCH  22  23
ATOM     23  O   UNL     1       4.946   1.453  24.443  0.00  0.00    -0.393 OA
ATOM     24  H   UNL     1       4.143   1.201  24.934  0.00  0.00    +0.209 HD
ENDBRANCH  22  23
ENDBRANCH  18  22
ENDBRANCH   1  18
BRANCH   5  25
ATOM     25  C   UNL     1       8.372  -4.415  25.198  0.00  0.00    +0.077 C 
BRANCH  25  26
ATOM     26  C   UNL     1       7.400  -4.944  24.165  0.00  0.00    -0.006 A 
ATOM     27  C   UNL     1       7.548  -4.660  22.798  0.00  0.00    +0.007 A 
ATOM     28  C   UNL     1       6.574  -5.056  21.875  0.00  0.00    +0.002 A 
ATOM     29  C   UNL     1       5.434  -5.732  22.305  0.00  0.00    +0.023 A 
ATOM     30  C   UNL     1       5.286  -6.043  23.656  0.00  0.00    +0.076 A 
ATOM     31 CL   UNL     1       3.867  -6.867  24.180  0.00  0.00    -0.081 Cl
ATOM     32  C   UNL     1       6.267  -5.661  24.573  0.00  0.00    +0.145 A 
ATOM     33  F   UNL     1       6.118  -5.967  25.871  0.00  0.00    -0.204 F 
ENDBRANCH  25  26
ENDBRANCH   5  25
TORSDOF 9
ENDMDL
MODEL 3
REMARK VINA RESULT:      -6.8      2.822      5.199
REMARK  Name = 
REMARK  12 active torsions:
REMARK  status: ('A' for Active; 'I' for Inactive)
REMARK    1  A    between atoms: C_1  and  C_2
REMARK    2  A    between atoms: C_2  and  C_3
REMARK    3  A    between atoms: C_2  and  C_4
REMARK    4  A    between atoms: C_4  and  C_5
REMARK    5  A    between atoms: C_4  and  N_7
REMARK    6  A    between atoms: C_5  and  O_6
REMARK    7  A    between atoms: C_9  and  C_29
REMARK    8  A    between atoms: C_15  and  O_27
REMARK    9  A    between atoms: C_16  and  C_18
REMARK   10  A    between atoms: C_18  and  C_19
REMARK   11  A    between atoms: O_27  and  C_28
REMARK   12  A    between atoms: C_29  and  O_31
REMARK                            x       y       z     vdW  Elec       q    Type
REMARK                         _______ _______ _______ _____ _____    ______ ____
ROOT
ATOM      1  N   UNL     1       6.596  -3.817  25.178  0.00  0.00    -0.323 N 
ATOM      2  C   UNL     1       6.943  -2.598  24.586  0.00  0.00    +0.044 A 
ATOM      3  C   UNL     1       7.720  -1.612  25.217  0.00  0.00    +0.069 A 
ATOM      4  C   UNL     1       8.163  -0.429  24.568  0.00  0.00    +0.125 A 
ATOM      5  C   UNL     1       7.811  -0.187  23.235  0.00  0.00    -0.001 A 
ATOM      6  C   UNL     1       6.973  -1.124  22.611  0.00  0.00    +0.020 A 
ATOM      7  C   UNL     1       6.591  -2.314  23.255  0.00  0.00    +0.040 A 
ATOM      8  C   UNL     1       5.961  -3.351  22.420  0.00  0.00    +0.180 C 
ATOM      9  O   UNL     1       5.542  -3.096  21.292  0.00  0.00    -0.291 OA
ATOM     10  C   UNL     1       6.020  -4.756  22.939  0.00  0.00    +0.185 C 
ATOM     11  C   UNL     1       5.687  -4.704  24.418  0.00  0.00    +0.128 C 
ENDROOT
BRANCH   4  12
ATOM     12  O   UNL     1       9.047   0.288  25.330  0.00  0.00    -0.495 OA
ATOM     13  C   UNL     1      10.437   0.101  25.100  0.00  0.00    +0.277 C 
ENDBRANCH   4  12
BRANCH  10  14
ATOM     14  C   UNL     1       5.094  -5.731  22.253  0.00  0.00    +0.317 C 
ATOM     15  O   UNL     1       3.974  -5.991  22.674  0.00  0.00    -0.250 OA
BRANCH  14  16
ATOM     16  O   UNL     1       5.597  -6.379  21.179  0.00  0.00    -0.480 OA
ATOM     17  H   UNL     1       5.007  -7.090  20.825  0.00  0.00    +0.295 HD
ENDBRANCH  14  16
ENDBRANCH  10  14
BRANCH   1  18
ATOM     18  C   UNL     1       7.025  -4.236  26.561  0.00  0.00    +0.101 C 
BRANCH  18  20
ATOM     19  C   UNL     1       6.391  -5.834  28.486  0.00  0.00    +0.009 C 
ATOM     20  C   UNL     1       5.871  -4.854  27.419  0.00  0.00    +0.005 C 
ATOM     21  C   UNL     1       5.035  -3.791  28.142  0.00  0.00    +0.009 C 
ENDBRANCH  18  20
BRANCH  18  22
ATOM     22  C   UNL     1       8.218  -5.227  26.433  0.00  0.00    +0.178 C 
BRANCH  22  23
ATOM     23  O   UNL     1       9.405  -4.715  27.036  0.00  0.00    -0.393 OA
ATOM     24  H   UNL     1       9.103  -4.112  27.740  0.00  0.00    +0.209 HD
ENDBRANCH  22  23
ENDBRANCH  18  22
ENDBRANCH   1  18
BRANCH   5  25
ATOM     25  C   UNL     1       8.364   0.893  22.333  0.00  0.00    +0.077 C 
BRANCH  25  26
ATOM     26  C   UNL     1       7.877   2.291  22.649  0.00  0.00    -0.006 A 
ATOM     27  C   UNL     1       6.574   2.708  22.335  0.00  0.00    +0.007 A 
ATOM     28  C   UNL     1       6.182   4.037  22.524  0.00  0.00    +0.002 A 
ATOM     29  C   UNL     1       7.089   4.972  23.020  0.00  0.00    +0.023 A 
ATOM     30  C   UNL     1       8.378   4.568  23.360  0.00  0.00    +0.076 A 
ATOM     31 CL   UNL     1       9.497   5.733  23.959  0.00  0.00    -0.081 Cl
ATOM     32  C   UNL     1       8.762   3.237  23.186  0.00  0.00    +0.145 A 
ATOM     33  F   UNL     1      10.005   2.855  23.519  0.00  0.00    -0.204 F 
ENDBRANCH  25  26
ENDBRANCH   5  25
TORSDOF 9
ENDMDL
MODEL 4
REMARK VINA RESULT:      -6.7      2.305      3.493
REMARK  Name = 
REMARK  12 active torsions:
REMARK  status: ('A' for Active; 'I' for Inactive)
REMARK    1  A    between atoms: C_1  and  C_2
REMARK    2  A    between atoms: C_2  and  C_3
REMARK    3  A    between atoms: C_2  and  C_4
REMARK    4  A    between atoms: C_4  and  C_5
REMARK    5  A    between atoms: C_4  and  N_7
REMARK    6  A    between atoms: C_5  and  O_6
REMARK    7  A    between atoms: C_9  and  C_29
REMARK    8  A    between atoms: C_15  and  O_27
REMARK    9  A    between atoms: C_16  and  C_18
REMARK   10  A    between atoms: C_18  and  C_19
REMARK   11  A    between atoms: O_27  and  C_28
REMARK   12  A    between atoms: C_29  and  O_31
REMARK                            x       y       z     vdW  Elec       q    Type
REMARK                         _______ _______ _______ _____ _____    ______ ____
ROOT
ATOM      1  N   UNL     1       6.688  -4.055  23.986  0.00  0.00    -0.323 N 
ATOM      2  C   UNL     1       7.658  -3.047  23.930  0.00  0.00    +0.044 A 
ATOM      3  C   UNL     1       7.843  -2.196  22.828  0.00  0.00    +0.069 A 
ATOM      4  C   UNL     1       8.750  -1.105  22.825  0.00  0.00    +0.125 A 
ATOM      5  C   UNL     1       9.535  -0.842  23.954  0.00  0.00    -0.001 A 
ATOM      6  C   UNL     1       9.419  -1.726  25.037  0.00  0.00    +0.020 A 
ATOM      7  C   UNL     1       8.476  -2.768  25.039  0.00  0.00    +0.040 A 
ATOM      8  C   UNL     1       8.236  -3.448  26.324  0.00  0.00    +0.180 C 
ATOM      9  O   UNL     1       9.004  -3.306  27.274  0.00  0.00    -0.291 OA
ATOM     10  C   UNL     1       6.929  -4.166  26.468  0.00  0.00    +0.185 C 
ATOM     11  C   UNL     1       6.691  -4.931  25.179  0.00  0.00    +0.128 C 
ENDROOT
BRANCH   4  12
ATOM     12  O   UNL     1       8.625  -0.321  21.708  0.00  0.00    -0.495 OA
ATOM     13  C   UNL     1       7.826   0.851  21.796  0.00  0.00    +0.277 C 
ENDBRANCH   4  12
BRANCH  10  14
ATOM     14  C   UNL     1       6.847  -5.120  27.636  0.00  0.00    +0.317 C 
ATOM     15  O   UNL     1       6.078  -4.957  28.574  0.00  0.00    -0.250 OA
BRANCH  14  16
ATOM     16  O   UNL     1       7.737  -6.137  27.638  0.00  0.00    -0.480 OA
ATOM     17  H   UNL     1       7.775  -6.636  28.493  0.00  0.00    +0.295 HD
ENDBRANCH  14  16
ENDBRANCH  10  14
BRANCH   1  18
ATOM     18  C   UNL     1       5.707  -4.343  22.879  0.00  0.00    +0.101 C 
BRANCH  18  20
ATOM     19  C   UNL     1       6.046  -5.354  20.529  0.00  0.00    +0.009 C 
ATOM     20  C   UNL     1       6.057  -5.621  22.045  0.00  0.00    +0.005 C 
ATOM     21  C   UNL     1       7.433  -6.201  22.397  0.00  0.00    +0.009 C 
ENDBRANCH  18  20
BRANCH  18  22
ATOM     22  C   UNL     1       4.282  -4.450  23.493  0.00  0.00    +0.178 C 
BRANCH  22  23
ATOM     23  O   UNL     1       3.426  -5.285  22.715  0.00  0.00    -0.393 OA
ATOM     24  H   UNL     1       3.933  -5.506  21.913  0.00  0.00    +0.209 HD
ENDBRANCH  22  23
ENDBRANCH  18  22
ENDBRANCH   1  18
BRANCH   5  25
ATOM     25  C   UNL     1      10.381   0.386  24.204  0.00  0.00    +0.077 C 
BRANCH  25  26
ATOM     26  C   UNL     1       9.599   1.630  24.568  0.00  0.00    -0.006 A 
ATOM     27  C   UNL     1       8.435   1.567  25.350  0.00  0.00    +0.007 A 
ATOM     28  C   UNL     1       7.660   2.709  25.575  0.00  0.00    +0.002 A 
ATOM     29  C   UNL     1       8.031   3.930  25.013  0.00  0.00    +0.023 A 
ATOM     30  C   UNL     1       9.197   4.013  24.254  0.00  0.00    +0.076 A 
ATOM     31 CL   UNL     1       9.641   5.522  23.551  0.00  0.00    -0.081 Cl
ATOM     32  C   UNL     1       9.978   2.874  24.046  0.00  0.00    +0.145 A 
ATOM     33  F   UNL     1      11.101   2.963  23.317  0.00  0.00    -0.204 F 
ENDBRANCH  25  26
ENDBRANCH   5  25
TORSDOF 9
ENDMDL
MODEL 5
REMARK VINA RESULT:      -6.5      2.476      3.333
REMARK  Name = 
REMARK  12 active torsions:
REMARK  status: ('A' for Active; 'I' for Inactive)
REMARK    1  A    between atoms: C_1  and  C_2
REMARK    2  A    between atoms: C_2  and  C_3
REMARK    3  A    between atoms: C_2  and  C_4
REMARK    4  A    between atoms: C_4  and  C_5
REMARK    5  A    between atoms: C_4  and  N_7
REMARK    6  A    between atoms: C_5  and  O_6
REMARK    7  A    between atoms: C_9  and  C_29
REMARK    8  A    between atoms: C_15  and  O_27
REMARK    9  A    between atoms: C_16  and  C_18
REMARK   10  A    between atoms: C_18  and  C_19
REMARK   11  A    between atoms: O_27  and  C_28
REMARK   12  A    between atoms: C_29  and  O_31
REMARK                            x       y       z     vdW  Elec       q    Type
REMARK                         _______ _______ _______ _____ _____    ______ ____
ROOT
ATOM      1  N   UNL     1       4.426  -4.123  25.647  0.00  0.00    -0.323 N 
ATOM      2  C   UNL     1       5.775  -3.917  25.339  0.00  0.00    +0.044 A 
ATOM      3  C   UNL     1       6.540  -4.782  24.538  0.00  0.00    +0.069 A 
ATOM      4  C   UNL     1       7.873  -4.506  24.138  0.00  0.00    +0.125 A 
ATOM      5  C   UNL     1       8.502  -3.328  24.558  0.00  0.00    -0.001 A 
ATOM      6  C   UNL     1       7.782  -2.487  25.420  0.00  0.00    +0.020 A 
ATOM      7  C   UNL     1       6.444  -2.754  25.761  0.00  0.00    +0.040 A 
ATOM      8  C   UNL     1       5.696  -1.672  26.425  0.00  0.00    +0.180 C 
ATOM      9  O   UNL     1       6.274  -0.697  26.902  0.00  0.00    -0.291 OA
ATOM     10  C   UNL     1       4.202  -1.733  26.329  0.00  0.00    +0.185 C 
ATOM     11  C   UNL     1       3.793  -3.171  26.587  0.00  0.00    +0.128 C 
ENDROOT
BRANCH   4  12
ATOM     12  O   UNL     1       8.344  -5.409  23.221  0.00  0.00    -0.495 OA
ATOM     13  C   UNL     1       7.444  -5.894  22.233  0.00  0.00    +0.277 C 
ENDBRANCH   4  12
BRANCH  10  14
ATOM     14  C   UNL     1       3.462  -0.826  27.282  0.00  0.00    +0.317 C 
ATOM     15  O   UNL     1       2.627  -0.011  26.910  0.00  0.00    -0.250 OA
BRANCH  14  16
ATOM     16  O   UNL     1       3.829  -0.898  28.581  0.00  0.00    -0.480 OA
ATOM     17  H   UNL     1       3.155  -0.535  29.209  0.00  0.00    +0.295 HD
ENDBRANCH  14  16
ENDBRANCH  10  14
BRANCH   1  18
ATOM     18  C   UNL     1       3.616  -5.291  25.145  0.00  0.00    +0.101 C 
BRANCH  18  20
ATOM     19  C   UNL     1       2.344  -7.458  25.733  0.00  0.00    +0.009 C 
ATOM     20  C   UNL     1       3.102  -6.236  26.282  0.00  0.00    +0.005 C 
ATOM     21  C   UNL     1       4.234  -6.763  27.172  0.00  0.00    +0.009 C 
ENDBRANCH  18  20
BRANCH  18  22
ATOM     22  C   UNL     1       2.433  -4.746  24.294  0.00  0.00    +0.178 C 
BRANCH  22  23
ATOM     23  O   UNL     1       2.477  -5.224  22.950  0.00  0.00    -0.393 OA
ATOM     24  H   UNL     1       3.018  -4.579  22.460  0.00  0.00    +0.209 HD
ENDBRANCH  22  23
ENDBRANCH  18  22
ENDBRANCH   1  18
BRANCH   5  25
ATOM     25  C   UNL     1       9.818  -2.775  24.059  0.00  0.00    +0.077 C 
BRANCH  25  26
ATOM     26  C   UNL     1       9.706  -1.483  23.279  0.00  0.00    -0.006 A 
ATOM     27  C   UNL     1       9.261  -1.462  21.947  0.00  0.00    +0.007 A 
ATOM     28  C   UNL     1       9.279  -0.277  21.205  0.00  0.00    +0.002 A 
ATOM     29  C   UNL     1       9.751   0.903  21.778  0.00  0.00    +0.023 A 
ATOM     30  C   UNL     1      10.172   0.902  23.107  0.00  0.00    +0.076 A 
ATOM     31 CL   UNL     1      10.768   2.361  23.803  0.00  0.00    -0.081 Cl
ATOM     32  C   UNL     1      10.137  -0.279  23.850  0.00  0.00    +0.145 A 
ATOM     33  F   UNL     1      10.542  -0.270  25.130  0.00  0.00    -0.204 F 
ENDBRANCH  25  26
ENDBRANCH   5  25
TORSDOF 9
ENDMDL
MODEL 6
REMARK VINA RESULT:      -6.4      4.050      7.912
REMARK  Name = 
REMARK  12 active torsions:
REMARK  status: ('A' for Active; 'I' for Inactive)
REMARK    1  A    between atoms: C_1  and  C_2
REMARK    2  A    between atoms: C_2  and  C_3
REMARK    3  A    between atoms: C_2  and  C_4
REMARK    4  A    between atoms: C_4  and  C_5
REMARK    5  A    between atoms: C_4  and  N_7
REMARK    6  A    between atoms: C_5  and  O_6
REMARK    7  A    between atoms: C_9  and  C_29
REMARK    8  A    between atoms: C_15  and  O_27
REMARK    9  A    between atoms: C_16  and  C_18
REMARK   10  A    between atoms: C_18  and  C_19
REMARK   11  A    between atoms: O_27  and  C_28
REMARK   12  A    between atoms: C_29  and  O_31
REMARK                            x       y       z     vdW  Elec       q    Type
REMARK                         _______ _______ _______ _____ _____    ______ ____
ROOT
ATOM      1  N   UNL     1       8.449  -0.508  23.914  0.00  0.00    -0.323 N 
ATOM      2  C   UNL     1       7.943  -1.786  24.176  0.00  0.00    +0.044 A 
ATOM      3  C   UNL     1       8.698  -2.967  24.073  0.00  0.00    +0.069 A 
ATOM      4  C   UNL     1       8.209  -4.245  24.450  0.00  0.00    +0.125 A 
ATOM      5  C   UNL     1       6.904  -4.381  24.937  0.00  0.00    -0.001 A 
ATOM      6  C   UNL     1       6.109  -3.225  24.977  0.00  0.00    +0.020 A 
ATOM      7  C   UNL     1       6.630  -1.962  24.649  0.00  0.00    +0.040 A 
ATOM      8  C   UNL     1       5.809  -0.790  25.000  0.00  0.00    +0.180 C 
ATOM      9  O   UNL     1       4.624  -0.910  25.309  0.00  0.00    -0.291 OA
ATOM     10  C   UNL     1       6.530   0.517  25.137  0.00  0.00    +0.185 C 
ATOM     11  C   UNL     1       7.495   0.622  23.971  0.00  0.00    +0.128 C 
ENDROOT
BRANCH   4  12
ATOM     12  O   UNL     1       9.183  -5.208  24.424  0.00  0.00    -0.495 OA
ATOM     13  C   UNL     1      10.066  -5.301  25.534  0.00  0.00    +0.277 C 
ENDBRANCH   4  12
BRANCH  10  14
ATOM     14  C   UNL     1       5.642   1.738  25.160  0.00  0.00    +0.317 C 
ATOM     15  O   UNL     1       5.709   2.591  26.036  0.00  0.00    -0.250 OA
BRANCH  14  16
ATOM     16  O   UNL     1       4.696   1.808  24.198  0.00  0.00    -0.480 OA
ATOM     17  H   UNL     1       4.274   0.938  23.985  0.00  0.00    +0.295 HD
ENDBRANCH  14  16
ENDBRANCH  10  14
BRANCH   1  18
ATOM     18  C   UNL     1       9.873  -0.233  23.505  0.00  0.00    +0.101 C 
BRANCH  18  20
ATOM     19  C   UNL     1       9.058  -0.454  21.066  0.00  0.00    +0.009 C 
ATOM     20  C   UNL     1      10.019   0.266  22.028  0.00  0.00    +0.005 C 
ATOM     21  C   UNL     1       9.766   1.772  21.884  0.00  0.00    +0.009 C 
ENDBRANCH  18  20
BRANCH  18  22
ATOM     22  C   UNL     1      10.489   0.789  24.504  0.00  0.00    +0.178 C 
BRANCH  22  23
ATOM     23  O   UNL     1      10.356   0.359  25.858  0.00  0.00    -0.393 OA
ATOM     24  H   UNL     1       9.448   0.015  25.936  0.00  0.00    +0.209 HD
ENDBRANCH  22  23
ENDBRANCH  18  22
ENDBRANCH   1  18
BRANCH   5  25
ATOM     25  C   UNL     1       6.300  -5.609  25.581  0.00  0.00    +0.077 C 
BRANCH  25  26
ATOM     26  C   UNL     1       5.030  -6.106  24.925  0.00  0.00    -0.006 A 
ATOM     27  C   UNL     1       4.730  -5.818  23.584  0.00  0.00    +0.007 A 
ATOM     28  C   UNL     1       3.498  -6.183  23.031  0.00  0.00    +0.002 A 
ATOM     29  C   UNL     1       2.543  -6.832  23.812  0.00  0.00    +0.023 A 
ATOM     30  C   UNL     1       2.837  -7.147  25.138  0.00  0.00    +0.076 A 
ATOM     31 CL   UNL     1       1.646  -7.937  26.100  0.00  0.00    -0.081 Cl
ATOM     32  C   UNL     1       4.074  -6.796  25.682  0.00  0.00    +0.145 A 
ATOM     33  F   UNL     1       4.349  -7.106  26.959  0.00  0.00    -0.204 F 
ENDBRANCH  25  26
ENDBRANCH   5  25
TORSDOF 9
ENDMDL
MODEL 7
REMARK VINA RESULT:      -6.4      3.117      4.751
REMARK  Name = 
REMARK  12 active torsions:
REMARK  status: ('A' for Active; 'I' for Inactive)
REMARK    1  A    between atoms: C_1  and  C_2
REMARK    2  A    between atoms: C_2  and  C_3
REMARK    3  A    between atoms: C_2  and  C_4
REMARK    4  A    between atoms: C_4  and  C_5
REMARK    5  A    between atoms: C_4  and  N_7
REMARK    6  A    between atoms: C_5  and  O_6
REMARK    7  A    between atoms: C_9  and  C_29
REMARK    8  A    between atoms: C_15  and  O_27
REMARK    9  A    between atoms: C_16  and  C_18
REMARK   10  A    between atoms: C_18  and  C_19
REMARK   11  A    between atoms: O_27  and  C_28
REMARK   12  A    between atoms: C_29  and  O_31
REMARK                            x       y       z     vdW  Elec       q    Type
REMARK                         _______ _______ _______ _____ _____    ______ ____
ROOT
ATOM      1  N   UNL     1       7.267  -3.491  25.446  0.00  0.00    -0.323 N 
ATOM      2  C   UNL     1       8.005  -2.318  25.249  0.00  0.00    +0.044 A 
ATOM      3  C   UNL     1       8.996  -2.169  24.265  0.00  0.00    +0.069 A 
ATOM      4  C   UNL     1       9.658  -0.942  23.998  0.00  0.00    +0.125 A 
ATOM      5  C   UNL     1       9.348   0.199  24.748  0.00  0.00    -0.001 A 
ATOM      6  C   UNL     1       8.415   0.053  25.785  0.00  0.00    +0.020 A 
ATOM      7  C   UNL     1       7.733  -1.158  25.997  0.00  0.00    +0.040 A 
ATOM      8  C   UNL     1       6.577  -1.123  26.910  0.00  0.00    +0.180 C 
ATOM      9  O   UNL     1       6.383  -0.165  27.656  0.00  0.00    -0.291 OA
ATOM     10  C   UNL     1       5.566  -2.217  26.754  0.00  0.00    +0.185 C 
ATOM     11  C   UNL     1       6.330  -3.517  26.591  0.00  0.00    +0.128 C 
ENDROOT
BRANCH   4  12
ATOM     12  O   UNL     1      10.451  -1.005  22.883  0.00  0.00    -0.495 OA
ATOM     13  C   UNL     1       9.833  -0.867  21.611  0.00  0.00    +0.277 C 
ENDBRANCH   4  12
BRANCH  10  14
ATOM     14  C   UNL     1       4.588  -2.353  27.897  0.00  0.00    +0.317 C 
ATOM     15  O   UNL     1       4.520  -3.356  28.596  0.00  0.00    -0.250 OA
BRANCH  14  16
ATOM     16  O   UNL     1       3.720  -1.332  28.065  0.00  0.00    -0.480 OA
ATOM     17  H   UNL     1       3.055  -1.483  28.782  0.00  0.00    +0.295 HD
ENDBRANCH  14  16
ENDBRANCH  10  14
BRANCH   1  18
ATOM     18  C   UNL     1       7.429  -4.738  24.615  0.00  0.00    +0.101 C 
BRANCH  18  20
ATOM     19  C   UNL     1       7.343  -5.805  22.267  0.00  0.00    +0.009 C 
ATOM     20  C   UNL     1       7.200  -4.508  23.083  0.00  0.00    +0.005 C 
ATOM     21  C   UNL     1       5.818  -3.922  22.771  0.00  0.00    +0.009 C 
ENDBRANCH  18  20
BRANCH  18  22
ATOM     22  C   UNL     1       8.839  -5.336  24.886  0.00  0.00    +0.178 C 
BRANCH  22  23
ATOM     23  O   UNL     1       8.912  -5.980  26.157  0.00  0.00    -0.393 OA
ATOM     24  H   UNL     1       9.591  -5.494  26.659  0.00  0.00    +0.209 HD
ENDBRANCH  22  23
ENDBRANCH  18  22
ENDBRANCH   1  18
BRANCH   5  25
ATOM     25  C   UNL     1       9.787   1.617  24.463  0.00  0.00    +0.077 C 
BRANCH  25  26
ATOM     26  C   UNL     1       8.766   2.460  23.729  0.00  0.00    -0.006 A 
ATOM     27  C   UNL     1       7.751   1.879  22.952  0.00  0.00    +0.007 A 
ATOM     28  C   UNL     1       6.892   2.674  22.185  0.00  0.00    +0.002 A 
ATOM     29  C   UNL     1       7.041   4.060  22.175  0.00  0.00    +0.023 A 
ATOM     30  C   UNL     1       8.028   4.652  22.961  0.00  0.00    +0.076 A 
ATOM     31 CL   UNL     1       8.215   6.364  22.931  0.00  0.00    -0.081 Cl
ATOM     32  C   UNL     1       8.873   3.857  23.738  0.00  0.00    +0.145 A 
ATOM     33  F   UNL     1       9.820   4.436  24.494  0.00  0.00    -0.204 F 
ENDBRANCH  25  26
ENDBRANCH   5  25
TORSDOF 9
ENDMDL
MODEL 8
REMARK VINA RESULT:      -6.3      1.752      2.528
REMARK  Name = 
REMARK  12 active torsions:
REMARK  status: ('A' for Active; 'I' for Inactive)
REMARK    1  A    between atoms: C_1  and  C_2
REMARK    2  A    between atoms: C_2  and  C_3
REMARK    3  A    between atoms: C_2  and  C_4
REMARK    4  A    between atoms: C_4  and  C_5
REMARK    5  A    between atoms: C_4  and  N_7
REMARK    6  A    between atoms: C_5  and  O_6
REMARK    7  A    between atoms: C_9  and  C_29
REMARK    8  A    between atoms: C_15  and  O_27
REMARK    9  A    between atoms: C_16  and  C_18
REMARK   10  A    between atoms: C_18  and  C_19
REMARK   11  A    between atoms: O_27  and  C_28
REMARK   12  A    between atoms: C_29  and  O_31
REMARK                            x       y       z     vdW  Elec       q    Type
REMARK                         _______ _______ _______ _____ _____    ______ ____
ROOT
ATOM      1  N   UNL     1       5.453  -5.271  24.324  0.00  0.00    -0.323 N 
ATOM      2  C   UNL     1       6.480  -4.385  24.670  0.00  0.00    +0.044 A 
ATOM      3  C   UNL     1       7.035  -3.443  23.787  0.00  0.00    +0.069 A 
ATOM      4  C   UNL     1       7.994  -2.473  24.178  0.00  0.00    +0.125 A 
ATOM      5  C   UNL     1       8.452  -2.433  25.501  0.00  0.00    -0.001 A 
ATOM      6  C   UNL     1       7.965  -3.413  26.379  0.00  0.00    +0.020 A 
ATOM      7  C   UNL     1       6.976  -4.330  25.984  0.00  0.00    +0.040 A 
ATOM      8  C   UNL     1       6.331  -5.116  27.050  0.00  0.00    +0.180 C 
ATOM      9  O   UNL     1       6.812  -5.174  28.181  0.00  0.00    -0.291 OA
ATOM     10  C   UNL     1       4.981  -5.687  26.739  0.00  0.00    +0.185 C 
ATOM     11  C   UNL     1       5.050  -6.269  25.340  0.00  0.00    +0.128 C 
ENDROOT
BRANCH   4  12
ATOM     12  O   UNL     1       8.251  -1.560  23.190  0.00  0.00    -0.495 OA
ATOM     13  C   UNL     1       7.164  -0.799  22.679  0.00  0.00    +0.277 C 
ENDBRANCH   4  12
BRANCH  10  14
ATOM     14  C   UNL     1       4.499  -6.749  27.698  0.00  0.00    +0.317 C 
ATOM     15  O   UNL     1       3.332  -6.837  28.059  0.00  0.00    -0.250 OA
BRANCH  14  16
ATOM     16  O   UNL     1       5.446  -7.564  28.212  0.00  0.00    -0.480 OA
ATOM     17  H   UNL     1       5.092  -8.414  28.574  0.00  0.00    +0.295 HD
ENDBRANCH  14  16
ENDBRANCH  10  14
BRANCH   1  18
ATOM     18  C   UNL     1       4.800  -5.316  22.967  0.00  0.00    +0.101 C 
BRANCH  18  20
ATOM     19  C   UNL     1       6.105  -5.019  20.760  0.00  0.00    +0.009 C 
ATOM     20  C   UNL     1       5.679  -6.000  21.867  0.00  0.00    +0.005 C 
ATOM     21  C   UNL     1       6.957  -6.630  22.436  0.00  0.00    +0.009 C 
ENDBRANCH  18  20
BRANCH  18  22
ATOM     22  C   UNL     1       3.422  -6.025  23.101  0.00  0.00    +0.178 C 
BRANCH  22  23
ATOM     23  O   UNL     1       2.335  -5.111  22.965  0.00  0.00    -0.393 OA
ATOM     24  H   UNL     1       1.530  -5.659  22.961  0.00  0.00    +0.209 HD
ENDBRANCH  22  23
ENDBRANCH  18  22
ENDBRANCH   1  18
BRANCH   5  25
ATOM     25  C   UNL     1       9.293  -1.349  26.137  0.00  0.00    +0.077 C 
BRANCH  25  26
ATOM     26  C   UNL     1       8.911   0.061  25.741  0.00  0.00    -0.006 A 
ATOM     27  C   UNL     1       7.652   0.599  26.050  0.00  0.00    +0.007 A 
ATOM     28  C   UNL     1       7.274   1.858  25.572  0.00  0.00    +0.002 A 
ATOM     29  C   UNL     1       8.145   2.594  24.770  0.00  0.00    +0.023 A 
ATOM     30  C   UNL     1       9.408   2.084  24.476  0.00  0.00    +0.076 A 
ATOM     31 CL   UNL     1      10.471   2.994  23.472  0.00  0.00    -0.081 Cl
ATOM     32  C   UNL     1       9.788   0.834  24.968  0.00  0.00    +0.145 A 
ATOM     33  F   UNL     1      11.008   0.351  24.682  0.00  0.00    -0.204 F 
ENDBRANCH  25  26
ENDBRANCH   5  25
TORSDOF 9
ENDMDL
MODEL 9
REMARK VINA RESULT:      -6.2      4.080      7.557
REMARK  Name = 
REMARK  12 active torsions:
REMARK  status: ('A' for Active; 'I' for Inactive)
REMARK    1  A    between atoms: C_1  and  C_2
REMARK    2  A    between atoms: C_2  and  C_3
REMARK    3  A    between atoms: C_2  and  C_4
REMARK    4  A    between atoms: C_4  and  C_5
REMARK    5  A    between atoms: C_4  and  N_7
REMARK    6  A    between atoms: C_5  and  O_6
REMARK    7  A    between atoms: C_9  and  C_29
REMARK    8  A    between atoms: C_15  and  O_27
REMARK    9  A    between atoms: C_16  and  C_18
REMARK   10  A    between atoms: C_18  and  C_19
REMARK   11  A    between atoms: O_27  and  C_28
REMARK   12  A    between atoms: C_29  and  O_31
REMARK                            x       y       z     vdW  Elec       q    Type
REMARK                         _______ _______ _______ _____ _____    ______ ____
ROOT
ATOM      1  N   UNL     1       7.922  -0.814  23.172  0.00  0.00    -0.323 N 
ATOM      2  C   UNL     1       6.877  -1.743  23.142  0.00  0.00    +0.044 A 
ATOM      3  C   UNL     1       6.708  -2.703  22.130  0.00  0.00    +0.069 A 
ATOM      4  C   UNL     1       5.712  -3.714  22.168  0.00  0.00    +0.125 A 
ATOM      5  C   UNL     1       4.820  -3.780  23.245  0.00  0.00    -0.001 A 
ATOM      6  C   UNL     1       4.925  -2.786  24.229  0.00  0.00    +0.020 A 
ATOM      7  C   UNL     1       5.952  -1.826  24.198  0.00  0.00    +0.040 A 
ATOM      8  C   UNL     1       6.147  -1.019  25.415  0.00  0.00    +0.180 C 
ATOM      9  O   UNL     1       5.297  -0.987  26.303  0.00  0.00    -0.291 OA
ATOM     10  C   UNL     1       7.496  -0.391  25.594  0.00  0.00    +0.185 C 
ATOM     11  C   UNL     1       7.901   0.195  24.254  0.00  0.00    +0.128 C 
ENDROOT
BRANCH   4  12
ATOM     12  O   UNL     1       5.858  -4.632  21.161  0.00  0.00    -0.495 OA
ATOM     13  C   UNL     1       6.747  -5.722  21.369  0.00  0.00    +0.277 C 
ENDBRANCH   4  12
BRANCH  10  14
ATOM     14  C   UNL     1       7.566   0.686  26.651  0.00  0.00    +0.317 C 
ATOM     15  O   UNL     1       7.448   1.877  26.393  0.00  0.00    -0.250 OA
BRANCH  14  16
ATOM     16  O   UNL     1       7.853   0.274  27.905  0.00  0.00    -0.480 OA
ATOM     17  H   UNL     1       8.195   0.991  28.496  0.00  0.00    +0.295 HD
ENDBRANCH  14  16
ENDBRANCH  10  14
BRANCH   1  18
ATOM     18  C   UNL     1       9.010  -0.734  22.132  0.00  0.00    +0.101 C 
BRANCH  18  20
ATOM     19  C   UNL     1       7.824   1.465  21.486  0.00  0.00    +0.009 C 
ATOM     20  C   UNL     1       9.146   0.678  21.469  0.00  0.00    +0.005 C 
ATOM     21  C   UNL     1      10.207   1.552  22.150  0.00  0.00    +0.009 C 
ENDBRANCH  18  20
BRANCH  18  22
ATOM     22  C   UNL     1      10.352  -1.180  22.780  0.00  0.00    +0.178 C 
BRANCH  22  23
ATOM     23  O   UNL     1      10.279  -2.505  23.303  0.00  0.00    -0.393 OA
ATOM     24  H   UNL     1      11.083  -2.956  22.987  0.00  0.00    +0.209 HD
ENDBRANCH  22  23
ENDBRANCH  18  22
ENDBRANCH   1  18
BRANCH   5  25
ATOM     25  C   UNL     1       3.854  -4.901  23.554  0.00  0.00    +0.077 C 
BRANCH  25  26
ATOM     26  C   UNL     1       3.911  -5.411  24.979  0.00  0.00    -0.006 A 
ATOM     27  C   UNL     1       4.982  -6.192  25.441  0.00  0.00    +0.007 A 
ATOM     28  C   UNL     1       4.959  -6.753  26.722  0.00  0.00    +0.002 A 
ATOM     29  C   UNL     1       3.860  -6.551  27.556  0.00  0.00    +0.023 A 
ATOM     30  C   UNL     1       2.801  -5.757  27.120  0.00  0.00    +0.076 A 
ATOM     31 CL   UNL     1       1.442  -5.525  28.152  0.00  0.00    -0.081 Cl
ATOM     32  C   UNL     1       2.835  -5.184  25.847  0.00  0.00    +0.145 A 
ATOM     33  F   UNL     1       1.812  -4.419  25.436  0.00  0.00    -0.204 F 
ENDBRANCH  25  26
ENDBRANCH   5  25
TORSDOF 9
ENDMDL
