MODEL 1
REMARK VINA RESULT:      -6.4      0.000      0.000
REMARK  Name = 
REMARK  6 active torsions:
REMARK  status: ('A' for Active; 'I' for Inactive)
REMARK    1  A    between atoms: C6_3  and  N6_22
REMARK    2  A    between atoms: N9_7  and  C1*_10
REMARK    3  A    between atoms: C2*_11  and  O2*_21
REMARK    4  A    between atoms: C3*_13  and  O3*_20
REMARK    5  A    between atoms: C4*_15  and  C5*_18
REMARK    6  A    between atoms: C5*_18  and  O5*_19
REMARK                            x       y       z     vdW  Elec       q    Type
REMARK                         _______ _______ _______ _____ _____    ______ ____
ROOT
ATOM      1  C2    A A   1       6.891   1.797  22.854  0.00  0.00    +0.225 A 
ATOM      2  N3    A A   1       6.661   0.474  23.027  0.00  0.00    -0.216 NA
ATOM      3  C4    A A   1       7.726  -0.255  22.645  0.00  0.00    +0.167 A 
ATOM      4  N9    A A   1       7.876  -1.614  22.653  0.00  0.00    -0.286 N 
ATOM      5  C8    A A   1       9.137  -1.884  22.173  0.00  0.00    +0.203 A 
ATOM      6  N7    A A   1       9.799  -0.792  21.864  0.00  0.00    -0.231 NA
ATOM      7  C5    A A   1       8.931   0.236  22.153  0.00  0.00    +0.147 A 
ATOM      8  C6    A A   1       9.054   1.631  22.035  0.00  0.00    +0.147 A 
ATOM      9  N1    A A   1       8.001   2.403  22.382  0.00  0.00    -0.219 NA
ENDROOT
BRANCH   4  10
ATOM     10  C1*   A A   1       7.004  -2.635  23.181  0.00  0.00    +0.253 C 
ATOM     11  O4*   A A   1       7.726  -3.890  23.252  0.00  0.00    -0.346 OA
ATOM     12  C4*   A A   1       6.745  -4.961  23.225  0.00  0.00    +0.177 C 
ATOM     13  C3*   A A   1       5.365  -4.290  23.193  0.00  0.00    +0.178 C 
ATOM     14  C2*   A A   1       5.659  -2.956  22.516  0.00  0.00    +0.195 C 
BRANCH  13  15
ATOM     15  O3*   A A   1       4.359  -5.031  22.527  0.00  0.00    -0.386 OA
ATOM     16  H3*   A A   1       3.547  -4.479  22.587  0.00  0.00    +0.210 HD
ENDBRANCH  13  15
BRANCH  14  17
ATOM     17  O2*   A A   1       5.709  -3.214  21.106  0.00  0.00    -0.385 OA
ATOM     18  H2*   A A   1       5.494  -4.167  20.991  0.00  0.00    +0.210 HD
ENDBRANCH  14  17
BRANCH  12  19
ATOM     19  C5*   A A   1       7.040  -5.911  22.054  0.00  0.00    +0.190 C 
BRANCH  19  20
ATOM     20  O5*   A A   1       6.205  -7.072  22.083  0.00  0.00    -0.392 OA
ATOM     21  H5*   A A   1       5.842  -7.212  21.193  0.00  0.00    +0.210 HD
ENDBRANCH  19  20
ENDBRANCH  12  19
ENDBRANCH   4  10
BRANCH   8  22
ATOM     22  N6    A A   1      10.204   2.252  21.566  0.00  0.00    -0.341 N 
ATOM     23  H61   A A   1      11.057   1.828  21.916  0.00  0.00    +0.144 HD
ATOM     24  H62   A A   1      10.154   2.453  20.576  0.00  0.00    +0.144 HD
ENDBRANCH   8  22
TORSDOF 6
ENDMDL
MODEL 2
REMARK VINA RESULT:      -6.2      3.355      5.836
REMARK  Name = 
REMARK  6 active torsions:
REMARK  status: ('A' for Active; 'I' for Inactive)
REMARK    1  A    between atoms: C6_3  and  N6_22
REMARK    2  A    between atoms: N9_7  and  C1*_10
REMARK    3  A    between atoms: C2*_11  and  O2*_21
REMARK    4  A    between atoms: C3*_13  and  O3*_20
REMARK    5  A    between atoms: C4*_15  and  C5*_18
REMARK    6  A    between atoms: C5*_18  and  O5*_19
REMARK                            x       y       z     vdW  Elec       q    Type
REMARK                         _______ _______ _______ _____ _____    ______ ____
ROOT
ATOM      1  C2    A A   1       5.820  -3.328  21.574  0.00  0.00    +0.225 A 
ATOM      2  N3    A A   1       6.728  -2.605  22.269  0.00  0.00    -0.216 NA
ATOM      3  C4    A A   1       7.515  -3.406  23.012  0.00  0.00    +0.167 A 
ATOM      4  N9    A A   1       8.533  -3.056  23.855  0.00  0.00    -0.286 N 
ATOM      5  C8    A A   1       9.037  -4.221  24.385  0.00  0.00    +0.203 A 
ATOM      6  N7    A A   1       8.413  -5.286  23.935  0.00  0.00    -0.231 NA
ATOM      7  C5    A A   1       7.458  -4.794  23.075  0.00  0.00    +0.147 A 
ATOM      8  C6    A A   1       6.481  -5.430  22.293  0.00  0.00    +0.147 A 
ATOM      9  N1    A A   1       5.649  -4.667  21.550  0.00  0.00    -0.219 NA
ENDROOT
BRANCH   4  10
ATOM     10  C1*   A A   1       9.132  -1.764  24.092  0.00  0.00    +0.253 C 
ATOM     11  O4*   A A   1       8.113  -0.844  24.558  0.00  0.00    -0.346 OA
ATOM     12  C4*   A A   1       8.565   0.502  24.249  0.00  0.00    +0.177 C 
ATOM     13  C3*   A A   1       9.955   0.362  23.615  0.00  0.00    +0.178 C 
ATOM     14  C2*   A A   1       9.896  -1.026  22.986  0.00  0.00    +0.195 C 
BRANCH  13  15
ATOM     15  O3*   A A   1      10.287   1.372  22.680  0.00  0.00    -0.386 OA
ATOM     16  H3*   A A   1       9.691   2.126  22.889  0.00  0.00    +0.210 HD
ENDBRANCH  13  15
BRANCH  14  17
ATOM     17  O2*   A A   1       9.201  -0.882  21.739  0.00  0.00    -0.385 OA
ATOM     18  H2*   A A   1       9.728  -0.251  21.199  0.00  0.00    +0.210 HD
ENDBRANCH  14  17
BRANCH  12  19
ATOM     19  C5*   A A   1       7.518   1.219  23.383  0.00  0.00    +0.190 C 
BRANCH  19  20
ATOM     20  O5*   A A   1       6.587   0.304  22.800  0.00  0.00    -0.392 OA
ATOM     21  H5*   A A   1       6.999  -0.576  22.768  0.00  0.00    +0.210 HD
ENDBRANCH  19  20
ENDBRANCH  12  19
ENDBRANCH   4  10
BRANCH   8  22
ATOM     22  N6    A A   1       6.320  -6.810  22.257  0.00  0.00    -0.341 N 
ATOM     23  H61   A A   1       6.989  -7.304  22.838  0.00  0.00    +0.144 HD
ATOM     24  H62   A A   1       5.349  -7.084  22.327  0.00  0.00    +0.144 HD
ENDBRANCH   8  22
TORSDOF 6
ENDMDL
MODEL 3
REMARK VINA RESULT:      -6.2      2.527      3.245
REMARK  Name = 
REMARK  6 active torsions:
REMARK  status: ('A' for Active; 'I' for Inactive)
REMARK    1  A    between atoms: C6_3  and  N6_22
REMARK    2  A    between atoms: N9_7  and  C1*_10
REMARK    3  A    between atoms: C2*_11  and  O2*_21
REMARK    4  A    between atoms: C3*_13  and  O3*_20
REMARK    5  A    between atoms: C4*_15  and  C5*_18
REMARK    6  A    between atoms: C5*_18  and  O5*_19
REMARK                            x       y       z     vdW  Elec       q    Type
REMARK                         _______ _______ _______ _____ _____    ______ ____
ROOT
ATOM      1  C2    A A   1      10.566   0.891  24.787  0.00  0.00    +0.225 A 
ATOM      2  N3    A A   1      10.185  -0.393  24.984  0.00  0.00    -0.216 NA
ATOM      3  C4    A A   1       9.593  -0.894  23.884  0.00  0.00    +0.167 A 
ATOM      4  N9    A A   1       9.064  -2.141  23.695  0.00  0.00    -0.286 N 
ATOM      5  C8    A A   1       8.576  -2.181  22.409  0.00  0.00    +0.203 A 
ATOM      6  N7    A A   1       8.759  -1.049  21.768  0.00  0.00    -0.231 NA
ATOM      7  C5    A A   1       9.395  -0.233  22.677  0.00  0.00    +0.147 A 
ATOM      8  C6    A A   1       9.851   1.093  22.591  0.00  0.00    +0.147 A 
ATOM      9  N1    A A   1      10.428   1.649  23.679  0.00  0.00    -0.219 NA
ENDROOT
BRANCH   4  10
ATOM     10  C1*   A A   1       9.099  -3.298  24.556  0.00  0.00    +0.253 C 
ATOM     11  O4*   A A   1       8.320  -4.364  23.955  0.00  0.00    -0.346 OA
ATOM     12  C4*   A A   1       7.900  -5.254  25.023  0.00  0.00    +0.177 C 
ATOM     13  C3*   A A   1       8.516  -4.706  26.318  0.00  0.00    +0.178 C 
ATOM     14  C2*   A A   1       8.648  -3.217  26.019  0.00  0.00    +0.195 C 
BRANCH  13  15
ATOM     15  O3*   A A   1       7.766  -4.965  27.490  0.00  0.00    -0.386 OA
ATOM     16  H3*   A A   1       6.838  -4.733  27.262  0.00  0.00    +0.210 HD
ENDBRANCH  13  15
BRANCH  14  17
ATOM     17  O2*   A A   1       7.354  -2.638  26.239  0.00  0.00    -0.385 OA
ATOM     18  H2*   A A   1       7.428  -1.690  25.991  0.00  0.00    +0.210 HD
ENDBRANCH  14  17
BRANCH  12  19
ATOM     19  C5*   A A   1       6.369  -5.379  25.028  0.00  0.00    +0.190 C 
BRANCH  19  20
ATOM     20  O5*   A A   1       5.912  -6.334  25.988  0.00  0.00    -0.392 OA
ATOM     21  H5*   A A   1       4.970  -6.170  26.161  0.00  0.00    +0.210 HD
ENDBRANCH  19  20
ENDBRANCH  12  19
ENDBRANCH   4  10
BRANCH   8  22
ATOM     22  N6    A A   1       9.723   1.864  21.443  0.00  0.00    -0.341 N 
ATOM     23  H61   A A   1      10.433   2.584  21.366  0.00  0.00    +0.144 HD
ATOM     24  H62   A A   1       9.537   1.302  20.623  0.00  0.00    +0.144 HD
ENDBRANCH   8  22
TORSDOF 6
ENDMDL
MODEL 4
REMARK VINA RESULT:      -6.1      1.889      2.387
REMARK  Name = 
REMARK  6 active torsions:
REMARK  status: ('A' for Active; 'I' for Inactive)
REMARK    1  A    between atoms: C6_3  and  N6_22
REMARK    2  A    between atoms: N9_7  and  C1*_10
REMARK    3  A    between atoms: C2*_11  and  O2*_21
REMARK    4  A    between atoms: C3*_13  and  O3*_20
REMARK    5  A    between atoms: C4*_15  and  C5*_18
REMARK    6  A    between atoms: C5*_18  and  O5*_19
REMARK                            x       y       z     vdW  Elec       q    Type
REMARK                         _______ _______ _______ _____ _____    ______ ____
ROOT
ATOM      1  C2    A A   1       6.879   1.358  22.439  0.00  0.00    +0.225 A 
ATOM      2  N3    A A   1       6.908   0.211  23.157  0.00  0.00    -0.216 NA
ATOM      3  C4    A A   1       8.172  -0.222  23.323  0.00  0.00    +0.167 A 
ATOM      4  N9    A A   1       8.611  -1.343  23.973  0.00  0.00    -0.286 N 
ATOM      5  C8    A A   1       9.983  -1.354  23.876  0.00  0.00    +0.203 A 
ATOM      6  N7    A A   1      10.447  -0.320  23.212  0.00  0.00    -0.231 NA
ATOM      7  C5    A A   1       9.327   0.399  22.860  0.00  0.00    +0.147 A 
ATOM      8  C6    A A   1       9.166   1.595  22.141  0.00  0.00    +0.147 A 
ATOM      9  N1    A A   1       7.914   2.056  21.926  0.00  0.00    -0.219 NA
ENDROOT
BRANCH   4  10
ATOM     10  C1*   A A   1       7.873  -2.299  24.762  0.00  0.00    +0.253 C 
ATOM     11  O4*   A A   1       8.784  -2.979  25.663  0.00  0.00    -0.346 OA
ATOM     12  C4*   A A   1       8.186  -4.258  26.006  0.00  0.00    +0.177 C 
ATOM     13  C3*   A A   1       6.820  -4.304  25.309  0.00  0.00    +0.178 C 
ATOM     14  C2*   A A   1       7.031  -3.398  24.101  0.00  0.00    +0.195 C 
BRANCH  13  15
ATOM     15  O3*   A A   1       6.378  -5.600  24.950  0.00  0.00    -0.386 OA
ATOM     16  H3*   A A   1       6.637  -6.180  25.701  0.00  0.00    +0.210 HD
ENDBRANCH  13  15
BRANCH  14  17
ATOM     17  O2*   A A   1       7.707  -4.187  23.111  0.00  0.00    -0.385 OA
ATOM     18  H2*   A A   1       7.343  -5.097  23.187  0.00  0.00    +0.210 HD
ENDBRANCH  14  17
BRANCH  12  19
ATOM     19  C5*   A A   1       9.148  -5.399  25.641  0.00  0.00    +0.190 C 
BRANCH  19  20
ATOM     20  O5*   A A   1      10.211  -4.954  24.795  0.00  0.00    -0.392 OA
ATOM     21  H5*   A A   1      10.753  -5.722  24.551  0.00  0.00    +0.210 HD
ENDBRANCH  19  20
ENDBRANCH  12  19
ENDBRANCH   4  10
BRANCH   8  22
ATOM     22  N6    A A   1      10.235   2.320  21.630  0.00  0.00    -0.341 N 
ATOM     23  H61   A A   1      10.611   1.925  20.775  0.00  0.00    +0.144 HD
ATOM     24  H62   A A   1      10.065   3.317  21.648  0.00  0.00    +0.144 HD
ENDBRANCH   8  22
TORSDOF 6
ENDMDL
MODEL 5
REMARK VINA RESULT:      -6.0      1.963      2.790
REMARK  Name = 
REMARK  6 active torsions:
REMARK  status: ('A' for Active; 'I' for Inactive)
REMARK    1  A    between atoms: C6_3  and  N6_22
REMARK    2  A    between atoms: N9_7  and  C1*_10
REMARK    3  A    between atoms: C2*_11  and  O2*_21
REMARK    4  A    between atoms: C3*_13  and  O3*_20
REMARK    5  A    between atoms: C4*_15  and  C5*_18
REMARK    6  A    between atoms: C5*_18  and  O5*_19
REMARK                            x       y       z     vdW  Elec       q    Type
REMARK                         _______ _______ _______ _____ _____    ______ ____
ROOT
ATOM      1  C2    A A   1       9.698  -0.323  21.895  0.00  0.00    +0.225 A 
ATOM      2  N3    A A   1       8.781  -1.318  21.951  0.00  0.00    -0.216 NA
ATOM      3  C4    A A   1       8.542  -1.680  23.226  0.00  0.00    +0.167 A 
ATOM      4  N9    A A   1       7.698  -2.650  23.691  0.00  0.00    -0.286 N 
ATOM      5  C8    A A   1       7.794  -2.643  25.064  0.00  0.00    +0.203 A 
ATOM      6  N7    A A   1       8.637  -1.736  25.503  0.00  0.00    -0.231 NA
ATOM      7  C5    A A   1       9.113  -1.124  24.365  0.00  0.00    +0.147 A 
ATOM      8  C6    A A   1      10.039  -0.084  24.175  0.00  0.00    +0.147 A 
ATOM      9  N1    A A   1      10.333   0.296  22.912  0.00  0.00    -0.219 NA
ENDROOT
BRANCH   4  10
ATOM     10  C1*   A A   1       6.745  -3.464  22.977  0.00  0.00    +0.253 C 
ATOM     11  O4*   A A   1       5.705  -3.895  23.891  0.00  0.00    -0.346 OA
ATOM     12  C4*   A A   1       5.119  -5.108  23.346  0.00  0.00    +0.177 C 
ATOM     13  C3*   A A   1       5.821  -5.369  22.006  0.00  0.00    +0.178 C 
ATOM     14  C2*   A A   1       7.184  -4.719  22.212  0.00  0.00    +0.195 C 
BRANCH  13  15
ATOM     15  O3*   A A   1       5.915  -6.734  21.641  0.00  0.00    -0.386 OA
ATOM     16  H3*   A A   1       5.022  -6.977  21.310  0.00  0.00    +0.210 HD
ENDBRANCH  13  15
BRANCH  14  17
ATOM     17  O2*   A A   1       7.977  -5.655  22.957  0.00  0.00    -0.385 OA
ATOM     18  H2*   A A   1       8.726  -5.143  23.335  0.00  0.00    +0.210 HD
ENDBRANCH  14  17
BRANCH  12  19
ATOM     19  C5*   A A   1       5.222  -6.245  24.374  0.00  0.00    +0.190 C 
BRANCH  19  20
ATOM     20  O5*   A A   1       4.472  -7.396  23.975  0.00  0.00    -0.392 OA
ATOM     21  H5*   A A   1       3.526  -7.183  24.034  0.00  0.00    +0.210 HD
ENDBRANCH  19  20
ENDBRANCH  12  19
ENDBRANCH   4  10
BRANCH   8  22
ATOM     22  N6    A A   1      10.677   0.562  25.226  0.00  0.00    -0.341 N 
ATOM     23  H61   A A   1      11.649   0.290  25.329  0.00  0.00    +0.144 HD
ATOM     24  H62   A A   1      10.463   1.550  25.254  0.00  0.00    +0.144 HD
ENDBRANCH   8  22
TORSDOF 6
ENDMDL
MODEL 6
REMARK VINA RESULT:      -6.0      3.911      6.196
REMARK  Name = 
REMARK  6 active torsions:
REMARK  status: ('A' for Active; 'I' for Inactive)
REMARK    1  A    between atoms: C6_3  and  N6_22
REMARK    2  A    between atoms: N9_7  and  C1*_10
REMARK    3  A    between atoms: C2*_11  and  O2*_21
REMARK    4  A    between atoms: C3*_13  and  O3*_20
REMARK    5  A    between atoms: C4*_15  and  C5*_18
REMARK    6  A    between atoms: C5*_18  and  O5*_19
REMARK                            x       y       z     vdW  Elec       q    Type
REMARK                         _______ _______ _______ _____ _____    ______ ____
ROOT
ATOM      1  C2    A A   1       7.012  -1.342  26.457  0.00  0.00    +0.225 A 
ATOM      2  N3    A A   1       7.887  -0.832  25.559  0.00  0.00    -0.216 NA
ATOM      3  C4    A A   1       8.646  -1.805  25.019  0.00  0.00    +0.167 A 
ATOM      4  N9    A A   1       9.645  -1.691  24.093  0.00  0.00    -0.286 N 
ATOM      5  C8    A A   1      10.120  -2.961  23.854  0.00  0.00    +0.203 A 
ATOM      6  N7    A A   1       9.491  -3.872  24.561  0.00  0.00    -0.231 NA
ATOM      7  C5    A A   1       8.566  -3.166  25.296  0.00  0.00    +0.147 A 
ATOM      8  C6    A A   1       7.603  -3.573  26.235  0.00  0.00    +0.147 A 
ATOM      9  N1    A A   1       6.836  -2.629  26.824  0.00  0.00    -0.219 NA
ENDROOT
BRANCH   4  10
ATOM     10  C1*   A A   1      10.082  -0.537  23.345  0.00  0.00    +0.253 C 
ATOM     11  O4*   A A   1      10.469   0.512  24.269  0.00  0.00    -0.346 OA
ATOM     12  C4*   A A   1      10.352   1.778  23.566  0.00  0.00    +0.177 C 
ATOM     13  C3*   A A   1       9.925   1.444  22.131  0.00  0.00    +0.178 C 
ATOM     14  C2*   A A   1       9.174   0.128  22.303  0.00  0.00    +0.195 C 
BRANCH  13  15
ATOM     15  O3*   A A   1       9.144   2.440  21.495  0.00  0.00    -0.386 OA
ATOM     16  H3*   A A   1       9.759   3.191  21.337  0.00  0.00    +0.210 HD
ENDBRANCH  13  15
BRANCH  14  17
ATOM     17  O2*   A A   1       7.855   0.466  22.755  0.00  0.00    -0.385 OA
ATOM     18  H2*   A A   1       7.652  -0.144  23.499  0.00  0.00    +0.210 HD
ENDBRANCH  14  17
BRANCH  12  19
ATOM     19  C5*   A A   1       9.405   2.715  24.332  0.00  0.00    +0.190 C 
BRANCH  19  20
ATOM     20  O5*   A A   1       8.648   2.017  25.325  0.00  0.00    -0.392 OA
ATOM     21  H5*   A A   1       9.239   1.796  26.063  0.00  0.00    +0.210 HD
ENDBRANCH  19  20
ENDBRANCH  12  19
ENDBRANCH   4  10
BRANCH   8  22
ATOM     22  N6    A A   1       7.413  -4.900  26.596  0.00  0.00    -0.341 N 
ATOM     23  H61   A A   1       6.567  -5.302  26.207  0.00  0.00    +0.144 HD
ATOM     24  H62   A A   1       8.264  -5.442  26.524  0.00  0.00    +0.144 HD
ENDBRANCH   8  22
TORSDOF 6
ENDMDL
MODEL 7
REMARK VINA RESULT:      -5.9      3.756      6.336
REMARK  Name = 
REMARK  6 active torsions:
REMARK  status: ('A' for Active; 'I' for Inactive)
REMARK    1  A    between atoms: C6_3  and  N6_22
REMARK    2  A    between atoms: N9_7  and  C1*_10
REMARK    3  A    between atoms: C2*_11  and  O2*_21
REMARK    4  A    between atoms: C3*_13  and  O3*_20
REMARK    5  A    between atoms: C4*_15  and  C5*_18
REMARK    6  A    between atoms: C5*_18  and  O5*_19
REMARK                            x       y       z     vdW  Elec       q    Type
REMARK                         _______ _______ _______ _____ _____    ______ ____
ROOT
ATOM      1  C2    A A   1       4.685  -4.716  24.706  0.00  0.00    +0.225 A 
ATOM      2  N3    A A   1       5.818  -3.986  24.580  0.00  0.00    -0.216 NA
ATOM      3  C4    A A   1       6.744  -4.375  25.476  0.00  0.00    +0.167 A 
ATOM      4  N9    A A   1       8.002  -3.875  25.673  0.00  0.00    -0.286 N 
ATOM      5  C8    A A   1       8.568  -4.598  26.698  0.00  0.00    +0.203 A 
ATOM      6  N7    A A   1       7.760  -5.524  27.163  0.00  0.00    -0.231 NA
ATOM      7  C5    A A   1       6.614  -5.397  26.410  0.00  0.00    +0.147 A 
ATOM      8  C6    A A   1       5.395  -6.094  26.430  0.00  0.00    +0.147 A 
ATOM      9  N1    A A   1       4.424  -5.722  25.568  0.00  0.00    -0.219 NA
ENDROOT
BRANCH   4  10
ATOM     10  C1*   A A   1       8.733  -2.892  24.911  0.00  0.00    +0.253 C 
ATOM     11  O4*   A A   1       8.035  -1.622  24.976  0.00  0.00    -0.346 OA
ATOM     12  C4*   A A   1       8.427  -0.848  23.810  0.00  0.00    +0.177 C 
ATOM     13  C3*   A A   1       9.457  -1.694  23.049  0.00  0.00    +0.178 C 
ATOM     14  C2*   A A   1       9.067  -3.118  23.431  0.00  0.00    +0.195 C 
BRANCH  13  15
ATOM     15  O3*   A A   1       9.476  -1.489  21.648  0.00  0.00    -0.386 OA
ATOM     16  H3*   A A   1      10.259  -1.988  21.323  0.00  0.00    +0.210 HD
ENDBRANCH  13  15
BRANCH  14  17
ATOM     17  O2*   A A   1       7.960  -3.478  22.592  0.00  0.00    -0.385 OA
ATOM     18  H2*   A A   1       8.054  -2.951  21.767  0.00  0.00    +0.210 HD
ENDBRANCH  14  17
BRANCH  12  19
ATOM     19  C5*   A A   1       7.181  -0.450  23.004  0.00  0.00    +0.190 C 
BRANCH  19  20
ATOM     20  O5*   A A   1       6.066  -1.299  23.287  0.00  0.00    -0.392 OA
ATOM     21  H5*   A A   1       6.212  -2.154  22.849  0.00  0.00    +0.210 HD
ENDBRANCH  19  20
ENDBRANCH  12  19
ENDBRANCH   4  10
BRANCH   8  22
ATOM     22  N6    A A   1       5.136  -7.141  27.306  0.00  0.00    -0.341 N 
ATOM     23  H61   A A   1       5.542  -7.001  28.225  0.00  0.00    +0.144 HD
ATOM     24  H62   A A   1       4.173  -7.447  27.262  0.00  0.00    +0.144 HD
ENDBRANCH   8  22
TORSDOF 6
ENDMDL
MODEL 8
REMARK VINA RESULT:      -5.9      3.532      6.294
REMARK  Name = 
REMARK  6 active torsions:
REMARK  status: ('A' for Active; 'I' for Inactive)
REMARK    1  A    between atoms: C6_3  and  N6_22
REMARK    2  A    between atoms: N9_7  and  C1*_10
REMARK    3  A    between atoms: C2*_11  and  O2*_21
REMARK    4  A    between atoms: C3*_13  and  O3*_20
REMARK    5  A    between atoms: C4*_15  and  C5*_18
REMARK    6  A    between atoms: C5*_18  and  O5*_19
REMARK                            x       y       z     vdW  Elec       q    Type
REMARK                         _______ _______ _______ _____ _____    ______ ____
ROOT
ATOM      1  C2    A A   1       6.621  -4.819  22.269  0.00  0.00    +0.225 A 
ATOM      2  N3    A A   1       7.411  -3.720  22.240  0.00  0.00    -0.216 NA
ATOM      3  C4    A A   1       7.692  -3.297  23.487  0.00  0.00    +0.167 A 
ATOM      4  N9    A A   1       8.441  -2.219  23.872  0.00  0.00    -0.286 N 
ATOM      5  C8    A A   1       8.441  -2.199  25.249  0.00  0.00    +0.203 A 
ATOM      6  N7    A A   1       7.747  -3.189  25.764  0.00  0.00    -0.231 NA
ATOM      7  C5    A A   1       7.272  -3.885  24.675  0.00  0.00    +0.147 A 
ATOM      8  C6    A A   1       6.469  -5.033  24.572  0.00  0.00    +0.147 A 
ATOM      9  N1    A A   1       6.138  -5.481  23.341  0.00  0.00    -0.219 NA
ENDROOT
BRANCH   4  10
ATOM     10  C1*   A A   1       9.236  -1.316  23.076  0.00  0.00    +0.253 C 
ATOM     11  O4*   A A   1      10.162  -0.608  23.938  0.00  0.00    -0.346 OA
ATOM     12  C4*   A A   1      10.519   0.632  23.271  0.00  0.00    +0.177 C 
ATOM     13  C3*   A A   1       9.803   0.621  21.914  0.00  0.00    +0.178 C 
ATOM     14  C2*   A A   1       8.582  -0.250  22.189  0.00  0.00    +0.195 C 
BRANCH  13  15
ATOM     15  O3*   A A   1       9.460   1.900  21.412  0.00  0.00    -0.386 OA
ATOM     16  H3*   A A   1      10.231   2.475  21.617  0.00  0.00    +0.210 HD
ENDBRANCH  13  15
BRANCH  14  17
ATOM     17  O2*   A A   1       7.616   0.591  22.837  0.00  0.00    -0.385 OA
ATOM     18  H2*   A A   1       7.180   0.034  23.520  0.00  0.00    +0.210 HD
ENDBRANCH  14  17
BRANCH  12  19
ATOM     19  C5*   A A   1      10.189   1.827  24.178  0.00  0.00    +0.190 C 
BRANCH  19  20
ATOM     20  O5*   A A   1       9.266   1.476  25.212  0.00  0.00    -0.392 OA
ATOM     21  H5*   A A   1       9.770   1.174  25.986  0.00  0.00    +0.210 HD
ENDBRANCH  19  20
ENDBRANCH  12  19
ENDBRANCH   4  10
BRANCH   8  22
ATOM     22  N6    A A   1       5.989  -5.722  25.678  0.00  0.00    -0.341 N 
ATOM     23  H61   A A   1       6.083  -6.729  25.592  0.00  0.00    +0.144 HD
ATOM     24  H62   A A   1       6.280  -5.299  26.549  0.00  0.00    +0.144 HD
ENDBRANCH   8  22
TORSDOF 6
ENDMDL
MODEL 9
REMARK VINA RESULT:      -5.9      3.461      6.277
REMARK  Name = 
REMARK  6 active torsions:
REMARK  status: ('A' for Active; 'I' for Inactive)
REMARK    1  A    between atoms: C6_3  and  N6_22
REMARK    2  A    between atoms: N9_7  and  C1*_10
REMARK    3  A    between atoms: C2*_11  and  O2*_21
REMARK    4  A    between atoms: C3*_13  and  O3*_20
REMARK    5  A    between atoms: C4*_15  and  C5*_18
REMARK    6  A    between atoms: C5*_18  and  O5*_19
REMARK                            x       y       z     vdW  Elec       q    Type
REMARK                         _______ _______ _______ _____ _____    ______ ____
ROOT
ATOM      1  C2    A A   1       8.093  -5.061  26.516  0.00  0.00    +0.225 A 
ATOM      2  N3    A A   1       7.937  -4.202  25.481  0.00  0.00    -0.216 NA
ATOM      3  C4    A A   1       6.723  -4.342  24.917  0.00  0.00    +0.167 A 
ATOM      4  N9    A A   1       6.198  -3.671  23.847  0.00  0.00    -0.286 N 
ATOM      5  C8    A A   1       4.927  -4.161  23.648  0.00  0.00    +0.203 A 
ATOM      6  N7    A A   1       4.608  -5.094  24.517  0.00  0.00    -0.231 NA
ATOM      7  C5    A A   1       5.721  -5.219  25.318  0.00  0.00    +0.147 A 
ATOM      8  C6    A A   1       5.998  -6.048  26.418  0.00  0.00    +0.147 A 
ATOM      9  N1    A A   1       7.214  -5.962  27.001  0.00  0.00    -0.219 NA
ENDROOT
BRANCH   4  10
ATOM     10  C1*   A A   1       6.732  -2.553  23.107  0.00  0.00    +0.253 C 
ATOM     11  O4*   A A   1       7.967  -2.954  22.463  0.00  0.00    -0.346 OA
ATOM     12  C4*   A A   1       8.747  -1.751  22.227  0.00  0.00    +0.177 C 
ATOM     13  C3*   A A   1       7.892  -0.572  22.713  0.00  0.00    +0.178 C 
ATOM     14  C2*   A A   1       7.025  -1.212  23.791  0.00  0.00    +0.195 C 
BRANCH  13  15
ATOM     15  O3*   A A   1       8.627   0.540  23.190  0.00  0.00    -0.386 OA
ATOM     16  H3*   A A   1       7.968   1.111  23.644  0.00  0.00    +0.210 HD
ENDBRANCH  13  15
BRANCH  14  17
ATOM     17  O2*   A A   1       7.831  -1.282  24.977  0.00  0.00    -0.385 OA
ATOM     18  H2*   A A   1       8.766  -1.303  24.674  0.00  0.00    +0.210 HD
ENDBRANCH  14  17
BRANCH  12  19
ATOM     19  C5*   A A   1      10.124  -1.881  22.896  0.00  0.00    +0.190 C 
BRANCH  19  20
ATOM     20  O5*   A A   1      10.159  -2.949  23.846  0.00  0.00    -0.392 OA
ATOM     21  H5*   A A   1      11.067  -3.031  24.184  0.00  0.00    +0.210 HD
ENDBRANCH  19  20
ENDBRANCH  12  19
ENDBRANCH   4  10
BRANCH   8  22
ATOM     22  N6    A A   1       5.084  -6.962  26.925  0.00  0.00    -0.341 N 
ATOM     23  H61   A A   1       4.842  -6.787  27.895  0.00  0.00    +0.144 HD
ATOM     24  H62   A A   1       4.326  -7.144  26.280  0.00  0.00    +0.144 HD
ENDBRANCH   8  22
TORSDOF 6
ENDMDL
