MODEL 1
REMARK VINA RESULT:      -7.0      0.000      0.000
REMARK  Name = 
REMARK  12 active torsions:
REMARK  status: ('A' for Active; 'I' for Inactive)
REMARK    1  A    between atoms: C_1  and  C_2
REMARK    2  A    between atoms: C_2  and  C_3
REMARK    3  A    between atoms: C_2  and  C_4
REMARK    4  A    between atoms: C_2  and  C_5
REMARK    5  A    between atoms: C_12  and  C_13
REMARK    6  A    between atoms: N_15  and  C_16
REMARK    7  A    between atoms: C_16  and  C_22
REMARK    8  A    between atoms: C_18  and  C_20
REMARK    9  A    between atoms: N_24  and  S_25
REMARK   10  A    between atoms: S_25  and  C_28
REMARK   11  A    between atoms: C_38  and  O_40
REMARK   12  A    between atoms: O_40  and  C_41
REMARK                            x       y       z     vdW  Elec       q    Type
REMARK                         _______ _______ _______ _____ _____    ______ ____
ROOT
ATOM      1  C   UNL     1       7.214  -3.466  24.153  0.00  0.00    +0.168 C 
ATOM      2  N   UNL     1       7.766  -2.666  23.068  0.00  0.00    -0.269 N 
ATOM      3  H   UNL     1       7.210  -2.409  22.265  0.00  0.00    +0.153 HD
ATOM      4  C   UNL     1       9.109  -2.396  23.031  0.00  0.00    +0.401 C 
ATOM      5  O   UNL     1       9.908  -2.671  23.916  0.00  0.00    -0.226 OA
ATOM      6  O   UNL     1       9.418  -1.587  21.977  0.00  0.00    -0.447 OA
ATOM      7  C   UNL     1      10.012  -0.371  22.476  0.00  0.00    +0.182 C 
ATOM      8  C   UNL     1       9.599   0.991  22.001  0.00  0.00    +0.033 C 
ATOM      9  C   UNL     1      10.269   2.280  22.375  0.00  0.00    +0.007 C 
ATOM     10  C   UNL     1       9.182   3.284  22.790  0.00  0.00    +0.000 C 
ATOM     11  C   UNL     1       9.084   3.436  24.310  0.00  0.00    +0.000 C 
ATOM     12  C   UNL     1       7.776   4.082  24.744  0.00  0.00    +0.006 C 
ATOM     13  C   UNL     1       6.561   3.134  24.645  0.00  0.00    +0.061 C 
ATOM     14  C   UNL     1       5.437   3.571  25.534  0.00  0.00    +0.103 A 
ATOM     15  C   UNL     1       4.517   2.701  26.154  0.00  0.00    +0.238 A 
ATOM     16  N   UNL     1       3.555   3.195  26.972  0.00  0.00    -0.210 NA
ATOM     17  C   UNL     1       3.666   4.503  27.319  0.00  0.00    +0.096 A 
ATOM     18  C   UNL     1       2.781   5.069  28.221  0.00  0.00    +0.075 A 
ATOM     19  C   UNL     1       2.909   6.418  28.571  0.00  0.00    +0.122 A 
ATOM     20  C   UNL     1       4.077   7.108  28.298  0.00  0.00    +0.048 A 
ATOM     21  C   UNL     1       4.922   6.578  27.339  0.00  0.00    +0.033 A 
ATOM     22  C   UNL     1       4.677   5.326  26.789  0.00  0.00    +0.090 A 
ATOM     23  O   UNL     1       4.993   1.553  26.676  0.00  0.00    -0.470 OA
ATOM     24  C   UNL     1       5.054   0.225  26.255  0.00  0.00    +0.195 C 
ATOM     25  C   UNL     1       4.147  -0.860  26.888  0.00  0.00    +0.078 C 
ATOM     26  C   UNL     1       5.186  -1.990  26.787  0.00  0.00    +0.166 C 
ATOM     27  N   UNL     1       5.852  -1.825  25.462  0.00  0.00    -0.285 N 
ATOM     28  C   UNL     1       5.463  -0.473  24.953  0.00  0.00    +0.153 C 
ATOM     29  N   UNL     1       5.470   4.908  25.820  0.00  0.00    -0.245 NA
ATOM     30  C   UNL     1       8.887   0.373  23.155  0.00  0.00    +0.052 C 
ATOM     31  C   UNL     1       5.794  -2.939  24.613  0.00  0.00    +0.237 C 
ATOM     32  O   UNL     1       4.721  -3.500  24.398  0.00  0.00    -0.274 OA
ENDROOT
BRANCH   1  34
ATOM     33  C   UNL     1       6.137  -5.797  24.337  0.00  0.00    +0.013 C 
ATOM     34  C   UNL     1       7.331  -4.990  23.804  0.00  0.00    -0.011 C 
ATOM     35  C   UNL     1       7.380  -5.229  22.271  0.00  0.00    +0.013 C 
ATOM     36  C   UNL     1       8.652  -5.544  24.357  0.00  0.00    +0.013 C 
ENDBRANCH   1  34
BRANCH  26  37
ATOM     37  C   UNL     1       5.096  -3.372  27.429  0.00  0.00    +0.234 C 
ATOM     38  N   UNL     1       3.898  -3.762  27.972  0.00  0.00    -0.299 N 
ATOM     39  H   UNL     1       3.046  -3.315  27.644  0.00  0.00    +0.150 HD
ATOM     40  O   UNL     1       6.106  -4.076  27.469  0.00  0.00    -0.274 OA
BRANCH  38  41
ATOM     41  C   UNL     1       3.754  -5.084  28.604  0.00  0.00    +0.119 C 
ATOM     42  C   UNL     1       4.653  -5.431  29.805  0.00  0.00    +0.046 C 
ATOM     43  C   UNL     1       3.209  -5.123  30.034  0.00  0.00    +0.046 C 
BRANCH  41  44
ATOM     44  C   UNL     1       3.243  -6.195  27.690  0.00  0.00    +0.256 C 
ATOM     45  N   UNL     1       3.262  -5.892  26.327  0.00  0.00    -0.188 N 
ATOM     46  H   UNL     1       3.847  -5.148  25.953  0.00  0.00    +0.176 HD
ATOM     47  O   UNL     1       2.732  -7.210  28.142  0.00  0.00    -0.272 OA
BRANCH  45  48
ATOM     48  S   UNL     1       2.558  -6.847  25.162  0.00  0.00    +0.048 S 
ATOM     49  O   UNL     1       1.196  -7.094  25.564  0.00  0.00    -0.155 OA
ATOM     50  O   UNL     1       3.488  -7.944  24.970  0.00  0.00    -0.155 OA
BRANCH  48  51
ATOM     51  C   UNL     1       2.484  -5.913  23.598  0.00  0.00    +0.151 C 
ATOM     52  C   UNL     1       1.168  -5.252  23.282  0.00  0.00    +0.030 C 
ATOM     53  C   UNL     1       1.565  -6.511  22.560  0.00  0.00    +0.030 C 
ENDBRANCH  48  51
ENDBRANCH  45  48
ENDBRANCH  41  44
BRANCH  42  54
ATOM     54  C   UNL     1       5.192  -6.789  29.923  0.00  0.00    -0.028 C 
ATOM     55  C   UNL     1       6.445  -7.134  29.592  0.00  0.00    +0.004 C 
ENDBRANCH  42  54
ENDBRANCH  38  41
ENDBRANCH  26  37
BRANCH  19  56
ATOM     56  O   UNL     1       1.857   7.108  29.105  0.00  0.00    -0.495 OA
ATOM     57  C   UNL     1       0.867   6.188  29.606  0.00  0.00    +0.277 C 
ENDBRANCH  19  56
TORSDOF 8
ENDMDL
MODEL 2
REMARK VINA RESULT:      -6.1      2.783      6.826
REMARK  Name = 
REMARK  12 active torsions:
REMARK  status: ('A' for Active; 'I' for Inactive)
REMARK    1  A    between atoms: C_1  and  C_2
REMARK    2  A    between atoms: C_2  and  C_3
REMARK    3  A    between atoms: C_2  and  C_4
REMARK    4  A    between atoms: C_2  and  C_5
REMARK    5  A    between atoms: C_12  and  C_13
REMARK    6  A    between atoms: N_15  and  C_16
REMARK    7  A    between atoms: C_16  and  C_22
REMARK    8  A    between atoms: C_18  and  C_20
REMARK    9  A    between atoms: N_24  and  S_25
REMARK   10  A    between atoms: S_25  and  C_28
REMARK   11  A    between atoms: C_38  and  O_40
REMARK   12  A    between atoms: O_40  and  C_41
REMARK                            x       y       z     vdW  Elec       q    Type
REMARK                         _______ _______ _______ _____ _____    ______ ____
ROOT
ATOM      1  C   UNL     1       2.793  -1.727  28.521  0.00  0.00    +0.168 C 
ATOM      2  N   UNL     1       2.408  -0.638  29.409  0.00  0.00    -0.269 N 
ATOM      3  H   UNL     1       2.942  -0.419  30.239  0.00  0.00    +0.153 HD
ATOM      4  C   UNL     1       1.208  -0.001  29.232  0.00  0.00    +0.401 C 
ATOM      5  O   UNL     1       0.445  -0.183  28.293  0.00  0.00    -0.226 OA
ATOM      6  O   UNL     1       1.060   1.023  30.121  0.00  0.00    -0.447 OA
ATOM      7  C   UNL     1       0.900   2.258  29.393  0.00  0.00    +0.182 C 
ATOM      8  C   UNL     1       1.654   3.508  29.736  0.00  0.00    +0.033 C 
ATOM      9  C   UNL     1       1.431   4.854  29.111  0.00  0.00    +0.007 C 
ATOM     10  C   UNL     1       2.800   5.432  28.716  0.00  0.00    +0.000 C 
ATOM     11  C   UNL     1       3.073   5.300  27.216  0.00  0.00    +0.000 C 
ATOM     12  C   UNL     1       4.547   5.474  26.879  0.00  0.00    +0.006 C 
ATOM     13  C   UNL     1       5.413   4.255  27.261  0.00  0.00    +0.061 C 
ATOM     14  C   UNL     1       6.690   4.209  26.480  0.00  0.00    +0.103 A 
ATOM     15  C   UNL     1       7.363   3.027  26.107  0.00  0.00    +0.238 A 
ATOM     16  N   UNL     1       8.496   3.092  25.366  0.00  0.00    -0.210 NA
ATOM     17  C   UNL     1       8.809   4.304  24.839  0.00  0.00    +0.096 A 
ATOM     18  C   UNL     1       9.899   4.444  23.997  0.00  0.00    +0.075 A 
ATOM     19  C   UNL     1      10.208   5.699  23.460  0.00  0.00    +0.122 A 
ATOM     20  C   UNL     1       9.277   6.723  23.482  0.00  0.00    +0.048 A 
ATOM     21  C   UNL     1       8.232   6.615  24.382  0.00  0.00    +0.033 A 
ATOM     22  C   UNL     1       8.044   5.451  25.118  0.00  0.00    +0.090 A 
ATOM     23  O   UNL     1       6.616   1.988  25.681  0.00  0.00    -0.470 OA
ATOM     24  C   UNL     1       6.128   0.818  26.260  0.00  0.00    +0.195 C 
ATOM     25  C   UNL     1       6.725  -0.565  25.900  0.00  0.00    +0.078 C 
ATOM     26  C   UNL     1       5.394  -1.328  26.009  0.00  0.00    +0.166 C 
ATOM     27  N   UNL     1       4.691  -0.769  27.201  0.00  0.00    -0.285 N 
ATOM     28  C   UNL     1       5.416   0.485  27.576  0.00  0.00    +0.153 C 
ATOM     29  N   UNL     1       7.081   5.436  26.019  0.00  0.00    -0.245 NA
ATOM     30  C   UNL     1       2.250   2.536  28.777  0.00  0.00    +0.052 C 
ATOM     31  C   UNL     1       4.340  -1.700  28.189  0.00  0.00    +0.237 C 
ATOM     32  O   UNL     1       5.176  -2.496  28.616  0.00  0.00    -0.274 OA
ENDROOT
BRANCH   1  34
ATOM     33  C   UNL     1       1.096  -3.623  28.127  0.00  0.00    +0.013 C 
ATOM     34  C   UNL     1       2.199  -3.079  29.048  0.00  0.00    -0.011 C 
ATOM     35  C   UNL     1       3.283  -4.186  29.146  0.00  0.00    +0.013 C 
ATOM     36  C   UNL     1       1.668  -2.884  30.476  0.00  0.00    +0.013 C 
ENDBRANCH   1  34
BRANCH  26  37
ATOM     37  C   UNL     1       5.126  -2.766  25.571  0.00  0.00    +0.234 C 
ATOM     38  N   UNL     1       3.886  -3.075  25.074  0.00  0.00    -0.299 N 
ATOM     39  H   UNL     1       3.316  -2.329  24.686  0.00  0.00    +0.150 HD
ATOM     40  O   UNL     1       6.018  -3.605  25.710  0.00  0.00    -0.274 OA
BRANCH  38  41
ATOM     41  C   UNL     1       3.573  -4.447  24.638  0.00  0.00    +0.119 C 
ATOM     42  C   UNL     1       3.105  -5.470  25.689  0.00  0.00    +0.046 C 
ATOM     43  C   UNL     1       2.112  -4.897  24.730  0.00  0.00    +0.046 C 
BRANCH  41  44
ATOM     44  C   UNL     1       4.315  -4.922  23.391  0.00  0.00    +0.256 C 
ATOM     45  N   UNL     1       5.593  -4.385  23.225  0.00  0.00    -0.188 N 
ATOM     46  H   UNL     1       6.106  -3.976  24.003  0.00  0.00    +0.176 HD
ATOM     47  O   UNL     1       3.765  -5.612  22.543  0.00  0.00    -0.272 OA
BRANCH  45  48
ATOM     48  S   UNL     1       6.501  -4.579  21.846  0.00  0.00    +0.048 S 
ATOM     49  O   UNL     1       5.695  -4.155  20.728  0.00  0.00    -0.155 OA
ATOM     50  O   UNL     1       7.010  -5.935  21.924  0.00  0.00    -0.155 OA
BRANCH  48  51
ATOM     51  C   UNL     1       7.933  -3.453  21.918  0.00  0.00    +0.151 C 
ATOM     52  C   UNL     1       8.478  -3.159  23.290  0.00  0.00    +0.030 C 
ATOM     53  C   UNL     1       7.647  -2.126  22.579  0.00  0.00    +0.030 C 
ENDBRANCH  48  51
ENDBRANCH  45  48
ENDBRANCH  41  44
BRANCH  42  54
ATOM     54  C   UNL     1       3.576  -6.855  25.595  0.00  0.00    -0.028 C 
ATOM     55  C   UNL     1       2.800  -7.894  25.256  0.00  0.00    +0.004 C 
ENDBRANCH  42  54
ENDBRANCH  38  41
ENDBRANCH  26  37
BRANCH  19  56
ATOM     56  O   UNL     1      11.460   5.970  22.983  0.00  0.00    -0.495 OA
ATOM     57  C   UNL     1      12.370   4.918  23.360  0.00  0.00    +0.277 C 
ENDBRANCH  19  56
TORSDOF 8
ENDMDL
MODEL 3
REMARK VINA RESULT:      -6.1      2.788      6.928
REMARK  Name = 
REMARK  12 active torsions:
REMARK  status: ('A' for Active; 'I' for Inactive)
REMARK    1  A    between atoms: C_1  and  C_2
REMARK    2  A    between atoms: C_2  and  C_3
REMARK    3  A    between atoms: C_2  and  C_4
REMARK    4  A    between atoms: C_2  and  C_5
REMARK    5  A    between atoms: C_12  and  C_13
REMARK    6  A    between atoms: N_15  and  C_16
REMARK    7  A    between atoms: C_16  and  C_22
REMARK    8  A    between atoms: C_18  and  C_20
REMARK    9  A    between atoms: N_24  and  S_25
REMARK   10  A    between atoms: S_25  and  C_28
REMARK   11  A    between atoms: C_38  and  O_40
REMARK   12  A    between atoms: O_40  and  C_41
REMARK                            x       y       z     vdW  Elec       q    Type
REMARK                         _______ _______ _______ _____ _____    ______ ____
ROOT
ATOM      1  C   UNL     1       2.467  -0.970  27.932  0.00  0.00    +0.168 C 
ATOM      2  N   UNL     1       2.152   0.282  28.608  0.00  0.00    -0.269 N 
ATOM      3  H   UNL     1       2.606   0.544  29.472  0.00  0.00    +0.153 HD
ATOM      4  C   UNL     1       1.101   1.047  28.178  0.00  0.00    +0.401 C 
ATOM      5  O   UNL     1       0.443   0.836  27.167  0.00  0.00    -0.226 OA
ATOM      6  O   UNL     1       1.007   2.202  28.896  0.00  0.00    -0.447 OA
ATOM      7  C   UNL     1       1.138   3.325  28.001  0.00  0.00    +0.182 C 
ATOM      8  C   UNL     1       2.033   4.495  28.289  0.00  0.00    +0.033 C 
ATOM      9  C   UNL     1       2.108   5.750  27.471  0.00  0.00    +0.007 C 
ATOM     10  C   UNL     1       3.590   6.066  27.211  0.00  0.00    +0.000 C 
ATOM     11  C   UNL     1       4.025   5.676  25.797  0.00  0.00    +0.000 C 
ATOM     12  C   UNL     1       5.538   5.590  25.660  0.00  0.00    +0.006 C 
ATOM     13  C   UNL     1       6.144   4.331  26.318  0.00  0.00    +0.061 C 
ATOM     14  C   UNL     1       7.486   3.991  25.744  0.00  0.00    +0.103 A 
ATOM     15  C   UNL     1       8.003   2.684  25.628  0.00  0.00    +0.238 A 
ATOM     16  N   UNL     1       9.216   2.479  25.060  0.00  0.00    -0.210 NA
ATOM     17  C   UNL     1       9.782   3.543  24.434  0.00  0.00    +0.096 A 
ATOM     18  C   UNL     1      10.977   3.403  23.750  0.00  0.00    +0.075 A 
ATOM     19  C   UNL     1      11.547   4.508  23.108  0.00  0.00    +0.122 A 
ATOM     20  C   UNL     1      10.796   5.644  22.863  0.00  0.00    +0.048 A 
ATOM     21  C   UNL     1       9.642   5.819  23.606  0.00  0.00    +0.033 A 
ATOM     22  C   UNL     1       9.181   4.815  24.448  0.00  0.00    +0.090 A 
ATOM     23  O   UNL     1       7.160   1.709  25.233  0.00  0.00    -0.470 OA
ATOM     24  C   UNL     1       6.422   0.718  25.879  0.00  0.00    +0.195 C 
ATOM     25  C   UNL     1       6.832  -0.774  25.790  0.00  0.00    +0.078 C 
ATOM     26  C   UNL     1       5.393  -1.318  25.799  0.00  0.00    +0.166 C 
ATOM     27  N   UNL     1       4.644  -0.494  26.794  0.00  0.00    -0.285 N 
ATOM     28  C   UNL     1       5.506   0.687  27.108  0.00  0.00    +0.153 C 
ATOM     29  N   UNL     1       8.121   5.069  25.193  0.00  0.00    -0.245 NA
ATOM     30  C   UNL     1       2.583   3.317  27.560  0.00  0.00    +0.052 C 
ATOM     31  C   UNL     1       4.028  -1.210  27.830  0.00  0.00    +0.237 C 
ATOM     32  O   UNL     1       4.666  -2.043  28.473  0.00  0.00    -0.274 OA
ENDROOT
BRANCH   1  34
ATOM     33  C   UNL     1       0.455  -2.542  27.601  0.00  0.00    +0.013 C 
ATOM     34  C   UNL     1       1.604  -2.133  28.535  0.00  0.00    -0.011 C 
ATOM     35  C   UNL     1       2.450  -3.409  28.786  0.00  0.00    +0.013 C 
ATOM     36  C   UNL     1       1.063  -1.711  29.909  0.00  0.00    +0.013 C 
ENDBRANCH   1  34
BRANCH  26  37
ATOM     37  C   UNL     1       4.957  -2.753  25.514  0.00  0.00    +0.234 C 
ATOM     38  N   UNL     1       3.757  -2.955  24.881  0.00  0.00    -0.299 N 
ATOM     39  H   UNL     1       3.369  -2.202  24.320  0.00  0.00    +0.150 HD
ATOM     40  O   UNL     1       5.677  -3.678  25.891  0.00  0.00    -0.274 OA
BRANCH  38  41
ATOM     41  C   UNL     1       3.287  -4.318  24.581  0.00  0.00    +0.119 C 
ATOM     42  C   UNL     1       2.656  -5.149  25.714  0.00  0.00    +0.046 C 
ATOM     43  C   UNL     1       1.779  -4.572  24.650  0.00  0.00    +0.046 C 
BRANCH  41  44
ATOM     44  C   UNL     1       4.005  -5.020  23.431  0.00  0.00    +0.256 C 
ATOM     45  N   UNL     1       5.353  -4.683  23.285  0.00  0.00    -0.188 N 
ATOM     46  H   UNL     1       5.885  -4.267  24.045  0.00  0.00    +0.176 HD
ATOM     47  O   UNL     1       3.399  -5.716  22.628  0.00  0.00    -0.272 OA
BRANCH  45  48
ATOM     48  S   UNL     1       6.280  -5.145  21.985  0.00  0.00    +0.048 S 
ATOM     49  O   UNL     1       5.665  -4.610  20.796  0.00  0.00    -0.155 OA
ATOM     50  O   UNL     1       6.463  -6.575  22.148  0.00  0.00    -0.155 OA
BRANCH  48  51
ATOM     51  C   UNL     1       7.922  -4.364  22.123  0.00  0.00    +0.151 C 
ATOM     52  C   UNL     1       8.244  -3.726  23.448  0.00  0.00    +0.030 C 
ATOM     53  C   UNL     1       7.886  -2.862  22.270  0.00  0.00    +0.030 C 
ENDBRANCH  48  51
ENDBRANCH  45  48
ENDBRANCH  41  44
BRANCH  42  54
ATOM     54  C   UNL     1       2.950  -6.583  25.794  0.00  0.00    -0.028 C 
ATOM     55  C   UNL     1       2.020  -7.548  25.735  0.00  0.00    +0.004 C 
ENDBRANCH  42  54
ENDBRANCH  38  41
ENDBRANCH  26  37
BRANCH  19  56
ATOM     56  O   UNL     1      12.876   4.528  22.790  0.00  0.00    -0.495 OA
ATOM     57  C   UNL     1      13.210   5.771  22.141  0.00  0.00    +0.277 C 
ENDBRANCH  19  56
TORSDOF 8
ENDMDL
MODEL 4
REMARK VINA RESULT:      -5.8      2.637      6.498
REMARK  Name = 
REMARK  12 active torsions:
REMARK  status: ('A' for Active; 'I' for Inactive)
REMARK    1  A    between atoms: C_1  and  C_2
REMARK    2  A    between atoms: C_2  and  C_3
REMARK    3  A    between atoms: C_2  and  C_4
REMARK    4  A    between atoms: C_2  and  C_5
REMARK    5  A    between atoms: C_12  and  C_13
REMARK    6  A    between atoms: N_15  and  C_16
REMARK    7  A    between atoms: C_16  and  C_22
REMARK    8  A    between atoms: C_18  and  C_20
REMARK    9  A    between atoms: N_24  and  S_25
REMARK   10  A    between atoms: S_25  and  C_28
REMARK   11  A    between atoms: C_38  and  O_40
REMARK   12  A    between atoms: O_40  and  C_41
REMARK                            x       y       z     vdW  Elec       q    Type
REMARK                         _______ _______ _______ _____ _____    ______ ____
ROOT
ATOM      1  C   UNL     1       2.843  -2.279  27.440  0.00  0.00    +0.168 C 
ATOM      2  N   UNL     1       2.341  -1.308  28.404  0.00  0.00    -0.269 N 
ATOM      3  H   UNL     1       2.803  -1.156  29.290  0.00  0.00    +0.153 HD
ATOM      4  C   UNL     1       1.127  -0.708  28.202  0.00  0.00    +0.401 C 
ATOM      5  O   UNL     1       0.443  -0.821  27.193  0.00  0.00    -0.226 OA
ATOM      6  O   UNL     1       0.864   0.209  29.177  0.00  0.00    -0.447 OA
ATOM      7  C   UNL     1       0.694   1.506  28.570  0.00  0.00    +0.182 C 
ATOM      8  C   UNL     1       1.358   2.744  29.097  0.00  0.00    +0.033 C 
ATOM      9  C   UNL     1       1.113   4.137  28.599  0.00  0.00    +0.007 C 
ATOM     10  C   UNL     1       2.476   4.813  28.372  0.00  0.00    +0.000 C 
ATOM     11  C   UNL     1       2.862   4.852  26.892  0.00  0.00    +0.000 C 
ATOM     12  C   UNL     1       4.346   5.124  26.688  0.00  0.00    +0.006 C 
ATOM     13  C   UNL     1       5.243   3.909  27.008  0.00  0.00    +0.061 C 
ATOM     14  C   UNL     1       6.573   4.000  26.326  0.00  0.00    +0.103 A 
ATOM     15  C   UNL     1       7.330   2.895  25.886  0.00  0.00    +0.238 A 
ATOM     16  N   UNL     1       8.509   3.086  25.246  0.00  0.00    -0.210 NA
ATOM     17  C   UNL     1       8.797   4.359  24.871  0.00  0.00    +0.096 A 
ATOM     18  C   UNL     1       9.936   4.635  24.134  0.00  0.00    +0.075 A 
ATOM     19  C   UNL     1      10.219   5.951  23.754  0.00  0.00    +0.122 A 
ATOM     20  C   UNL     1       9.239   6.927  23.811  0.00  0.00    +0.048 A 
ATOM     21  C   UNL     1       8.139   6.679  24.612  0.00  0.00    +0.033 A 
ATOM     22  C   UNL     1       7.958   5.437  25.207  0.00  0.00    +0.090 A 
ATOM     23  O   UNL     1       6.668   1.876  25.299  0.00  0.00    -0.470 OA
ATOM     24  C   UNL     1       6.200   0.631  25.716  0.00  0.00    +0.195 C 
ATOM     25  C   UNL     1       6.890  -0.679  25.262  0.00  0.00    +0.078 C 
ATOM     26  C   UNL     1       5.594  -1.505  25.190  0.00  0.00    +0.166 C 
ATOM     27  N   UNL     1       4.780  -1.106  26.376  0.00  0.00    -0.285 N 
ATOM     28  C   UNL     1       5.412   0.131  26.933  0.00  0.00    +0.153 C 
ATOM     29  N   UNL     1       6.934   5.285  26.026  0.00  0.00    -0.245 NA
ATOM     30  C   UNL     1       2.070   1.905  28.092  0.00  0.00    +0.052 C 
ATOM     31  C   UNL     1       4.407  -2.151  27.233  0.00  0.00    +0.237 C 
ATOM     32  O   UNL     1       5.249  -2.952  27.638  0.00  0.00    -0.274 OA
ENDROOT
BRANCH   1  34
ATOM     33  C   UNL     1       0.963  -3.993  27.045  0.00  0.00    +0.013 C 
ATOM     34  C   UNL     1       2.282  -3.704  27.779  0.00  0.00    -0.011 C 
ATOM     35  C   UNL     1       3.273  -4.826  27.371  0.00  0.00    +0.013 C 
ATOM     36  C   UNL     1       2.099  -3.836  29.297  0.00  0.00    +0.013 C 
ENDBRANCH   1  34
BRANCH  26  37
ATOM     37  C   UNL     1       5.432  -2.898  24.587  0.00  0.00    +0.234 C 
ATOM     38  N   UNL     1       6.514  -3.741  24.596  0.00  0.00    -0.299 N 
ATOM     39  H   UNL     1       7.250  -3.583  25.278  0.00  0.00    +0.150 HD
ATOM     40  O   UNL     1       4.350  -3.206  24.084  0.00  0.00    -0.274 OA
BRANCH  38  41
ATOM     41  C   UNL     1       6.415  -5.096  24.027  0.00  0.00    +0.119 C 
ATOM     42  C   UNL     1       7.109  -5.388  22.684  0.00  0.00    +0.046 C 
ATOM     43  C   UNL     1       7.702  -5.921  23.948  0.00  0.00    +0.046 C 
BRANCH  41  44
ATOM     44  C   UNL     1       5.170  -5.884  24.427  0.00  0.00    +0.256 C 
ATOM     45  N   UNL     1       4.151  -5.900  23.472  0.00  0.00    -0.188 N 
ATOM     46  H   UNL     1       4.332  -5.688  22.493  0.00  0.00    +0.176 HD
ATOM     47  O   UNL     1       5.037  -6.343  25.553  0.00  0.00    -0.272 OA
BRANCH  45  48
ATOM     48  S   UNL     1       2.628  -6.501  23.761  0.00  0.00    +0.048 S 
ATOM     49  O   UNL     1       2.185  -7.167  22.561  0.00  0.00    -0.155 OA
ATOM     50  O   UNL     1       1.885  -5.381  24.308  0.00  0.00    -0.155 OA
BRANCH  48  51
ATOM     51  C   UNL     1       2.732  -7.775  25.061  0.00  0.00    +0.151 C 
ATOM     52  C   UNL     1       1.785  -8.938  24.927  0.00  0.00    +0.030 C 
ATOM     53  C   UNL     1       1.509  -7.864  25.943  0.00  0.00    +0.030 C 
ENDBRANCH  48  51
ENDBRANCH  45  48
ENDBRANCH  41  44
BRANCH  42  54
ATOM     54  C   UNL     1       6.439  -6.252  21.708  0.00  0.00    -0.028 C 
ATOM     55  C   UNL     1       6.154  -5.889  20.449  0.00  0.00    +0.004 C 
ENDBRANCH  42  54
ENDBRANCH  38  41
ENDBRANCH  26  37
BRANCH  19  56
ATOM     56  O   UNL     1      11.487   6.325  23.406  0.00  0.00    -0.495 OA
ATOM     57  C   UNL     1      12.360   5.179  23.416  0.00  0.00    +0.277 C 
ENDBRANCH  19  56
TORSDOF 8
ENDMDL
MODEL 5
REMARK VINA RESULT:      -5.6      2.769      6.993
REMARK  Name = 
REMARK  12 active torsions:
REMARK  status: ('A' for Active; 'I' for Inactive)
REMARK    1  A    between atoms: C_1  and  C_2
REMARK    2  A    between atoms: C_2  and  C_3
REMARK    3  A    between atoms: C_2  and  C_4
REMARK    4  A    between atoms: C_2  and  C_5
REMARK    5  A    between atoms: C_12  and  C_13
REMARK    6  A    between atoms: N_15  and  C_16
REMARK    7  A    between atoms: C_16  and  C_22
REMARK    8  A    between atoms: C_18  and  C_20
REMARK    9  A    between atoms: N_24  and  S_25
REMARK   10  A    between atoms: S_25  and  C_28
REMARK   11  A    between atoms: C_38  and  O_40
REMARK   12  A    between atoms: O_40  and  C_41
REMARK                            x       y       z     vdW  Elec       q    Type
REMARK                         _______ _______ _______ _____ _____    ______ ____
ROOT
ATOM      1  C   UNL     1       2.353  -0.303  27.174  0.00  0.00    +0.168 C 
ATOM      2  N   UNL     1       1.942   1.004  27.671  0.00  0.00    -0.269 N 
ATOM      3  H   UNL     1       2.270   1.359  28.558  0.00  0.00    +0.153 HD
ATOM      4  C   UNL     1       0.959   1.704  27.024  0.00  0.00    +0.401 C 
ATOM      5  O   UNL     1       0.449   1.383  25.958  0.00  0.00    -0.226 OA
ATOM      6  O   UNL     1       0.761   2.923  27.603  0.00  0.00    -0.447 OA
ATOM      7  C   UNL     1       1.012   3.954  26.626  0.00  0.00    +0.182 C 
ATOM      8  C   UNL     1       1.853   5.162  26.916  0.00  0.00    +0.033 C 
ATOM      9  C   UNL     1       2.037   6.332  25.994  0.00  0.00    +0.007 C 
ATOM     10  C   UNL     1       3.540   6.646  25.911  0.00  0.00    +0.000 C 
ATOM     11  C   UNL     1       4.169   6.126  24.618  0.00  0.00    +0.000 C 
ATOM     12  C   UNL     1       5.686   6.053  24.701  0.00  0.00    +0.006 C 
ATOM     13  C   UNL     1       6.200   4.877  25.559  0.00  0.00    +0.061 C 
ATOM     14  C   UNL     1       7.609   4.505  25.214  0.00  0.00    +0.103 A 
ATOM     15  C   UNL     1       8.142   3.203  25.303  0.00  0.00    +0.238 A 
ATOM     16  N   UNL     1       9.424   2.964  24.931  0.00  0.00    -0.210 NA
ATOM     17  C   UNL     1      10.067   3.970  24.285  0.00  0.00    +0.096 A 
ATOM     18  C   UNL     1      11.347   3.785  23.791  0.00  0.00    +0.075 A 
ATOM     19  C   UNL     1      11.997   4.830  23.126  0.00  0.00    +0.122 A 
ATOM     20  C   UNL     1      11.283   5.923  22.667  0.00  0.00    +0.048 A 
ATOM     21  C   UNL     1      10.036   6.150  23.221  0.00  0.00    +0.033 A 
ATOM     22  C   UNL     1       9.465   5.227  24.089  0.00  0.00    +0.090 A 
ATOM     23  O   UNL     1       7.366   2.179  24.895  0.00  0.00    -0.470 OA
ATOM     24  C   UNL     1       6.550   1.243  25.529  0.00  0.00    +0.195 C 
ATOM     25  C   UNL     1       6.973  -0.242  25.648  0.00  0.00    +0.078 C 
ATOM     26  C   UNL     1       5.549  -0.808  25.513  0.00  0.00    +0.166 C 
ATOM     27  N   UNL     1       4.666   0.097  26.306  0.00  0.00    -0.285 N 
ATOM     28  C   UNL     1       5.471   1.319  26.616  0.00  0.00    +0.153 C 
ATOM     29  N   UNL     1       8.312   5.535  24.651  0.00  0.00    -0.245 NA
ATOM     30  C   UNL     1       2.504   3.928  26.392  0.00  0.00    +0.052 C 
ATOM     31  C   UNL     1       3.914  -0.524  27.314  0.00  0.00    +0.237 C 
ATOM     32  O   UNL     1       4.459  -1.278  28.119  0.00  0.00    -0.274 OA
ENDROOT
BRANCH   1  34
ATOM     33  C   UNL     1       0.485  -2.010  26.700  0.00  0.00    +0.013 C 
ATOM     34  C   UNL     1       1.419  -1.415  27.766  0.00  0.00    -0.011 C 
ATOM     35  C   UNL     1       2.232  -2.598  28.356  0.00  0.00    +0.013 C 
ATOM     36  C   UNL     1       0.609  -0.836  28.935  0.00  0.00    +0.013 C 
ENDBRANCH   1  34
BRANCH  26  37
ATOM     37  C   UNL     1       5.163  -2.272  25.316  0.00  0.00    +0.234 C 
ATOM     38  N   UNL     1       6.166  -3.193  25.153  0.00  0.00    -0.299 N 
ATOM     39  H   UNL     1       7.093  -2.972  25.504  0.00  0.00    +0.150 HD
ATOM     40  O   UNL     1       3.969  -2.571  25.275  0.00  0.00    -0.274 OA
BRANCH  38  41
ATOM     41  C   UNL     1       5.851  -4.618  24.958  0.00  0.00    +0.119 C 
ATOM     42  C   UNL     1       4.749  -5.003  23.954  0.00  0.00    +0.046 C 
ATOM     43  C   UNL     1       6.181  -5.231  23.595  0.00  0.00    +0.046 C 
BRANCH  41  44
ATOM     44  C   UNL     1       6.139  -5.522  26.155  0.00  0.00    +0.256 C 
ATOM     45  N   UNL     1       5.187  -5.469  27.176  0.00  0.00    -0.188 N 
ATOM     46  H   UNL     1       4.245  -5.119  27.011  0.00  0.00    +0.176 HD
ATOM     47  O   UNL     1       7.194  -6.133  26.257  0.00  0.00    -0.272 OA
BRANCH  45  48
ATOM     48  S   UNL     1       5.388  -6.188  28.661  0.00  0.00    +0.048 S 
ATOM     49  O   UNL     1       6.354  -5.409  29.397  0.00  0.00    -0.155 OA
ATOM     50  O   UNL     1       5.632  -7.587  28.366  0.00  0.00    -0.155 OA
BRANCH  48  51
ATOM     51  C   UNL     1       3.819  -6.089  29.584  0.00  0.00    +0.151 C 
ATOM     52  C   UNL     1       2.997  -7.349  29.632  0.00  0.00    +0.030 C 
ATOM     53  C   UNL     1       2.584  -6.221  28.726  0.00  0.00    +0.030 C 
ENDBRANCH  48  51
ENDBRANCH  45  48
ENDBRANCH  41  44
BRANCH  42  54
ATOM     54  C   UNL     1       3.838  -6.104  24.282  0.00  0.00    -0.028 C 
ATOM     55  C   UNL     1       3.041  -6.713  23.393  0.00  0.00    +0.004 C 
ENDBRANCH  42  54
ENDBRANCH  38  41
ENDBRANCH  26  37
BRANCH  19  56
ATOM     56  O   UNL     1      13.357   4.842  22.995  0.00  0.00    -0.495 OA
ATOM     57  C   UNL     1      13.745   5.773  21.965  0.00  0.00    +0.277 C 
ENDBRANCH  19  56
TORSDOF 8
ENDMDL
MODEL 6
REMARK VINA RESULT:      -5.0      2.623      6.872
REMARK  Name = 
REMARK  12 active torsions:
REMARK  status: ('A' for Active; 'I' for Inactive)
REMARK    1  A    between atoms: C_1  and  C_2
REMARK    2  A    between atoms: C_2  and  C_3
REMARK    3  A    between atoms: C_2  and  C_4
REMARK    4  A    between atoms: C_2  and  C_5
REMARK    5  A    between atoms: C_12  and  C_13
REMARK    6  A    between atoms: N_15  and  C_16
REMARK    7  A    between atoms: C_16  and  C_22
REMARK    8  A    between atoms: C_18  and  C_20
REMARK    9  A    between atoms: N_24  and  S_25
REMARK   10  A    between atoms: S_25  and  C_28
REMARK   11  A    between atoms: C_38  and  O_40
REMARK   12  A    between atoms: O_40  and  C_41
REMARK                            x       y       z     vdW  Elec       q    Type
REMARK                         _______ _______ _______ _____ _____    ______ ____
ROOT
ATOM      1  C   UNL     1       2.365   0.245  28.446  0.00  0.00    +0.168 C 
ATOM      2  N   UNL     1       2.149   1.568  29.018  0.00  0.00    -0.269 N 
ATOM      3  H   UNL     1       2.639   1.872  29.847  0.00  0.00    +0.153 HD
ATOM      4  C   UNL     1       1.138   2.362  28.544  0.00  0.00    +0.401 C 
ATOM      5  O   UNL     1       0.443   2.111  27.568  0.00  0.00    -0.226 OA
ATOM      6  O   UNL     1       1.137   3.577  29.163  0.00  0.00    -0.447 OA
ATOM      7  C   UNL     1       1.317   4.610  28.173  0.00  0.00    +0.182 C 
ATOM      8  C   UNL     1       2.292   5.738  28.341  0.00  0.00    +0.033 C 
ATOM      9  C   UNL     1       2.427   6.912  27.418  0.00  0.00    +0.007 C 
ATOM     10  C   UNL     1       3.920   7.107  27.103  0.00  0.00    +0.000 C 
ATOM     11  C   UNL     1       4.293   6.571  25.720  0.00  0.00    +0.000 C 
ATOM     12  C   UNL     1       5.793   6.374  25.561  0.00  0.00    +0.006 C 
ATOM     13  C   UNL     1       6.334   5.137  26.312  0.00  0.00    +0.061 C 
ATOM     14  C   UNL     1       7.636   4.662  25.744  0.00  0.00    +0.103 A 
ATOM     15  C   UNL     1       8.065   3.320  25.730  0.00  0.00    +0.238 A 
ATOM     16  N   UNL     1       9.248   2.987  25.158  0.00  0.00    -0.210 NA
ATOM     17  C   UNL     1       9.865   3.955  24.432  0.00  0.00    +0.096 A 
ATOM     18  C   UNL     1      11.031   3.680  23.739  0.00  0.00    +0.075 A 
ATOM     19  C   UNL     1      11.655   4.686  22.995  0.00  0.00    +0.122 A 
ATOM     20  C   UNL     1      10.973   5.845  22.668  0.00  0.00    +0.048 A 
ATOM     21  C   UNL     1       9.851   6.157  23.415  0.00  0.00    +0.033 A 
ATOM     22  C   UNL     1       9.348   5.261  24.349  0.00  0.00    +0.090 A 
ATOM     23  O   UNL     1       7.151   2.372  25.436  0.00  0.00    -0.470 OA
ATOM     24  C   UNL     1       6.368   1.490  26.179  0.00  0.00    +0.195 C 
ATOM     25  C   UNL     1       6.679  -0.028  26.210  0.00  0.00    +0.078 C 
ATOM     26  C   UNL     1       5.209  -0.473  26.294  0.00  0.00    +0.166 C 
ATOM     27  N   UNL     1       4.539   0.479  27.228  0.00  0.00    -0.285 N 
ATOM     28  C   UNL     1       5.483   1.623  27.424  0.00  0.00    +0.153 C 
ATOM     29  N   UNL     1       8.326   5.646  25.090  0.00  0.00    -0.245 NA
ATOM     30  C   UNL     1       2.747   4.469  27.706  0.00  0.00    +0.052 C 
ATOM     31  C   UNL     1       3.905  -0.105  28.334  0.00  0.00    +0.237 C 
ATOM     32  O   UNL     1       4.503  -0.921  29.034  0.00  0.00    -0.274 OA
ENDROOT
BRANCH   1  34
ATOM     33  C   UNL     1       2.259  -1.893  29.875  0.00  0.00    +0.013 C 
ATOM     34  C   UNL     1       1.445  -0.802  29.162  0.00  0.00    -0.011 C 
ATOM     35  C   UNL     1       0.548  -0.140  30.242  0.00  0.00    +0.013 C 
ATOM     36  C   UNL     1       0.483  -1.424  28.140  0.00  0.00    +0.013 C 
ENDBRANCH   1  34
BRANCH  26  37
ATOM     37  C   UNL     1       4.675  -1.895  26.141  0.00  0.00    +0.234 C 
ATOM     38  N   UNL     1       4.986  -2.814  27.110  0.00  0.00    -0.299 N 
ATOM     39  H   UNL     1       5.239  -2.481  28.035  0.00  0.00    +0.150 HD
ATOM     40  O   UNL     1       4.014  -2.177  25.140  0.00  0.00    -0.274 OA
BRANCH  38  41
ATOM     41  C   UNL     1       4.499  -4.201  27.013  0.00  0.00    +0.119 C 
ATOM     42  C   UNL     1       4.101  -4.938  28.305  0.00  0.00    +0.046 C 
ATOM     43  C   UNL     1       3.034  -4.457  27.376  0.00  0.00    +0.046 C 
BRANCH  41  44
ATOM     44  C   UNL     1       5.011  -4.992  25.812  0.00  0.00    +0.256 C 
ATOM     45  N   UNL     1       4.053  -5.267  24.835  0.00  0.00    -0.188 N 
ATOM     46  H   UNL     1       3.190  -4.730  24.766  0.00  0.00    +0.176 HD
ATOM     47  O   UNL     1       6.142  -5.459  25.790  0.00  0.00    -0.272 OA
BRANCH  45  48
ATOM     48  S   UNL     1       4.314  -6.291  23.552  0.00  0.00    +0.048 S 
ATOM     49  O   UNL     1       3.375  -5.942  22.515  0.00  0.00    -0.155 OA
ATOM     50  O   UNL     1       4.318  -7.620  24.133  0.00  0.00    -0.155 OA
BRANCH  48  51
ATOM     51  C   UNL     1       5.979  -5.983  22.878  0.00  0.00    +0.151 C 
ATOM     52  C   UNL     1       6.226  -4.607  22.321  0.00  0.00    +0.030 C 
ATOM     53  C   UNL     1       6.016  -5.765  21.385  0.00  0.00    +0.030 C 
ENDBRANCH  48  51
ENDBRANCH  45  48
ENDBRANCH  41  44
BRANCH  42  54
ATOM     54  C   UNL     1       4.435  -6.358  28.447  0.00  0.00    -0.028 C 
ATOM     55  C   UNL     1       3.973  -7.147  29.428  0.00  0.00    +0.004 C 
ENDBRANCH  42  54
ENDBRANCH  38  41
ENDBRANCH  26  37
BRANCH  19  56
ATOM     56  O   UNL     1      12.974   4.591  22.650  0.00  0.00    -0.495 OA
ATOM     57  C   UNL     1      13.459   5.871  22.195  0.00  0.00    +0.277 C 
ENDBRANCH  19  56
TORSDOF 8
ENDMDL
MODEL 7
REMARK VINA RESULT:      -4.6      2.523      6.224
REMARK  Name = 
REMARK  12 active torsions:
REMARK  status: ('A' for Active; 'I' for Inactive)
REMARK    1  A    between atoms: C_1  and  C_2
REMARK    2  A    between atoms: C_2  and  C_3
REMARK    3  A    between atoms: C_2  and  C_4
REMARK    4  A    between atoms: C_2  and  C_5
REMARK    5  A    between atoms: C_12  and  C_13
REMARK    6  A    between atoms: N_15  and  C_16
REMARK    7  A    between atoms: C_16  and  C_22
REMARK    8  A    between atoms: C_18  and  C_20
REMARK    9  A    between atoms: N_24  and  S_25
REMARK   10  A    between atoms: S_25  and  C_28
REMARK   11  A    between atoms: C_38  and  O_40
REMARK   12  A    between atoms: O_40  and  C_41
REMARK                            x       y       z     vdW  Elec       q    Type
REMARK                         _______ _______ _______ _____ _____    ______ ____
ROOT
ATOM      1  C   UNL     1       4.084  -4.071  27.933  0.00  0.00    +0.168 C 
ATOM      2  N   UNL     1       3.359  -3.377  28.989  0.00  0.00    -0.269 N 
ATOM      3  H   UNL     1       3.799  -3.145  29.868  0.00  0.00    +0.153 HD
ATOM      4  C   UNL     1       2.007  -3.183  28.877  0.00  0.00    +0.401 C 
ATOM      5  O   UNL     1       1.337  -3.440  27.885  0.00  0.00    -0.226 OA
ATOM      6  O   UNL     1       1.525  -2.465  29.932  0.00  0.00    -0.447 OA
ATOM      7  C   UNL     1       0.920  -1.252  29.439  0.00  0.00    +0.182 C 
ATOM      8  C   UNL     1       1.189   0.095  30.042  0.00  0.00    +0.033 C 
ATOM      9  C   UNL     1       0.489   1.368  29.668  0.00  0.00    +0.007 C 
ATOM     10  C   UNL     1       1.555   2.455  29.451  0.00  0.00    +0.000 C 
ATOM     11  C   UNL     1       1.823   2.715  27.967  0.00  0.00    +0.000 C 
ATOM     12  C   UNL     1       3.131   3.458  27.737  0.00  0.00    +0.006 C 
ATOM     13  C   UNL     1       4.382   2.574  27.927  0.00  0.00    +0.061 C 
ATOM     14  C   UNL     1       5.574   3.130  27.211  0.00  0.00    +0.103 A 
ATOM     15  C   UNL     1       6.614   2.355  26.657  0.00  0.00    +0.238 A 
ATOM     16  N   UNL     1       7.634   2.955  25.995  0.00  0.00    -0.210 NA
ATOM     17  C   UNL     1       7.484   4.275  25.717  0.00  0.00    +0.096 A 
ATOM     18  C   UNL     1       8.433   4.948  24.967  0.00  0.00    +0.075 A 
ATOM     19  C   UNL     1       8.265   6.308  24.687  0.00  0.00    +0.122 A 
ATOM     20  C   UNL     1       7.032   6.914  24.855  0.00  0.00    +0.048 A 
ATOM     21  C   UNL     1       6.114   6.276  25.669  0.00  0.00    +0.033 A 
ATOM     22  C   UNL     1       6.368   5.005  26.167  0.00  0.00    +0.090 A 
ATOM     23  O   UNL     1       6.275   1.221  26.012  0.00  0.00    -0.470 OA
ATOM     24  C   UNL     1       6.247  -0.134  26.341  0.00  0.00    +0.195 C 
ATOM     25  C   UNL     1       7.288  -1.122  25.759  0.00  0.00    +0.078 C 
ATOM     26  C   UNL     1       6.317  -2.312  25.663  0.00  0.00    +0.166 C 
ATOM     27  N   UNL     1       5.488  -2.273  26.903  0.00  0.00    -0.285 N 
ATOM     28  C   UNL     1       5.729  -0.939  27.538  0.00  0.00    +0.153 C 
ATOM     29  N   UNL     1       5.493   4.480  27.004  0.00  0.00    -0.245 NA
ATOM     30  C   UNL     1       2.070  -0.404  28.949  0.00  0.00    +0.052 C 
ATOM     31  C   UNL     1       5.514  -3.437  27.684  0.00  0.00    +0.237 C 
ATOM     32  O   UNL     1       6.587  -3.953  27.995  0.00  0.00    -0.274 OA
ENDROOT
BRANCH   1  34
ATOM     33  C   UNL     1       2.718  -6.232  27.639  0.00  0.00    +0.013 C 
ATOM     34  C   UNL     1       4.022  -5.619  28.172  0.00  0.00    -0.011 C 
ATOM     35  C   UNL     1       5.185  -6.360  27.462  0.00  0.00    +0.013 C 
ATOM     36  C   UNL     1       4.188  -5.913  29.670  0.00  0.00    +0.013 C 
ENDBRANCH   1  34
BRANCH  26  37
ATOM     37  C   UNL     1       6.568  -3.640  24.954  0.00  0.00    +0.234 C 
ATOM     38  N   UNL     1       5.602  -4.117  24.104  0.00  0.00    -0.299 N 
ATOM     39  H   UNL     1       4.943  -3.460  23.698  0.00  0.00    +0.150 HD
ATOM     40  O   UNL     1       7.608  -4.255  25.194  0.00  0.00    -0.274 OA
BRANCH  38  41
ATOM     41  C   UNL     1       5.791  -5.394  23.395  0.00  0.00    +0.119 C 
ATOM     42  C   UNL     1       6.545  -5.391  22.052  0.00  0.00    +0.046 C 
ATOM     43  C   UNL     1       7.222  -5.925  23.273  0.00  0.00    +0.046 C 
BRANCH  41  44
ATOM     44  C   UNL     1       4.732  -6.458  23.670  0.00  0.00    +0.256 C 
ATOM     45  N   UNL     1       3.455  -6.156  23.191  0.00  0.00    -0.188 N 
ATOM     46  H   UNL     1       3.307  -5.461  22.463  0.00  0.00    +0.176 HD
ATOM     47  O   UNL     1       4.969  -7.430  24.374  0.00  0.00    -0.272 OA
BRANCH  45  48
ATOM     48  S   UNL     1       2.100  -7.049  23.556  0.00  0.00    +0.048 S 
ATOM     49  O   UNL     1       2.433  -7.919  24.656  0.00  0.00    -0.155 OA
ATOM     50  O   UNL     1       1.661  -7.593  22.284  0.00  0.00    -0.155 OA
BRANCH  48  51
ATOM     51  C   UNL     1       0.794  -5.925  24.151  0.00  0.00    +0.151 C 
ATOM     52  C   UNL     1       0.482  -4.745  23.270  0.00  0.00    +0.030 C 
ATOM     53  C   UNL     1       1.283  -4.548  24.527  0.00  0.00    +0.030 C 
ENDBRANCH  48  51
ENDBRANCH  45  48
ENDBRANCH  41  44
BRANCH  42  54
ATOM     54  C   UNL     1       6.078  -6.263  20.970  0.00  0.00    -0.028 C 
ATOM     55  C   UNL     1       6.057  -5.913  19.676  0.00  0.00    +0.004 C 
ENDBRANCH  42  54
ENDBRANCH  38  41
ENDBRANCH  26  37
BRANCH  19  56
ATOM     56  O   UNL     1       9.328   7.089  24.328  0.00  0.00    -0.495 OA
ATOM     57  C   UNL     1      10.514   6.280  24.199  0.00  0.00    +0.277 C 
ENDBRANCH  19  56
TORSDOF 8
ENDMDL
MODEL 8
REMARK VINA RESULT:      -4.4      3.147      9.465
REMARK  Name = 
REMARK  12 active torsions:
REMARK  status: ('A' for Active; 'I' for Inactive)
REMARK    1  A    between atoms: C_1  and  C_2
REMARK    2  A    between atoms: C_2  and  C_3
REMARK    3  A    between atoms: C_2  and  C_4
REMARK    4  A    between atoms: C_2  and  C_5
REMARK    5  A    between atoms: C_12  and  C_13
REMARK    6  A    between atoms: N_15  and  C_16
REMARK    7  A    between atoms: C_16  and  C_22
REMARK    8  A    between atoms: C_18  and  C_20
REMARK    9  A    between atoms: N_24  and  S_25
REMARK   10  A    between atoms: S_25  and  C_28
REMARK   11  A    between atoms: C_38  and  O_40
REMARK   12  A    between atoms: O_40  and  C_41
REMARK                            x       y       z     vdW  Elec       q    Type
REMARK                         _______ _______ _______ _____ _____    ______ ____
ROOT
ATOM      1  C   UNL     1       7.231   1.701  24.924  0.00  0.00    +0.168 C 
ATOM      2  N   UNL     1       8.054   0.698  24.260  0.00  0.00    -0.269 N 
ATOM      3  H   UNL     1       8.820   0.243  24.736  0.00  0.00    +0.153 HD
ATOM      4  C   UNL     1       7.916   0.482  22.914  0.00  0.00    +0.401 C 
ATOM      5  O   UNL     1       7.055   0.984  22.204  0.00  0.00    -0.226 OA
ATOM      6  O   UNL     1       8.726  -0.532  22.494  0.00  0.00    -0.447 OA
ATOM      7  C   UNL     1       7.913  -1.577  21.923  0.00  0.00    +0.182 C 
ATOM      8  C   UNL     1       8.095  -3.027  22.263  0.00  0.00    +0.033 C 
ATOM      9  C   UNL     1       7.380  -4.168  21.602  0.00  0.00    +0.007 C 
ATOM     10  C   UNL     1       6.837  -5.096  22.702  0.00  0.00    +0.000 C 
ATOM     11  C   UNL     1       5.337  -4.903  22.933  0.00  0.00    +0.000 C 
ATOM     12  C   UNL     1       4.877  -5.486  24.261  0.00  0.00    +0.006 C 
ATOM     13  C   UNL     1       5.291  -4.636  25.482  0.00  0.00    +0.061 C 
ATOM     14  C   UNL     1       4.422  -4.906  26.672  0.00  0.00    +0.103 A 
ATOM     15  C   UNL     1       4.098  -3.956  27.662  0.00  0.00    +0.238 A 
ATOM     16  N   UNL     1       3.271  -4.290  28.683  0.00  0.00    -0.210 NA
ATOM     17  C   UNL     1       2.624  -5.479  28.577  0.00  0.00    +0.096 A 
ATOM     18  C   UNL     1       1.694  -5.862  29.528  0.00  0.00    +0.075 A 
ATOM     19  C   UNL     1       1.034  -7.089  29.404  0.00  0.00    +0.122 A 
ATOM     20  C   UNL     1       1.042  -7.775  28.202  0.00  0.00    +0.048 A 
ATOM     21  C   UNL     1       2.024  -7.443  27.285  0.00  0.00    +0.033 A 
ATOM     22  C   UNL     1       2.865  -6.359  27.505  0.00  0.00    +0.090 A 
ATOM     23  O   UNL     1       3.816  -2.701  27.259  0.00  0.00    -0.470 OA
ATOM     24  C   UNL     1       4.525  -1.502  27.189  0.00  0.00    +0.195 C 
ATOM     25  C   UNL     1       4.235  -0.340  28.171  0.00  0.00    +0.078 C 
ATOM     26  C   UNL     1       4.507   0.780  27.152  0.00  0.00    +0.166 C 
ATOM     27  N   UNL     1       5.698   0.345  26.365  0.00  0.00    -0.285 N 
ATOM     28  C   UNL     1       5.914  -1.102  26.678  0.00  0.00    +0.153 C 
ATOM     29  N   UNL     1       3.834  -6.140  26.637  0.00  0.00    -0.245 NA
ATOM     30  C   UNL     1       7.177  -2.192  23.089  0.00  0.00    +0.052 C 
ATOM     31  C   UNL     1       6.783   1.234  26.369  0.00  0.00    +0.237 C 
ATOM     32  O   UNL     1       7.209   1.687  27.430  0.00  0.00    -0.274 OA
ENDROOT
BRANCH   1  34
ATOM     33  C   UNL     1       7.664   3.973  26.055  0.00  0.00    +0.013 C 
ATOM     34  C   UNL     1       7.911   3.109  24.809  0.00  0.00    -0.011 C 
ATOM     35  C   UNL     1       9.450   2.995  24.645  0.00  0.00    +0.013 C 
ATOM     36  C   UNL     1       7.405   3.821  23.546  0.00  0.00    +0.013 C 
ENDBRANCH   1  34
BRANCH  26  37
ATOM     37  C   UNL     1       4.210   2.267  27.328  0.00  0.00    +0.234 C 
ATOM     38  N   UNL     1       3.287   2.849  26.496  0.00  0.00    -0.299 N 
ATOM     39  H   UNL     1       2.593   2.259  26.048  0.00  0.00    +0.150 HD
ATOM     40  O   UNL     1       4.829   2.900  28.184  0.00  0.00    -0.274 OA
BRANCH  38  41
ATOM     41  C   UNL     1       2.962   4.280  26.620  0.00  0.00    +0.119 C 
ATOM     42  C   UNL     1       1.868   4.707  27.616  0.00  0.00    +0.046 C 
ATOM     43  C   UNL     1       3.303   4.965  27.947  0.00  0.00    +0.046 C 
BRANCH  41  44
ATOM     44  C   UNL     1       3.229   5.123  25.375  0.00  0.00    +0.256 C 
ATOM     45  N   UNL     1       2.567   4.696  24.222  0.00  0.00    -0.188 N 
ATOM     46  H   UNL     1       1.750   4.091  24.268  0.00  0.00    +0.176 HD
ATOM     47  O   UNL     1       4.066   6.015  25.374  0.00  0.00    -0.272 OA
BRANCH  45  48
ATOM     48  S   UNL     1       2.865   5.313  22.707  0.00  0.00    +0.048 S 
ATOM     49  O   UNL     1       4.295   5.405  22.547  0.00  0.00    -0.155 OA
ATOM     50  O   UNL     1       2.029   6.495  22.617  0.00  0.00    -0.155 OA
BRANCH  48  51
ATOM     51  C   UNL     1       2.271   4.126  21.458  0.00  0.00    +0.151 C 
ATOM     52  C   UNL     1       1.311   4.668  20.432  0.00  0.00    +0.030 C 
ATOM     53  C   UNL     1       0.799   3.807  21.554  0.00  0.00    +0.030 C 
ENDBRANCH  48  51
ENDBRANCH  45  48
ENDBRANCH  41  44
BRANCH  42  54
ATOM     54  C   UNL     1       0.945   5.783  27.242  0.00  0.00    -0.028 C 
ATOM     55  C   UNL     1       1.086   7.062  27.618  0.00  0.00    +0.004 C 
ENDBRANCH  42  54
ENDBRANCH  38  41
ENDBRANCH  26  37
BRANCH  19  56
ATOM     56  O   UNL     1       0.444  -7.682  30.485  0.00  0.00    -0.495 OA
ATOM     57  C   UNL     1       0.677  -9.105  30.455  0.00  0.00    +0.277 C 
ENDBRANCH  19  56
TORSDOF 8
ENDMDL
MODEL 9
REMARK VINA RESULT:      -4.3      2.640      6.879
REMARK  Name = 
REMARK  12 active torsions:
REMARK  status: ('A' for Active; 'I' for Inactive)
REMARK    1  A    between atoms: C_1  and  C_2
REMARK    2  A    between atoms: C_2  and  C_3
REMARK    3  A    between atoms: C_2  and  C_4
REMARK    4  A    between atoms: C_2  and  C_5
REMARK    5  A    between atoms: C_12  and  C_13
REMARK    6  A    between atoms: N_15  and  C_16
REMARK    7  A    between atoms: C_16  and  C_22
REMARK    8  A    between atoms: C_18  and  C_20
REMARK    9  A    between atoms: N_24  and  S_25
REMARK   10  A    between atoms: S_25  and  C_28
REMARK   11  A    between atoms: C_38  and  O_40
REMARK   12  A    between atoms: O_40  and  C_41
REMARK                            x       y       z     vdW  Elec       q    Type
REMARK                         _______ _______ _______ _____ _____    ______ ____
ROOT
ATOM      1  C   UNL     1       2.463  -1.023  27.711  0.00  0.00    +0.168 C 
ATOM      2  N   UNL     1       2.189   0.178  28.490  0.00  0.00    -0.269 N 
ATOM      3  H   UNL     1       2.675   0.369  29.355  0.00  0.00    +0.153 HD
ATOM      4  C   UNL     1       1.136   0.986  28.153  0.00  0.00    +0.401 C 
ATOM      5  O   UNL     1       0.443   0.861  27.152  0.00  0.00    -0.226 OA
ATOM      6  O   UNL     1       1.083   2.085  28.959  0.00  0.00    -0.447 OA
ATOM      7  C   UNL     1       1.202   3.271  28.148  0.00  0.00    +0.182 C 
ATOM      8  C   UNL     1       2.123   4.404  28.492  0.00  0.00    +0.033 C 
ATOM      9  C   UNL     1       2.190   5.717  27.770  0.00  0.00    +0.007 C 
ATOM     10  C   UNL     1       3.668   6.033  27.484  0.00  0.00    +0.000 C 
ATOM     11  C   UNL     1       4.051   5.745  26.031  0.00  0.00    +0.000 C 
ATOM     12  C   UNL     1       5.557   5.651  25.838  0.00  0.00    +0.006 C 
ATOM     13  C   UNL     1       6.166   4.339  26.378  0.00  0.00    +0.061 C 
ATOM     14  C   UNL     1       7.482   4.026  25.736  0.00  0.00    +0.103 A 
ATOM     15  C   UNL     1       7.976   2.726  25.505  0.00  0.00    +0.238 A 
ATOM     16  N   UNL     1       9.167   2.549  24.882  0.00  0.00    -0.210 NA
ATOM     17  C   UNL     1       9.728   3.650  24.320  0.00  0.00    +0.096 A 
ATOM     18  C   UNL     1      10.898   3.548  23.587  0.00  0.00    +0.075 A 
ATOM     19  C   UNL     1      11.464   4.690  23.012  0.00  0.00    +0.122 A 
ATOM     20  C   UNL     1      10.722   5.851  22.879  0.00  0.00    +0.048 A 
ATOM     21  C   UNL     1       9.596   5.983  23.670  0.00  0.00    +0.033 A 
ATOM     22  C   UNL     1       9.147   4.925  24.450  0.00  0.00    +0.090 A 
ATOM     23  O   UNL     1       7.106   1.794  25.066  0.00  0.00    -0.470 OA
ATOM     24  C   UNL     1       6.375   0.766  25.660  0.00  0.00    +0.195 C 
ATOM     25  C   UNL     1       6.759  -0.720  25.445  0.00  0.00    +0.078 C 
ATOM     26  C   UNL     1       5.313  -1.245  25.462  0.00  0.00    +0.166 C 
ATOM     27  N   UNL     1       4.609  -0.490  26.539  0.00  0.00    -0.285 N 
ATOM     28  C   UNL     1       5.499   0.654  26.913  0.00  0.00    +0.153 C 
ATOM     29  N   UNL     1       8.116   5.135  25.247  0.00  0.00    -0.245 NA
ATOM     30  C   UNL     1       2.631   3.278  27.659  0.00  0.00    +0.052 C 
ATOM     31  C   UNL     1       4.017  -1.274  27.539  0.00  0.00    +0.237 C 
ATOM     32  O   UNL     1       4.662  -2.161  28.096  0.00  0.00    -0.274 OA
ENDROOT
BRANCH   1  34
ATOM     33  C   UNL     1       0.800  -1.828  29.504  0.00  0.00    +0.013 C 
ATOM     34  C   UNL     1       1.603  -2.217  28.253  0.00  0.00    -0.011 C 
ATOM     35  C   UNL     1       0.575  -2.713  27.201  0.00  0.00    +0.013 C 
ATOM     36  C   UNL     1       2.516  -3.416  28.546  0.00  0.00    +0.013 C 
ENDBRANCH   1  34
BRANCH  26  37
ATOM     37  C   UNL     1       4.847  -2.648  25.084  0.00  0.00    +0.234 C 
ATOM     38  N   UNL     1       3.544  -2.993  25.341  0.00  0.00    -0.299 N 
ATOM     39  H   UNL     1       2.854  -2.254  25.434  0.00  0.00    +0.150 HD
ATOM     40  O   UNL     1       5.660  -3.433  24.595  0.00  0.00    -0.274 OA
BRANCH  38  41
ATOM     41  C   UNL     1       3.041  -4.334  24.998  0.00  0.00    +0.119 C 
ATOM     42  C   UNL     1       1.629  -4.464  24.399  0.00  0.00    +0.046 C 
ATOM     43  C   UNL     1       2.821  -4.643  23.515  0.00  0.00    +0.046 C 
BRANCH  41  44
ATOM     44  C   UNL     1       3.630  -5.482  25.814  0.00  0.00    +0.256 C 
ATOM     45  N   UNL     1       4.418  -5.091  26.899  0.00  0.00    -0.188 N 
ATOM     46  H   UNL     1       4.351  -4.158  27.299  0.00  0.00    +0.176 HD
ATOM     47  O   UNL     1       3.522  -6.645  25.452  0.00  0.00    -0.272 OA
BRANCH  45  48
ATOM     48  S   UNL     1       5.337  -6.146  27.797  0.00  0.00    +0.048 S 
ATOM     49  O   UNL     1       5.310  -7.425  27.132  0.00  0.00    -0.155 OA
ATOM     50  O   UNL     1       4.846  -6.003  29.154  0.00  0.00    -0.155 OA
BRANCH  48  51
ATOM     51  C   UNL     1       7.070  -5.581  27.781  0.00  0.00    +0.151 C 
ATOM     52  C   UNL     1       7.331  -4.258  27.113  0.00  0.00    +0.030 C 
ATOM     53  C   UNL     1       7.696  -5.535  26.408  0.00  0.00    +0.030 C 
ENDBRANCH  48  51
ENDBRANCH  45  48
ENDBRANCH  41  44
BRANCH  42  54
ATOM     54  C   UNL     1       0.781  -5.587  24.809  0.00  0.00    -0.028 C 
ATOM     55  C   UNL     1       0.443  -6.608  24.008  0.00  0.00    +0.004 C 
ENDBRANCH  42  54
ENDBRANCH  38  41
ENDBRANCH  26  37
BRANCH  19  56
ATOM     56  O   UNL     1      12.782   4.718  22.652  0.00  0.00    -0.495 OA
ATOM     57  C   UNL     1      13.361   5.993  22.994  0.00  0.00    +0.277 C 
ENDBRANCH  19  56
TORSDOF 8
ENDMDL
