MODEL 1
REMARK VINA RESULT:      -7.3      0.000      0.000
REMARK  Name = 
REMARK  27 active torsions:
REMARK  status: ('A' for Active; 'I' for Inactive)
REMARK    1  A    between atoms: C_1  and  C_2
REMARK    2  A    between atoms: C_2  and  C_3
REMARK    3  A    between atoms: C_2  and  C_4
REMARK    4  A    between atoms: C_2  and  C_5
REMARK    5  A    between atoms: C_5  and  C_7
REMARK    6  A    between atoms: C_5  and  N_51
REMARK    7  A    between atoms: N_9  and  C_10
REMARK    8  A    between atoms: C_10  and  C_12
REMARK    9  A    between atoms: C_10  and  C_19
REMARK   10  A    between atoms: C_12  and  C_13
REMARK   11  A    between atoms: C_19  and  C_21
REMARK   12  A    between atoms: C_19  and  O_50
REMARK   13  A    between atoms: C_21  and  N_22
REMARK   14  A    between atoms: N_22  and  C_23
REMARK   15  A    between atoms: N_22  and  N_36
REMARK   16  A    between atoms: C_23  and  C_24
REMARK   17  A    between atoms: C_27  and  C_30
REMARK   18  A    between atoms: C_37  and  C_39
REMARK   19  A    between atoms: C_39  and  C_41
REMARK   20  A    between atoms: C_39  and  N_45
REMARK   21  A    between atoms: C_41  and  C_42
REMARK   22  A    between atoms: C_41  and  C_43
REMARK   23  A    between atoms: C_41  and  C_44
REMARK   24  A    between atoms: C_46  and  O_48
REMARK   25  A    between atoms: O_48  and  C_49
REMARK   26  A    between atoms: C_52  and  O_54
REMARK   27  A    between atoms: O_54  and  C_55
REMARK                            x       y       z     vdW  Elec       q    Type
REMARK                         _______ _______ _______ _____ _____    ______ ____
ROOT
ATOM      1  N   UNL     1       8.704  -2.467  24.549  0.00  0.00    -0.220 NA
ENDROOT
BRANCH   1   2
ATOM      2  N   UNL     1       7.606  -1.638  24.898  0.00  0.00    -0.246 N 
ATOM      3  H   UNL     1       6.731  -1.698  24.389  0.00  0.00    +0.169 HD
ATOM      4  C   UNL     1       7.551  -0.918  26.090  0.00  0.00    +0.248 C 
ATOM      5  O   UNL     1       8.429  -0.909  26.942  0.00  0.00    -0.272 OA
BRANCH   4   6
ATOM      6  C   UNL     1       6.293   0.002  26.072  0.00  0.00    +0.169 C 
BRANCH   6   7
ATOM      7  C   UNL     1       6.427   1.378  25.358  0.00  0.00    -0.011 C 
ATOM      8  C   UNL     1       6.697   1.133  23.855  0.00  0.00    +0.013 C 
ATOM      9  C   UNL     1       7.651   2.151  25.903  0.00  0.00    +0.013 C 
ATOM     10  C   UNL     1       5.175   2.253  25.500  0.00  0.00    +0.013 C 
ENDBRANCH   6   7
BRANCH   6  11
ATOM     11  N   UNL     1       5.627   0.032  27.385  0.00  0.00    -0.269 N 
ATOM     12  H   UNL     1       6.184  -0.109  28.220  0.00  0.00    +0.153 HD
ATOM     13  C   UNL     1       4.333  -0.365  27.552  0.00  0.00    +0.401 C 
ATOM     14  O   UNL     1       3.509  -0.464  26.659  0.00  0.00    -0.226 OA
BRANCH  13  15
ATOM     15  O   UNL     1       4.109  -0.649  28.857  0.00  0.00    -0.454 OA
ATOM     16  C   UNL     1       2.725  -0.766  29.205  0.00  0.00    +0.282 C 
ENDBRANCH  13  15
ENDBRANCH   6  11
ENDBRANCH   4   6
ENDBRANCH   1   2
BRANCH   1  17
ATOM     17  C   UNL     1       8.274  -3.894  24.571  0.00  0.00    +0.139 C 
BRANCH  17  18
ATOM     18  C   UNL     1       8.188  -4.510  26.004  0.00  0.00    +0.151 C 
BRANCH  18  19
ATOM     19  O   UNL     1       8.704  -5.851  25.984  0.00  0.00    -0.389 OA
ATOM     20  H   UNL     1       7.983  -6.415  26.341  0.00  0.00    +0.210 HD
ENDBRANCH  18  19
BRANCH  18  21
ATOM     21  C   UNL     1       6.732  -4.509  26.560  0.00  0.00    +0.107 C 
BRANCH  21  23
ATOM     22  C   UNL     1       4.868  -4.120  24.947  0.00  0.00    +0.234 C 
ATOM     23  N   UNL     1       5.785  -4.963  25.530  0.00  0.00    -0.308 N 
ATOM     24  H   UNL     1       5.920  -5.900  25.163  0.00  0.00    +0.149 HD
ATOM     25  O   UNL     1       4.679  -2.961  25.333  0.00  0.00    -0.274 OA
BRANCH  22  26
ATOM     26  C   UNL     1       4.142  -4.681  23.708  0.00  0.00    +0.167 C 
BRANCH  26  28
ATOM     27  C   UNL     1       2.349  -5.361  25.399  0.00  0.00    +0.013 C 
ATOM     28  C   UNL     1       3.124  -5.788  24.132  0.00  0.00    -0.011 C 
ATOM     29  C   UNL     1       2.095  -6.005  23.006  0.00  0.00    +0.013 C 
ATOM     30  C   UNL     1       3.825  -7.132  24.424  0.00  0.00    +0.013 C 
ENDBRANCH  26  28
BRANCH  26  31
ATOM     31  N   UNL     1       5.183  -5.189  22.813  0.00  0.00    -0.269 N 
ATOM     32  H   UNL     1       5.799  -5.902  23.183  0.00  0.00    +0.153 HD
ATOM     33  C   UNL     1       5.809  -4.388  21.905  0.00  0.00    +0.401 C 
ATOM     34  O   UNL     1       5.436  -3.281  21.559  0.00  0.00    -0.226 OA
BRANCH  33  35
ATOM     35  O   UNL     1       6.934  -5.012  21.476  0.00  0.00    -0.454 OA
ATOM     36  C   UNL     1       7.194  -6.286  22.070  0.00  0.00    +0.282 C 
ENDBRANCH  33  35
ENDBRANCH  26  31
ENDBRANCH  22  26
ENDBRANCH  21  23
BRANCH  21  37
ATOM     37  C   UNL     1       6.574  -5.326  27.872  0.00  0.00    +0.060 C 
BRANCH  37  38
ATOM     38  C   UNL     1       5.142  -5.484  28.337  0.00  0.00    -0.046 A 
ATOM     39  C   UNL     1       4.559  -6.757  28.400  0.00  0.00    +0.004 A 
ATOM     40  C   UNL     1       3.256  -6.920  28.867  0.00  0.00    +0.000 A 
ATOM     41  C   UNL     1       2.522  -5.812  29.282  0.00  0.00    +0.000 A 
ATOM     42  C   UNL     1       3.083  -4.539  29.209  0.00  0.00    +0.000 A 
ATOM     43  C   UNL     1       4.380  -4.375  28.723  0.00  0.00    +0.004 A 
ENDBRANCH  37  38
ENDBRANCH  21  37
ENDBRANCH  18  21
ENDBRANCH  17  18
ENDBRANCH   1  17
BRANCH   1  44
ATOM     44  C   UNL     1       9.192  -2.071  23.183  0.00  0.00    +0.140 C 
BRANCH  44  45
ATOM     45  C   UNL     1       9.825  -0.698  23.111  0.00  0.00    -0.032 A 
ATOM     46  C   UNL     1       9.649   0.108  21.985  0.00  0.00    +0.005 A 
ATOM     47  C   UNL     1      10.016   1.457  22.020  0.00  0.00    +0.009 A 
ATOM     48  C   UNL     1      10.543   2.043  23.185  0.00  0.00    -0.018 A 
ATOM     49  C   UNL     1      10.884   1.174  24.237  0.00  0.00    +0.009 A 
ATOM     50  C   UNL     1      10.533  -0.180  24.201  0.00  0.00    +0.005 A 
BRANCH  48  51
ATOM     51  C   UNL     1      10.565   3.518  23.372  0.00  0.00    -0.018 A 
ATOM     52  C   UNL     1       9.384   4.202  23.731  0.00  0.00    +0.008 A 
ATOM     53  C   UNL     1       9.392   5.551  24.093  0.00  0.00    +0.001 A 
ATOM     54  C   UNL     1      10.588   6.257  24.107  0.00  0.00    +0.000 A 
ATOM     55  C   UNL     1      11.767   5.621  23.729  0.00  0.00    +0.001 A 
ATOM     56  C   UNL     1      11.752   4.271  23.355  0.00  0.00    +0.008 A 
ENDBRANCH  48  51
ENDBRANCH  44  45
ENDBRANCH   1  44
TORSDOF 19
ENDMDL
MODEL 2
REMARK VINA RESULT:      -7.0      2.726      7.383
REMARK  Name = 
REMARK  27 active torsions:
REMARK  status: ('A' for Active; 'I' for Inactive)
REMARK    1  A    between atoms: C_1  and  C_2
REMARK    2  A    between atoms: C_2  and  C_3
REMARK    3  A    between atoms: C_2  and  C_4
REMARK    4  A    between atoms: C_2  and  C_5
REMARK    5  A    between atoms: C_5  and  C_7
REMARK    6  A    between atoms: C_5  and  N_51
REMARK    7  A    between atoms: N_9  and  C_10
REMARK    8  A    between atoms: C_10  and  C_12
REMARK    9  A    between atoms: C_10  and  C_19
REMARK   10  A    between atoms: C_12  and  C_13
REMARK   11  A    between atoms: C_19  and  C_21
REMARK   12  A    between atoms: C_19  and  O_50
REMARK   13  A    between atoms: C_21  and  N_22
REMARK   14  A    between atoms: N_22  and  C_23
REMARK   15  A    between atoms: N_22  and  N_36
REMARK   16  A    between atoms: C_23  and  C_24
REMARK   17  A    between atoms: C_27  and  C_30
REMARK   18  A    between atoms: C_37  and  C_39
REMARK   19  A    between atoms: C_39  and  C_41
REMARK   20  A    between atoms: C_39  and  N_45
REMARK   21  A    between atoms: C_41  and  C_42
REMARK   22  A    between atoms: C_41  and  C_43
REMARK   23  A    between atoms: C_41  and  C_44
REMARK   24  A    between atoms: C_46  and  O_48
REMARK   25  A    between atoms: O_48  and  C_49
REMARK   26  A    between atoms: C_52  and  O_54
REMARK   27  A    between atoms: O_54  and  C_55
REMARK                            x       y       z     vdW  Elec       q    Type
REMARK                         _______ _______ _______ _____ _____    ______ ____
ROOT
ATOM      1  N   UNL     1       7.482  -1.701  23.680  0.00  0.00    -0.220 NA
ENDROOT
BRANCH   1   2
ATOM      2  N   UNL     1       7.044  -2.939  24.221  0.00  0.00    -0.246 N 
ATOM      3  H   UNL     1       7.714  -3.609  24.583  0.00  0.00    +0.169 HD
ATOM      4  C   UNL     1       5.713  -3.195  24.545  0.00  0.00    +0.248 C 
ATOM      5  O   UNL     1       4.791  -2.406  24.388  0.00  0.00    -0.272 OA
BRANCH   4   6
ATOM      6  C   UNL     1       5.567  -4.692  24.956  0.00  0.00    +0.169 C 
BRANCH   6   7
ATOM      7  C   UNL     1       6.062  -5.091  26.376  0.00  0.00    -0.011 C 
ATOM      8  C   UNL     1       5.254  -6.320  26.855  0.00  0.00    +0.013 C 
ATOM      9  C   UNL     1       5.774  -3.956  27.387  0.00  0.00    +0.013 C 
ATOM     10  C   UNL     1       7.557  -5.435  26.417  0.00  0.00    +0.013 C 
ENDBRANCH   6   7
BRANCH   6  11
ATOM     11  N   UNL     1       5.976  -5.593  23.866  0.00  0.00    -0.269 N 
ATOM     12  H   UNL     1       6.965  -5.729  23.688  0.00  0.00    +0.153 HD
ATOM     13  C   UNL     1       5.219  -5.768  22.746  0.00  0.00    +0.401 C 
ATOM     14  O   UNL     1       4.034  -5.495  22.651  0.00  0.00    -0.226 OA
BRANCH  13  15
ATOM     15  O   UNL     1       5.985  -6.275  21.751  0.00  0.00    -0.454 OA
ATOM     16  C   UNL     1       7.258  -5.636  21.605  0.00  0.00    +0.282 C 
ENDBRANCH  13  15
ENDBRANCH   6  11
ENDBRANCH   4   6
ENDBRANCH   1   2
BRANCH   1  17
ATOM     17  C   UNL     1       7.276  -0.620  24.686  0.00  0.00    +0.139 C 
BRANCH  17  18
ATOM     18  C   UNL     1       6.424   0.580  24.164  0.00  0.00    +0.151 C 
BRANCH  18  19
ATOM     19  O   UNL     1       6.178   0.421  22.757  0.00  0.00    -0.389 OA
ATOM     20  H   UNL     1       6.269   1.320  22.371  0.00  0.00    +0.210 HD
ENDBRANCH  18  19
BRANCH  18  21
ATOM     21  C   UNL     1       7.114   1.952  24.430  0.00  0.00    +0.107 C 
BRANCH  21  23
ATOM     22  C   UNL     1       6.140   3.594  22.825  0.00  0.00    +0.234 C 
ATOM     23  N   UNL     1       6.210   3.061  24.090  0.00  0.00    -0.308 N 
ATOM     24  H   UNL     1       5.535   3.336  24.797  0.00  0.00    +0.149 HD
ATOM     25  O   UNL     1       6.917   3.279  21.917  0.00  0.00    -0.274 OA
BRANCH  22  26
ATOM     26  C   UNL     1       4.961   4.557  22.573  0.00  0.00    +0.167 C 
BRANCH  26  28
ATOM     27  C   UNL     1       4.351   7.028  22.330  0.00  0.00    +0.013 C 
ATOM     28  C   UNL     1       5.385   6.027  22.891  0.00  0.00    -0.011 C 
ATOM     29  C   UNL     1       5.452   6.229  24.417  0.00  0.00    +0.013 C 
ATOM     30  C   UNL     1       6.766   6.370  22.289  0.00  0.00    +0.013 C 
ENDBRANCH  26  28
BRANCH  26  31
ATOM     31  N   UNL     1       3.861   4.094  23.420  0.00  0.00    -0.269 N 
ATOM     32  H   UNL     1       4.087   3.857  24.378  0.00  0.00    +0.153 HD
ATOM     33  C   UNL     1       2.839   3.338  22.929  0.00  0.00    +0.401 C 
ATOM     34  O   UNL     1       2.584   3.171  21.749  0.00  0.00    -0.226 OA
BRANCH  33  35
ATOM     35  O   UNL     1       2.175   2.774  23.968  0.00  0.00    -0.454 OA
ATOM     36  C   UNL     1       2.411   3.373  25.244  0.00  0.00    +0.282 C 
ENDBRANCH  33  35
ENDBRANCH  26  31
ENDBRANCH  22  26
ENDBRANCH  21  23
BRANCH  21  37
ATOM     37  C   UNL     1       7.663   2.094  25.877  0.00  0.00    +0.060 C 
BRANCH  37  38
ATOM     38  C   UNL     1       6.865   3.035  26.755  0.00  0.00    -0.046 A 
ATOM     39  C   UNL     1       5.670   2.601  27.345  0.00  0.00    +0.004 A 
ATOM     40  C   UNL     1       4.949   3.443  28.189  0.00  0.00    +0.000 A 
ATOM     41  C   UNL     1       5.416   4.727  28.458  0.00  0.00    +0.000 A 
ATOM     42  C   UNL     1       6.594   5.175  27.865  0.00  0.00    +0.000 A 
ATOM     43  C   UNL     1       7.306   4.339  27.005  0.00  0.00    +0.004 A 
ENDBRANCH  37  38
ENDBRANCH  21  37
ENDBRANCH  18  21
ENDBRANCH  17  18
ENDBRANCH   1  17
BRANCH   1  44
ATOM     44  C   UNL     1       8.933  -1.825  23.308  0.00  0.00    +0.140 C 
BRANCH  44  45
ATOM     45  C   UNL     1       9.678  -0.510  23.217  0.00  0.00    -0.032 A 
ATOM     46  C   UNL     1       9.544   0.307  22.093  0.00  0.00    +0.005 A 
ATOM     47  C   UNL     1      10.025   1.620  22.117  0.00  0.00    +0.009 A 
ATOM     48  C   UNL     1      10.626   2.160  23.268  0.00  0.00    -0.018 A 
ATOM     49  C   UNL     1      10.916   1.267  24.314  0.00  0.00    +0.009 A 
ATOM     50  C   UNL     1      10.452  -0.053  24.290  0.00  0.00    +0.005 A 
BRANCH  48  51
ATOM     51  C   UNL     1      10.776   3.629  23.450  0.00  0.00    -0.018 A 
ATOM     52  C   UNL     1       9.696   4.394  23.938  0.00  0.00    +0.008 A 
ATOM     53  C   UNL     1       9.843   5.737  24.295  0.00  0.00    +0.001 A 
ATOM     54  C   UNL     1      11.082   6.353  24.177  0.00  0.00    +0.000 A 
ATOM     55  C   UNL     1      12.161   5.636  23.671  0.00  0.00    +0.001 A 
ATOM     56  C   UNL     1      12.007   4.293  23.301  0.00  0.00    +0.008 A 
ENDBRANCH  48  51
ENDBRANCH  44  45
ENDBRANCH   1  44
TORSDOF 19
ENDMDL
MODEL 3
REMARK VINA RESULT:      -6.8      2.841      7.433
REMARK  Name = 
REMARK  27 active torsions:
REMARK  status: ('A' for Active; 'I' for Inactive)
REMARK    1  A    between atoms: C_1  and  C_2
REMARK    2  A    between atoms: C_2  and  C_3
REMARK    3  A    between atoms: C_2  and  C_4
REMARK    4  A    between atoms: C_2  and  C_5
REMARK    5  A    between atoms: C_5  and  C_7
REMARK    6  A    between atoms: C_5  and  N_51
REMARK    7  A    between atoms: N_9  and  C_10
REMARK    8  A    between atoms: C_10  and  C_12
REMARK    9  A    between atoms: C_10  and  C_19
REMARK   10  A    between atoms: C_12  and  C_13
REMARK   11  A    between atoms: C_19  and  C_21
REMARK   12  A    between atoms: C_19  and  O_50
REMARK   13  A    between atoms: C_21  and  N_22
REMARK   14  A    between atoms: N_22  and  C_23
REMARK   15  A    between atoms: N_22  and  N_36
REMARK   16  A    between atoms: C_23  and  C_24
REMARK   17  A    between atoms: C_27  and  C_30
REMARK   18  A    between atoms: C_37  and  C_39
REMARK   19  A    between atoms: C_39  and  C_41
REMARK   20  A    between atoms: C_39  and  N_45
REMARK   21  A    between atoms: C_41  and  C_42
REMARK   22  A    between atoms: C_41  and  C_43
REMARK   23  A    between atoms: C_41  and  C_44
REMARK   24  A    between atoms: C_46  and  O_48
REMARK   25  A    between atoms: O_48  and  C_49
REMARK   26  A    between atoms: C_52  and  O_54
REMARK   27  A    between atoms: O_54  and  C_55
REMARK                            x       y       z     vdW  Elec       q    Type
REMARK                         _______ _______ _______ _____ _____    ______ ____
ROOT
ATOM      1  N   UNL     1       9.744  -0.406  25.141  0.00  0.00    -0.220 NA
ENDROOT
BRANCH   1   2
ATOM      2  N   UNL     1       9.113   0.778  24.677  0.00  0.00    -0.246 N 
ATOM      3  H   UNL     1       8.138   0.962  24.891  0.00  0.00    +0.169 HD
ATOM      4  C   UNL     1       9.822   1.863  24.163  0.00  0.00    +0.248 C 
ATOM      5  O   UNL     1      11.039   1.908  24.044  0.00  0.00    -0.272 OA
BRANCH   4   6
ATOM      6  C   UNL     1       8.814   2.912  23.605  0.00  0.00    +0.169 C 
BRANCH   6   7
ATOM      7  C   UNL     1       7.766   2.412  22.570  0.00  0.00    -0.011 C 
ATOM      8  C   UNL     1       8.500   1.617  21.465  0.00  0.00    +0.013 C 
ATOM      9  C   UNL     1       7.086   3.612  21.868  0.00  0.00    +0.013 C 
ATOM     10  C   UNL     1       6.687   1.516  23.192  0.00  0.00    +0.013 C 
ENDBRANCH   6   7
BRANCH   6  11
ATOM     11  N   UNL     1       9.486   4.178  23.265  0.00  0.00    -0.269 N 
ATOM     12  H   UNL     1      10.217   4.171  22.564  0.00  0.00    +0.153 HD
ATOM     13  C   UNL     1       9.649   5.180  24.175  0.00  0.00    +0.401 C 
ATOM     14  O   UNL     1       9.013   5.300  25.208  0.00  0.00    -0.226 OA
BRANCH  13  15
ATOM     15  O   UNL     1      10.636   6.012  23.765  0.00  0.00    -0.454 OA
ATOM     16  C   UNL     1      11.878   5.357  23.480  0.00  0.00    +0.282 C 
ENDBRANCH  13  15
ENDBRANCH   6  11
ENDBRANCH   4   6
ENDBRANCH   1   2
BRANCH   1  17
ATOM     17  C   UNL     1       8.822  -1.131  26.061  0.00  0.00    +0.139 C 
BRANCH  17  18
ATOM     18  C   UNL     1       7.933  -0.193  26.938  0.00  0.00    +0.151 C 
BRANCH  18  19
ATOM     19  O   UNL     1       8.587   0.057  28.193  0.00  0.00    -0.389 OA
ATOM     20  H   UNL     1       7.872   0.061  28.866  0.00  0.00    +0.210 HD
ENDBRANCH  18  19
BRANCH  18  21
ATOM     21  C   UNL     1       6.515  -0.791  27.189  0.00  0.00    +0.107 C 
BRANCH  21  23
ATOM     22  C   UNL     1       5.288   1.007  28.407  0.00  0.00    +0.234 C 
ATOM     23  N   UNL     1       5.508   0.279  27.263  0.00  0.00    -0.308 N 
ATOM     24  H   UNL     1       5.067   0.554  26.391  0.00  0.00    +0.149 HD
ATOM     25  O   UNL     1       5.817   0.736  29.491  0.00  0.00    -0.274 OA
BRANCH  22  26
ATOM     26  C   UNL     1       4.399   2.257  28.240  0.00  0.00    +0.167 C 
BRANCH  26  28
ATOM     27  C   UNL     1       2.699   0.593  29.178  0.00  0.00    +0.013 C 
ATOM     28  C   UNL     1       2.889   1.861  28.315  0.00  0.00    -0.011 C 
ATOM     29  C   UNL     1       2.086   2.999  28.973  0.00  0.00    +0.013 C 
ATOM     30  C   UNL     1       2.296   1.586  26.915  0.00  0.00    +0.013 C 
ENDBRANCH  26  28
BRANCH  26  31
ATOM     31  N   UNL     1       4.760   2.851  26.952  0.00  0.00    -0.269 N 
ATOM     32  H   UNL     1       4.861   2.221  26.167  0.00  0.00    +0.153 HD
ATOM     33  C   UNL     1       5.593   3.927  26.861  0.00  0.00    +0.401 C 
ATOM     34  O   UNL     1       5.923   4.649  27.785  0.00  0.00    -0.226 OA
BRANCH  33  35
ATOM     35  O   UNL     1       6.021   4.039  25.579  0.00  0.00    -0.454 OA
ATOM     36  C   UNL     1       5.304   4.976  24.772  0.00  0.00    +0.282 C 
ENDBRANCH  33  35
ENDBRANCH  26  31
ENDBRANCH  22  26
ENDBRANCH  21  23
BRANCH  21  37
ATOM     37  C   UNL     1       6.113  -1.876  26.152  0.00  0.00    +0.060 C 
BRANCH  37  38
ATOM     38  C   UNL     1       5.784  -3.223  26.758  0.00  0.00    -0.046 A 
ATOM     39  C   UNL     1       4.449  -3.587  26.982  0.00  0.00    +0.004 A 
ATOM     40  C   UNL     1       4.132  -4.841  27.499  0.00  0.00    +0.000 A 
ATOM     41  C   UNL     1       5.145  -5.750  27.795  0.00  0.00    +0.000 A 
ATOM     42  C   UNL     1       6.477  -5.394  27.593  0.00  0.00    +0.000 A 
ATOM     43  C   UNL     1       6.795  -4.132  27.093  0.00  0.00    +0.004 A 
ENDBRANCH  37  38
ENDBRANCH  21  37
ENDBRANCH  18  21
ENDBRANCH  17  18
ENDBRANCH   1  17
BRANCH   1  44
ATOM     44  C   UNL     1      10.103  -1.256  23.955  0.00  0.00    +0.140 C 
BRANCH  44  45
ATOM     45  C   UNL     1       9.063  -2.289  23.577  0.00  0.00    -0.032 A 
ATOM     46  C   UNL     1       9.122  -3.582  24.101  0.00  0.00    +0.005 A 
ATOM     47  C   UNL     1       8.036  -4.450  23.956  0.00  0.00    +0.009 A 
ATOM     48  C   UNL     1       6.854  -4.045  23.309  0.00  0.00    -0.018 A 
ATOM     49  C   UNL     1       6.890  -2.814  22.631  0.00  0.00    +0.009 A 
ATOM     50  C   UNL     1       7.980  -1.947  22.760  0.00  0.00    +0.005 A 
BRANCH  48  51
ATOM     51  C   UNL     1       5.576  -4.785  23.488  0.00  0.00    -0.018 A 
ATOM     52  C   UNL     1       5.592  -6.118  23.949  0.00  0.00    +0.008 A 
ATOM     53  C   UNL     1       4.420  -6.791  24.305  0.00  0.00    +0.001 A 
ATOM     54  C   UNL     1       3.194  -6.144  24.209  0.00  0.00    +0.000 A 
ATOM     55  C   UNL     1       3.141  -4.839  23.729  0.00  0.00    +0.001 A 
ATOM     56  C   UNL     1       4.317  -4.172  23.362  0.00  0.00    +0.008 A 
ENDBRANCH  48  51
ENDBRANCH  44  45
ENDBRANCH   1  44
TORSDOF 19
ENDMDL
MODEL 4
REMARK VINA RESULT:      -6.8      2.641      7.082
REMARK  Name = 
REMARK  27 active torsions:
REMARK  status: ('A' for Active; 'I' for Inactive)
REMARK    1  A    between atoms: C_1  and  C_2
REMARK    2  A    between atoms: C_2  and  C_3
REMARK    3  A    between atoms: C_2  and  C_4
REMARK    4  A    between atoms: C_2  and  C_5
REMARK    5  A    between atoms: C_5  and  C_7
REMARK    6  A    between atoms: C_5  and  N_51
REMARK    7  A    between atoms: N_9  and  C_10
REMARK    8  A    between atoms: C_10  and  C_12
REMARK    9  A    between atoms: C_10  and  C_19
REMARK   10  A    between atoms: C_12  and  C_13
REMARK   11  A    between atoms: C_19  and  C_21
REMARK   12  A    between atoms: C_19  and  O_50
REMARK   13  A    between atoms: C_21  and  N_22
REMARK   14  A    between atoms: N_22  and  C_23
REMARK   15  A    between atoms: N_22  and  N_36
REMARK   16  A    between atoms: C_23  and  C_24
REMARK   17  A    between atoms: C_27  and  C_30
REMARK   18  A    between atoms: C_37  and  C_39
REMARK   19  A    between atoms: C_39  and  C_41
REMARK   20  A    between atoms: C_39  and  N_45
REMARK   21  A    between atoms: C_41  and  C_42
REMARK   22  A    between atoms: C_41  and  C_43
REMARK   23  A    between atoms: C_41  and  C_44
REMARK   24  A    between atoms: C_46  and  O_48
REMARK   25  A    between atoms: O_48  and  C_49
REMARK   26  A    between atoms: C_52  and  O_54
REMARK   27  A    between atoms: O_54  and  C_55
REMARK                            x       y       z     vdW  Elec       q    Type
REMARK                         _______ _______ _______ _____ _____    ______ ____
ROOT
ATOM      1  N   UNL     1       7.635  -1.731  23.417  0.00  0.00    -0.220 NA
ENDROOT
BRANCH   1   2
ATOM      2  N   UNL     1       7.261  -3.016  23.892  0.00  0.00    -0.246 N 
ATOM      3  H   UNL     1       7.968  -3.711  24.111  0.00  0.00    +0.169 HD
ATOM      4  C   UNL     1       5.977  -3.312  24.346  0.00  0.00    +0.248 C 
ATOM      5  O   UNL     1       5.045  -2.519  24.371  0.00  0.00    -0.272 OA
BRANCH   4   6
ATOM      6  C   UNL     1       5.878  -4.840  24.635  0.00  0.00    +0.169 C 
BRANCH   6   7
ATOM      7  C   UNL     1       4.958  -5.682  23.705  0.00  0.00    -0.011 C 
ATOM      8  C   UNL     1       3.663  -4.882  23.431  0.00  0.00    +0.013 C 
ATOM      9  C   UNL     1       4.524  -6.987  24.414  0.00  0.00    +0.013 C 
ATOM     10  C   UNL     1       5.616  -6.032  22.364  0.00  0.00    +0.013 C 
ENDBRANCH   6   7
BRANCH   6  11
ATOM     11  N   UNL     1       5.738  -5.109  26.076  0.00  0.00    -0.269 N 
ATOM     12  H   UNL     1       4.988  -4.658  26.587  0.00  0.00    +0.153 HD
ATOM     13  C   UNL     1       6.811  -5.390  26.869  0.00  0.00    +0.401 C 
ATOM     14  O   UNL     1       7.899  -5.767  26.469  0.00  0.00    -0.226 OA
BRANCH  13  15
ATOM     15  O   UNL     1       6.489  -5.169  28.166  0.00  0.00    -0.454 OA
ATOM     16  C   UNL     1       5.273  -4.437  28.355  0.00  0.00    +0.282 C 
ENDBRANCH  13  15
ENDBRANCH   6  11
ENDBRANCH   4   6
ENDBRANCH   1   2
BRANCH   1  17
ATOM     17  C   UNL     1       7.461  -0.730  24.507  0.00  0.00    +0.139 C 
BRANCH  17  18
ATOM     18  C   UNL     1       6.562   0.486  24.116  0.00  0.00    +0.151 C 
BRANCH  18  19
ATOM     19  O   UNL     1       6.200   0.392  22.729  0.00  0.00    -0.389 OA
ATOM     20  H   UNL     1       6.992   0.692  22.230  0.00  0.00    +0.210 HD
ENDBRANCH  18  19
BRANCH  18  21
ATOM     21  C   UNL     1       7.265   1.850  24.390  0.00  0.00    +0.107 C 
BRANCH  21  23
ATOM     22  C   UNL     1       6.268   3.536  22.845  0.00  0.00    +0.234 C 
ATOM     23  N   UNL     1       6.356   2.969  24.094  0.00  0.00    -0.308 N 
ATOM     24  H   UNL     1       5.693   3.224  24.818  0.00  0.00    +0.149 HD
ATOM     25  O   UNL     1       7.031   3.245  21.917  0.00  0.00    -0.274 OA
BRANCH  22  26
ATOM     26  C   UNL     1       5.087   4.506  22.637  0.00  0.00    +0.167 C 
BRANCH  26  28
ATOM     27  C   UNL     1       5.850   6.135  24.454  0.00  0.00    +0.013 C 
ATOM     28  C   UNL     1       5.528   5.971  22.952  0.00  0.00    -0.011 C 
ATOM     29  C   UNL     1       6.805   6.310  22.160  0.00  0.00    +0.013 C 
ATOM     30  C   UNL     1       4.433   6.995  22.579  0.00  0.00    +0.013 C 
ENDBRANCH  26  28
BRANCH  26  31
ATOM     31  N   UNL     1       4.012   4.043  23.516  0.00  0.00    -0.269 N 
ATOM     32  H   UNL     1       4.271   3.775  24.457  0.00  0.00    +0.153 HD
ATOM     33  C   UNL     1       2.955   3.321  23.047  0.00  0.00    +0.401 C 
ATOM     34  O   UNL     1       2.649   3.191  21.874  0.00  0.00    -0.226 OA
BRANCH  33  35
ATOM     35  O   UNL     1       2.321   2.742  24.097  0.00  0.00    -0.454 OA
ATOM     36  C   UNL     1       2.877   3.029  25.383  0.00  0.00    +0.282 C 
ENDBRANCH  33  35
ENDBRANCH  26  31
ENDBRANCH  22  26
ENDBRANCH  21  23
BRANCH  21  37
ATOM     37  C   UNL     1       7.851   1.963  25.825  0.00  0.00    +0.060 C 
BRANCH  37  38
ATOM     38  C   UNL     1       6.920   2.609  26.828  0.00  0.00    -0.046 A 
ATOM     39  C   UNL     1       5.891   1.860  27.416  0.00  0.00    +0.004 A 
ATOM     40  C   UNL     1       5.054   2.431  28.372  0.00  0.00    +0.000 A 
ATOM     41  C   UNL     1       5.238   3.757  28.756  0.00  0.00    +0.000 A 
ATOM     42  C   UNL     1       6.246   4.517  28.167  0.00  0.00    +0.000 A 
ATOM     43  C   UNL     1       7.071   3.951  27.196  0.00  0.00    +0.004 A 
ENDBRANCH  37  38
ENDBRANCH  21  37
ENDBRANCH  18  21
ENDBRANCH  17  18
ENDBRANCH   1  17
BRANCH   1  44
ATOM     44  C   UNL     1       9.065  -1.786  22.956  0.00  0.00    +0.140 C 
BRANCH  44  45
ATOM     45  C   UNL     1       9.777  -0.451  22.940  0.00  0.00    -0.032 A 
ATOM     46  C   UNL     1       9.607   0.433  21.873  0.00  0.00    +0.005 A 
ATOM     47  C   UNL     1      10.056   1.754  21.975  0.00  0.00    +0.009 A 
ATOM     48  C   UNL     1      10.663   2.234  23.150  0.00  0.00    -0.018 A 
ATOM     49  C   UNL     1      10.990   1.282  24.132  0.00  0.00    +0.009 A 
ATOM     50  C   UNL     1      10.557  -0.044  24.028  0.00  0.00    +0.005 A 
BRANCH  48  51
ATOM     51  C   UNL     1      10.781   3.691  23.425  0.00  0.00    -0.018 A 
ATOM     52  C   UNL     1       9.684   4.400  23.957  0.00  0.00    +0.008 A 
ATOM     53  C   UNL     1       9.801   5.720  24.399  0.00  0.00    +0.001 A 
ATOM     54  C   UNL     1      11.027   6.369  24.322  0.00  0.00    +0.000 A 
ATOM     55  C   UNL     1      12.122   5.709  23.774  0.00  0.00    +0.001 A 
ATOM     56  C   UNL     1      11.997   4.389  23.320  0.00  0.00    +0.008 A 
ENDBRANCH  48  51
ENDBRANCH  44  45
ENDBRANCH   1  44
TORSDOF 19
ENDMDL
MODEL 5
REMARK VINA RESULT:      -6.5      2.519      7.130
REMARK  Name = 
REMARK  27 active torsions:
REMARK  status: ('A' for Active; 'I' for Inactive)
REMARK    1  A    between atoms: C_1  and  C_2
REMARK    2  A    between atoms: C_2  and  C_3
REMARK    3  A    between atoms: C_2  and  C_4
REMARK    4  A    between atoms: C_2  and  C_5
REMARK    5  A    between atoms: C_5  and  C_7
REMARK    6  A    between atoms: C_5  and  N_51
REMARK    7  A    between atoms: N_9  and  C_10
REMARK    8  A    between atoms: C_10  and  C_12
REMARK    9  A    between atoms: C_10  and  C_19
REMARK   10  A    between atoms: C_12  and  C_13
REMARK   11  A    between atoms: C_19  and  C_21
REMARK   12  A    between atoms: C_19  and  O_50
REMARK   13  A    between atoms: C_21  and  N_22
REMARK   14  A    between atoms: N_22  and  C_23
REMARK   15  A    between atoms: N_22  and  N_36
REMARK   16  A    between atoms: C_23  and  C_24
REMARK   17  A    between atoms: C_27  and  C_30
REMARK   18  A    between atoms: C_37  and  C_39
REMARK   19  A    between atoms: C_39  and  C_41
REMARK   20  A    between atoms: C_39  and  N_45
REMARK   21  A    between atoms: C_41  and  C_42
REMARK   22  A    between atoms: C_41  and  C_43
REMARK   23  A    between atoms: C_41  and  C_44
REMARK   24  A    between atoms: C_46  and  O_48
REMARK   25  A    between atoms: O_48  and  C_49
REMARK   26  A    between atoms: C_52  and  O_54
REMARK   27  A    between atoms: O_54  and  C_55
REMARK                            x       y       z     vdW  Elec       q    Type
REMARK                         _______ _______ _______ _____ _____    ______ ____
ROOT
ATOM      1  N   UNL     1       9.547  -0.433  25.327  0.00  0.00    -0.220 NA
ENDROOT
BRANCH   1   2
ATOM      2  N   UNL     1       8.921   0.774  24.921  0.00  0.00    -0.246 N 
ATOM      3  H   UNL     1       7.970   0.984  25.208  0.00  0.00    +0.169 HD
ATOM      4  C   UNL     1       9.624   1.844  24.367  0.00  0.00    +0.248 C 
ATOM      5  O   UNL     1      10.830   1.854  24.160  0.00  0.00    -0.272 OA
BRANCH   4   6
ATOM      6  C   UNL     1       8.611   2.929  23.894  0.00  0.00    +0.169 C 
BRANCH   6   7
ATOM      7  C   UNL     1       7.764   2.609  22.628  0.00  0.00    -0.011 C 
ATOM      8  C   UNL     1       6.588   1.691  23.038  0.00  0.00    +0.013 C 
ATOM      9  C   UNL     1       8.606   1.812  21.604  0.00  0.00    +0.013 C 
ATOM     10  C   UNL     1       7.199   3.863  21.949  0.00  0.00    +0.013 C 
ENDBRANCH   6   7
BRANCH   6  11
ATOM     11  N   UNL     1       9.204   4.276  23.934  0.00  0.00    -0.269 N 
ATOM     12  H   UNL     1      10.081   4.439  23.453  0.00  0.00    +0.153 HD
ATOM     13  C   UNL     1       9.032   5.113  24.997  0.00  0.00    +0.401 C 
ATOM     14  O   UNL     1       8.155   5.009  25.836  0.00  0.00    -0.226 OA
BRANCH  13  15
ATOM     15  O   UNL     1       9.994   6.066  24.986  0.00  0.00    -0.454 OA
ATOM     16  C   UNL     1      10.922   5.955  23.901  0.00  0.00    +0.282 C 
ENDBRANCH  13  15
ENDBRANCH   6  11
ENDBRANCH   4   6
ENDBRANCH   1   2
BRANCH   1  17
ATOM     17  C   UNL     1       8.618  -1.205  26.200  0.00  0.00    +0.139 C 
BRANCH  17  18
ATOM     18  C   UNL     1       7.519  -0.333  26.885  0.00  0.00    +0.151 C 
BRANCH  18  19
ATOM     19  O   UNL     1       8.081   0.350  28.017  0.00  0.00    -0.389 OA
ATOM     20  H   UNL     1       7.494   1.122  28.178  0.00  0.00    +0.210 HD
ENDBRANCH  18  19
BRANCH  18  21
ATOM     21  C   UNL     1       6.289  -1.180  27.334  0.00  0.00    +0.107 C 
BRANCH  21  23
ATOM     22  C   UNL     1       4.405   0.330  26.707  0.00  0.00    +0.234 C 
ATOM     23  N   UNL     1       5.153  -0.307  27.668  0.00  0.00    -0.308 N 
ATOM     24  H   UNL     1       4.854  -0.295  28.638  0.00  0.00    +0.149 HD
ATOM     25  O   UNL     1       4.705   0.328  25.508  0.00  0.00    -0.274 OA
BRANCH  22  26
ATOM     26  C   UNL     1       3.099   0.982  27.206  0.00  0.00    +0.167 C 
BRANCH  26  28
ATOM     27  C   UNL     1       4.681   2.985  27.355  0.00  0.00    +0.013 C 
ATOM     28  C   UNL     1       3.411   2.326  27.938  0.00  0.00    -0.011 C 
ATOM     29  C   UNL     1       2.241   3.309  27.740  0.00  0.00    +0.013 C 
ATOM     30  C   UNL     1       3.626   2.119  29.454  0.00  0.00    +0.013 C 
ENDBRANCH  26  28
BRANCH  26  31
ATOM     31  N   UNL     1       2.455   0.002  28.081  0.00  0.00    -0.269 N 
ATOM     32  H   UNL     1       2.982  -0.312  28.886  0.00  0.00    +0.153 HD
ATOM     33  C   UNL     1       1.629  -0.968  27.595  0.00  0.00    +0.401 C 
ATOM     34  O   UNL     1       1.144  -0.992  26.477  0.00  0.00    -0.226 OA
BRANCH  33  35
ATOM     35  O   UNL     1       1.465  -1.918  28.549  0.00  0.00    -0.454 OA
ATOM     36  C   UNL     1       2.459  -1.936  29.575  0.00  0.00    +0.282 C 
ENDBRANCH  33  35
ENDBRANCH  26  31
ENDBRANCH  22  26
ENDBRANCH  21  23
BRANCH  21  37
ATOM     37  C   UNL     1       5.882  -2.267  26.301  0.00  0.00    +0.060 C 
BRANCH  37  38
ATOM     38  C   UNL     1       5.618  -3.630  26.904  0.00  0.00    -0.046 A 
ATOM     39  C   UNL     1       4.301  -4.062  27.117  0.00  0.00    +0.004 A 
ATOM     40  C   UNL     1       4.044  -5.331  27.632  0.00  0.00    +0.000 A 
ATOM     41  C   UNL     1       5.101  -6.186  27.936  0.00  0.00    +0.000 A 
ATOM     42  C   UNL     1       6.414  -5.762  27.745  0.00  0.00    +0.000 A 
ATOM     43  C   UNL     1       6.671  -4.485  27.248  0.00  0.00    +0.004 A 
ENDBRANCH  37  38
ENDBRANCH  21  37
ENDBRANCH  18  21
ENDBRANCH  17  18
ENDBRANCH   1  17
BRANCH   1  44
ATOM     44  C   UNL     1       9.916  -1.220  24.100  0.00  0.00    +0.140 C 
BRANCH  44  45
ATOM     45  C   UNL     1       8.896  -2.257  23.682  0.00  0.00    -0.032 A 
ATOM     46  C   UNL     1       8.998  -3.576  24.127  0.00  0.00    +0.005 A 
ATOM     47  C   UNL     1       7.932  -4.463  23.951  0.00  0.00    +0.009 A 
ATOM     48  C   UNL     1       6.727  -4.052  23.352  0.00  0.00    -0.018 A 
ATOM     49  C   UNL     1       6.717  -2.783  22.747  0.00  0.00    +0.009 A 
ATOM     50  C   UNL     1       7.788  -1.896  22.906  0.00  0.00    +0.005 A 
BRANCH  48  51
ATOM     51  C   UNL     1       5.473  -4.835  23.511  0.00  0.00    -0.018 A 
ATOM     52  C   UNL     1       5.526  -6.166  23.977  0.00  0.00    +0.008 A 
ATOM     53  C   UNL     1       4.372  -6.877  24.314  0.00  0.00    +0.001 A 
ATOM     54  C   UNL     1       3.127  -6.274  24.194  0.00  0.00    +0.000 A 
ATOM     55  C   UNL     1       3.037  -4.973  23.708  0.00  0.00    +0.001 A 
ATOM     56  C   UNL     1       4.196  -4.267  23.359  0.00  0.00    +0.008 A 
ENDBRANCH  48  51
ENDBRANCH  44  45
ENDBRANCH   1  44
TORSDOF 19
ENDMDL
MODEL 6
REMARK VINA RESULT:      -6.2      2.755      7.384
REMARK  Name = 
REMARK  27 active torsions:
REMARK  status: ('A' for Active; 'I' for Inactive)
REMARK    1  A    between atoms: C_1  and  C_2
REMARK    2  A    between atoms: C_2  and  C_3
REMARK    3  A    between atoms: C_2  and  C_4
REMARK    4  A    between atoms: C_2  and  C_5
REMARK    5  A    between atoms: C_5  and  C_7
REMARK    6  A    between atoms: C_5  and  N_51
REMARK    7  A    between atoms: N_9  and  C_10
REMARK    8  A    between atoms: C_10  and  C_12
REMARK    9  A    between atoms: C_10  and  C_19
REMARK   10  A    between atoms: C_12  and  C_13
REMARK   11  A    between atoms: C_19  and  C_21
REMARK   12  A    between atoms: C_19  and  O_50
REMARK   13  A    between atoms: C_21  and  N_22
REMARK   14  A    between atoms: N_22  and  C_23
REMARK   15  A    between atoms: N_22  and  N_36
REMARK   16  A    between atoms: C_23  and  C_24
REMARK   17  A    between atoms: C_27  and  C_30
REMARK   18  A    between atoms: C_37  and  C_39
REMARK   19  A    between atoms: C_39  and  C_41
REMARK   20  A    between atoms: C_39  and  N_45
REMARK   21  A    between atoms: C_41  and  C_42
REMARK   22  A    between atoms: C_41  and  C_43
REMARK   23  A    between atoms: C_41  and  C_44
REMARK   24  A    between atoms: C_46  and  O_48
REMARK   25  A    between atoms: O_48  and  C_49
REMARK   26  A    between atoms: C_52  and  O_54
REMARK   27  A    between atoms: O_54  and  C_55
REMARK                            x       y       z     vdW  Elec       q    Type
REMARK                         _______ _______ _______ _____ _____    ______ ____
ROOT
ATOM      1  N   UNL     1       9.751   0.554  24.860  0.00  0.00    -0.220 NA
ENDROOT
BRANCH   1   2
ATOM      2  N   UNL     1       9.255   1.764  24.308  0.00  0.00    -0.246 N 
ATOM      3  H   UNL     1       8.290   2.042  24.458  0.00  0.00    +0.169 HD
ATOM      4  C   UNL     1      10.085   2.756  23.787  0.00  0.00    +0.248 C 
ATOM      5  O   UNL     1      11.305   2.689  23.736  0.00  0.00    -0.272 OA
BRANCH   4   6
ATOM      6  C   UNL     1       9.206   3.860  23.126  0.00  0.00    +0.169 C 
BRANCH   6   7
ATOM      7  C   UNL     1       9.272   5.287  23.742  0.00  0.00    -0.011 C 
ATOM      8  C   UNL     1       8.766   5.221  25.202  0.00  0.00    +0.013 C 
ATOM      9  C   UNL     1       8.317   6.243  22.989  0.00  0.00    +0.013 C 
ATOM     10  C   UNL     1      10.687   5.880  23.734  0.00  0.00    +0.013 C 
ENDBRANCH   6   7
BRANCH   6  11
ATOM     11  N   UNL     1       7.853   3.363  22.822  0.00  0.00    -0.269 N 
ATOM     12  H   UNL     1       7.125   3.470  23.518  0.00  0.00    +0.153 HD
ATOM     13  C   UNL     1       7.640   2.290  22.008  0.00  0.00    +0.401 C 
ATOM     14  O   UNL     1       8.446   1.843  21.211  0.00  0.00    -0.226 OA
BRANCH  13  15
ATOM     15  O   UNL     1       6.403   1.787  22.233  0.00  0.00    -0.454 OA
ATOM     16  C   UNL     1       5.625   2.534  23.175  0.00  0.00    +0.282 C 
ENDBRANCH  13  15
ENDBRANCH   6  11
ENDBRANCH   4   6
ENDBRANCH   1   2
BRANCH   1  17
ATOM     17  C   UNL     1       8.681  -0.100  25.665  0.00  0.00    +0.139 C 
BRANCH  17  18
ATOM     18  C   UNL     1       7.425   0.798  25.900  0.00  0.00    +0.151 C 
BRANCH  18  19
ATOM     19  O   UNL     1       7.777   1.909  26.740  0.00  0.00    -0.389 OA
ATOM     20  H   UNL     1       7.049   2.560  26.633  0.00  0.00    +0.210 HD
ENDBRANCH  18  19
BRANCH  18  21
ATOM     21  C   UNL     1       6.245   0.004  26.539  0.00  0.00    +0.107 C 
BRANCH  21  23
ATOM     22  C   UNL     1       4.704   0.766  28.347  0.00  0.00    +0.234 C 
ATOM     23  N   UNL     1       5.240   0.925  27.091  0.00  0.00    -0.308 N 
ATOM     24  H   UNL     1       5.049   1.768  26.559  0.00  0.00    +0.149 HD
ATOM     25  O   UNL     1       4.922  -0.226  29.051  0.00  0.00    -0.274 OA
BRANCH  22  26
ATOM     26  C   UNL     1       3.876   1.956  28.873  0.00  0.00    +0.167 C 
BRANCH  26  28
ATOM     27  C   UNL     1       1.725   1.076  29.938  0.00  0.00    +0.013 C 
ATOM     28  C   UNL     1       2.351   1.688  28.665  0.00  0.00    -0.011 C 
ATOM     29  C   UNL     1       1.625   3.017  28.378  0.00  0.00    +0.013 C 
ATOM     30  C   UNL     1       2.092   0.723  27.487  0.00  0.00    +0.013 C 
ENDBRANCH  26  28
BRANCH  26  31
ATOM     31  N   UNL     1       4.343   3.138  28.146  0.00  0.00    -0.269 N 
ATOM     32  H   UNL     1       4.420   3.057  27.140  0.00  0.00    +0.153 HD
ATOM     33  C   UNL     1       5.272   3.987  28.668  0.00  0.00    +0.401 C 
ATOM     34  O   UNL     1       5.627   4.021  29.834  0.00  0.00    -0.226 OA
BRANCH  33  35
ATOM     35  O   UNL     1       5.762   4.765  27.671  0.00  0.00    -0.454 OA
ATOM     36  C   UNL     1       5.214   4.516  26.374  0.00  0.00    +0.282 C 
ENDBRANCH  33  35
ENDBRANCH  26  31
ENDBRANCH  22  26
ENDBRANCH  21  23
BRANCH  21  37
ATOM     37  C   UNL     1       5.597  -1.023  25.568  0.00  0.00    +0.060 C 
BRANCH  37  38
ATOM     38  C   UNL     1       5.170  -2.317  26.226  0.00  0.00    -0.046 A 
ATOM     39  C   UNL     1       6.091  -3.060  26.979  0.00  0.00    +0.004 A 
ATOM     40  C   UNL     1       5.698  -4.230  27.626  0.00  0.00    +0.000 A 
ATOM     41  C   UNL     1       4.380  -4.669  27.533  0.00  0.00    +0.000 A 
ATOM     42  C   UNL     1       3.461  -3.949  26.774  0.00  0.00    +0.000 A 
ATOM     43  C   UNL     1       3.858  -2.789  26.111  0.00  0.00    +0.004 A 
ENDBRANCH  37  38
ENDBRANCH  21  37
ENDBRANCH  18  21
ENDBRANCH  17  18
ENDBRANCH   1  17
BRANCH   1  44
ATOM     44  C   UNL     1      10.205  -0.337  23.737  0.00  0.00    +0.140 C 
BRANCH  44  45
ATOM     45  C   UNL     1       9.301  -1.519  23.462  0.00  0.00    -0.032 A 
ATOM     46  C   UNL     1       9.506  -2.738  24.111  0.00  0.00    +0.005 A 
ATOM     47  C   UNL     1       8.533  -3.740  24.049  0.00  0.00    +0.009 A 
ATOM     48  C   UNL     1       7.321  -3.545  23.362  0.00  0.00    -0.018 A 
ATOM     49  C   UNL     1       7.220  -2.390  22.566  0.00  0.00    +0.009 A 
ATOM     50  C   UNL     1       8.198  -1.391  22.611  0.00  0.00    +0.005 A 
BRANCH  48  51
ATOM     51  C   UNL     1       6.138  -4.411  23.610  0.00  0.00    -0.018 A 
ATOM     52  C   UNL     1       4.906  -4.120  22.987  0.00  0.00    +0.008 A 
ATOM     53  C   UNL     1       3.823  -5.000  23.044  0.00  0.00    +0.001 A 
ATOM     54  C   UNL     1       3.943  -6.203  23.727  0.00  0.00    +0.000 A 
ATOM     55  C   UNL     1       5.134  -6.508  24.379  0.00  0.00    +0.001 A 
ATOM     56  C   UNL     1       6.215  -5.617  24.330  0.00  0.00    +0.008 A 
ENDBRANCH  48  51
ENDBRANCH  44  45
ENDBRANCH   1  44
TORSDOF 19
ENDMDL
MODEL 7
REMARK VINA RESULT:      -6.1      2.504      9.693
REMARK  Name = 
REMARK  27 active torsions:
REMARK  status: ('A' for Active; 'I' for Inactive)
REMARK    1  A    between atoms: C_1  and  C_2
REMARK    2  A    between atoms: C_2  and  C_3
REMARK    3  A    between atoms: C_2  and  C_4
REMARK    4  A    between atoms: C_2  and  C_5
REMARK    5  A    between atoms: C_5  and  C_7
REMARK    6  A    between atoms: C_5  and  N_51
REMARK    7  A    between atoms: N_9  and  C_10
REMARK    8  A    between atoms: C_10  and  C_12
REMARK    9  A    between atoms: C_10  and  C_19
REMARK   10  A    between atoms: C_12  and  C_13
REMARK   11  A    between atoms: C_19  and  C_21
REMARK   12  A    between atoms: C_19  and  O_50
REMARK   13  A    between atoms: C_21  and  N_22
REMARK   14  A    between atoms: N_22  and  C_23
REMARK   15  A    between atoms: N_22  and  N_36
REMARK   16  A    between atoms: C_23  and  C_24
REMARK   17  A    between atoms: C_27  and  C_30
REMARK   18  A    between atoms: C_37  and  C_39
REMARK   19  A    between atoms: C_39  and  C_41
REMARK   20  A    between atoms: C_39  and  N_45
REMARK   21  A    between atoms: C_41  and  C_42
REMARK   22  A    between atoms: C_41  and  C_43
REMARK   23  A    between atoms: C_41  and  C_44
REMARK   24  A    between atoms: C_46  and  O_48
REMARK   25  A    between atoms: O_48  and  C_49
REMARK   26  A    between atoms: C_52  and  O_54
REMARK   27  A    between atoms: O_54  and  C_55
REMARK                            x       y       z     vdW  Elec       q    Type
REMARK                         _______ _______ _______ _____ _____    ______ ____
ROOT
ATOM      1  N   UNL     1       6.296  -1.841  26.943  0.00  0.00    -0.220 NA
ENDROOT
BRANCH   1   2
ATOM      2  N   UNL     1       6.252  -2.326  25.609  0.00  0.00    -0.246 N 
ATOM      3  H   UNL     1       5.777  -1.799  24.884  0.00  0.00    +0.169 HD
ATOM      4  C   UNL     1       7.063  -3.364  25.153  0.00  0.00    +0.248 C 
ATOM      5  O   UNL     1       7.874  -3.970  25.841  0.00  0.00    -0.272 OA
BRANCH   4   6
ATOM      6  C   UNL     1       6.641  -3.741  23.702  0.00  0.00    +0.169 C 
BRANCH   6   7
ATOM      7  C   UNL     1       6.034  -5.157  23.482  0.00  0.00    -0.011 C 
ATOM      8  C   UNL     1       6.961  -5.952  22.532  0.00  0.00    +0.013 C 
ATOM      9  C   UNL     1       4.664  -5.051  22.770  0.00  0.00    +0.013 C 
ATOM     10  C   UNL     1       5.864  -5.947  24.785  0.00  0.00    +0.013 C 
ENDBRANCH   6   7
BRANCH   6  11
ATOM     11  N   UNL     1       7.657  -3.328  22.719  0.00  0.00    -0.269 N 
ATOM     12  H   UNL     1       8.487  -3.899  22.604  0.00  0.00    +0.153 HD
ATOM     13  C   UNL     1       7.882  -2.019  22.414  0.00  0.00    +0.401 C 
ATOM     14  O   UNL     1       7.107  -1.104  22.634  0.00  0.00    -0.226 OA
BRANCH  13  15
ATOM     15  O   UNL     1       9.105  -1.887  21.847  0.00  0.00    -0.454 OA
ATOM     16  C   UNL     1      10.184  -1.807  22.784  0.00  0.00    +0.282 C 
ENDBRANCH  13  15
ENDBRANCH   6  11
ENDBRANCH   4   6
ENDBRANCH   1   2
BRANCH   1  17
ATOM     17  C   UNL     1       7.055  -0.560  26.980  0.00  0.00    +0.139 C 
BRANCH  17  18
ATOM     18  C   UNL     1       7.088   0.200  25.616  0.00  0.00    +0.151 C 
BRANCH  18  19
ATOM     19  O   UNL     1       8.442   0.284  25.143  0.00  0.00    -0.389 OA
ATOM     20  H   UNL     1       8.986  -0.180  25.817  0.00  0.00    +0.210 HD
ENDBRANCH  18  19
BRANCH  18  21
ATOM     21  C   UNL     1       6.473   1.629  25.722  0.00  0.00    +0.107 C 
BRANCH  21  23
ATOM     22  C   UNL     1       7.935   3.625  25.398  0.00  0.00    +0.234 C 
ATOM     23  N   UNL     1       7.215   2.576  24.876  0.00  0.00    -0.308 N 
ATOM     24  H   UNL     1       7.288   2.349  23.889  0.00  0.00    +0.149 HD
ATOM     25  O   UNL     1       7.906   3.931  26.595  0.00  0.00    -0.274 OA
BRANCH  22  26
ATOM     26  C   UNL     1       8.864   4.353  24.405  0.00  0.00    +0.167 C 
BRANCH  26  28
ATOM     27  C   UNL     1       9.253   6.743  23.584  0.00  0.00    +0.013 C 
ATOM     28  C   UNL     1       8.189   5.666  23.895  0.00  0.00    -0.011 C 
ATOM     29  C   UNL     1       7.417   5.381  22.593  0.00  0.00    +0.013 C 
ATOM     30  C   UNL     1       7.203   6.247  24.933  0.00  0.00    +0.013 C 
ENDBRANCH  26  28
BRANCH  26  31
ATOM     31  N   UNL     1       9.137   3.405  23.324  0.00  0.00    -0.269 N 
ATOM     32  H   UNL     1       8.423   2.717  23.124  0.00  0.00    +0.153 HD
ATOM     33  C   UNL     1      10.392   2.933  23.077  0.00  0.00    +0.401 C 
ATOM     34  O   UNL     1      11.426   3.397  23.524  0.00  0.00    -0.226 OA
BRANCH  33  35
ATOM     35  O   UNL     1      10.297   1.840  22.279  0.00  0.00    -0.454 OA
ATOM     36  C   UNL     1       9.012   1.619  21.691  0.00  0.00    +0.282 C 
ENDBRANCH  33  35
ENDBRANCH  26  31
ENDBRANCH  22  26
ENDBRANCH  21  23
BRANCH  21  37
ATOM     37  C   UNL     1       4.950   1.668  25.414  0.00  0.00    +0.060 C 
BRANCH  37  38
ATOM     38  C   UNL     1       4.479   2.956  24.774  0.00  0.00    -0.046 A 
ATOM     39  C   UNL     1       4.198   4.075  25.571  0.00  0.00    +0.004 A 
ATOM     40  C   UNL     1       3.805   5.279  24.990  0.00  0.00    +0.000 A 
ATOM     41  C   UNL     1       3.694   5.382  23.606  0.00  0.00    +0.000 A 
ATOM     42  C   UNL     1       3.955   4.273  22.804  0.00  0.00    +0.000 A 
ATOM     43  C   UNL     1       4.329   3.062  23.387  0.00  0.00    +0.004 A 
ENDBRANCH  37  38
ENDBRANCH  21  37
ENDBRANCH  18  21
ENDBRANCH  17  18
ENDBRANCH   1  17
BRANCH   1  44
ATOM     44  C   UNL     1       4.887  -1.650  27.431  0.00  0.00    +0.140 C 
BRANCH  44  45
ATOM     45  C   UNL     1       3.932  -2.764  27.063  0.00  0.00    -0.032 A 
ATOM     46  C   UNL     1       2.965  -2.574  26.074  0.00  0.00    +0.005 A 
ATOM     47  C   UNL     1       2.259  -3.667  25.562  0.00  0.00    +0.009 A 
ATOM     48  C   UNL     1       2.515  -4.978  26.003  0.00  0.00    -0.018 A 
ATOM     49  C   UNL     1       3.351  -5.121  27.124  0.00  0.00    +0.009 A 
ATOM     50  C   UNL     1       4.048  -4.029  27.651  0.00  0.00    +0.005 A 
BRANCH  48  51
ATOM     51  C   UNL     1       2.080  -6.163  25.215  0.00  0.00    -0.018 A 
ATOM     52  C   UNL     1       1.348  -5.987  24.022  0.00  0.00    +0.008 A 
ATOM     53  C   UNL     1       1.076  -7.051  23.158  0.00  0.00    +0.001 A 
ATOM     54  C   UNL     1       1.532  -8.326  23.465  0.00  0.00    +0.000 A 
ATOM     55  C   UNL     1       2.232  -8.540  24.649  0.00  0.00    +0.001 A 
ATOM     56  C   UNL     1       2.491  -7.472  25.519  0.00  0.00    +0.008 A 
ENDBRANCH  48  51
ENDBRANCH  44  45
ENDBRANCH   1  44
TORSDOF 19
ENDMDL
MODEL 8
REMARK VINA RESULT:      -6.0      2.950      8.415
REMARK  Name = 
REMARK  27 active torsions:
REMARK  status: ('A' for Active; 'I' for Inactive)
REMARK    1  A    between atoms: C_1  and  C_2
REMARK    2  A    between atoms: C_2  and  C_3
REMARK    3  A    between atoms: C_2  and  C_4
REMARK    4  A    between atoms: C_2  and  C_5
REMARK    5  A    between atoms: C_5  and  C_7
REMARK    6  A    between atoms: C_5  and  N_51
REMARK    7  A    between atoms: N_9  and  C_10
REMARK    8  A    between atoms: C_10  and  C_12
REMARK    9  A    between atoms: C_10  and  C_19
REMARK   10  A    between atoms: C_12  and  C_13
REMARK   11  A    between atoms: C_19  and  C_21
REMARK   12  A    between atoms: C_19  and  O_50
REMARK   13  A    between atoms: C_21  and  N_22
REMARK   14  A    between atoms: N_22  and  C_23
REMARK   15  A    between atoms: N_22  and  N_36
REMARK   16  A    between atoms: C_23  and  C_24
REMARK   17  A    between atoms: C_27  and  C_30
REMARK   18  A    between atoms: C_37  and  C_39
REMARK   19  A    between atoms: C_39  and  C_41
REMARK   20  A    between atoms: C_39  and  N_45
REMARK   21  A    between atoms: C_41  and  C_42
REMARK   22  A    between atoms: C_41  and  C_43
REMARK   23  A    between atoms: C_41  and  C_44
REMARK   24  A    between atoms: C_46  and  O_48
REMARK   25  A    between atoms: O_48  and  C_49
REMARK   26  A    between atoms: C_52  and  O_54
REMARK   27  A    between atoms: O_54  and  C_55
REMARK                            x       y       z     vdW  Elec       q    Type
REMARK                         _______ _______ _______ _____ _____    ______ ____
ROOT
ATOM      1  N   UNL     1       6.371  -1.230  25.852  0.00  0.00    -0.220 NA
ENDROOT
BRANCH   1   2
ATOM      2  N   UNL     1       6.475  -2.528  25.286  0.00  0.00    -0.246 N 
ATOM      3  H   UNL     1       5.666  -3.139  25.243  0.00  0.00    +0.169 HD
ATOM      4  C   UNL     1       7.568  -2.936  24.524  0.00  0.00    +0.248 C 
ATOM      5  O   UNL     1       8.545  -2.241  24.276  0.00  0.00    -0.272 OA
BRANCH   4   6
ATOM      6  C   UNL     1       7.428  -4.455  24.203  0.00  0.00    +0.169 C 
BRANCH   6   7
ATOM      7  C   UNL     1       6.535  -4.847  22.991  0.00  0.00    -0.011 C 
ATOM      8  C   UNL     1       5.208  -5.437  23.525  0.00  0.00    +0.013 C 
ATOM      9  C   UNL     1       7.210  -5.966  22.164  0.00  0.00    +0.013 C 
ATOM     10  C   UNL     1       6.216  -3.663  22.071  0.00  0.00    +0.013 C 
ENDBRANCH   6   7
BRANCH   6  11
ATOM     11  N   UNL     1       7.221  -5.248  25.427  0.00  0.00    -0.269 N 
ATOM     12  H   UNL     1       6.280  -5.352  25.788  0.00  0.00    +0.153 HD
ATOM     13  C   UNL     1       8.165  -5.332  26.406  0.00  0.00    +0.401 C 
ATOM     14  O   UNL     1       9.347  -5.068  26.265  0.00  0.00    -0.226 OA
BRANCH  13  15
ATOM     15  O   UNL     1       7.588  -5.735  27.563  0.00  0.00    -0.454 OA
ATOM     16  C   UNL     1       6.276  -5.205  27.782  0.00  0.00    +0.282 C 
ENDBRANCH  13  15
ENDBRANCH   6  11
ENDBRANCH   4   6
ENDBRANCH   1   2
BRANCH   1  17
ATOM     17  C   UNL     1       5.689  -0.322  24.887  0.00  0.00    +0.139 C 
BRANCH  17  18
ATOM     18  C   UNL     1       6.629   0.754  24.255  0.00  0.00    +0.151 C 
BRANCH  18  19
ATOM     19  O   UNL     1       7.961   0.591  24.767  0.00  0.00    -0.389 OA
ATOM     20  H   UNL     1       8.262   1.494  25.010  0.00  0.00    +0.210 HD
ENDBRANCH  18  19
BRANCH  18  21
ATOM     21  C   UNL     1       6.130   2.205  24.527  0.00  0.00    +0.107 C 
BRANCH  21  23
ATOM     22  C   UNL     1       8.094   3.648  25.059  0.00  0.00    +0.234 C 
ATOM     23  N   UNL     1       7.164   3.186  24.160  0.00  0.00    -0.308 N 
ATOM     24  H   UNL     1       7.250   3.413  23.174  0.00  0.00    +0.149 HD
ATOM     25  O   UNL     1       8.055   3.383  26.266  0.00  0.00    -0.274 OA
BRANCH  22  26
ATOM     26  C   UNL     1       9.261   4.456  24.454  0.00  0.00    +0.167 C 
BRANCH  26  28
ATOM     27  C   UNL     1      10.064   6.883  24.426  0.00  0.00    +0.013 C 
ATOM     28  C   UNL     1       8.843   5.949  24.263  0.00  0.00    -0.011 C 
ATOM     29  C   UNL     1       8.284   6.154  22.842  0.00  0.00    +0.013 C 
ATOM     30  C   UNL     1       7.766   6.380  25.283  0.00  0.00    +0.013 C 
ENDBRANCH  26  28
BRANCH  26  31
ATOM     31  N   UNL     1       9.603   3.802  23.189  0.00  0.00    -0.269 N 
ATOM     32  H   UNL     1       8.954   3.918  22.422  0.00  0.00    +0.153 HD
ATOM     33  C   UNL     1      10.242   2.599  23.148  0.00  0.00    +0.401 C 
ATOM     34  O   UNL     1      10.805   2.061  24.086  0.00  0.00    -0.226 OA
BRANCH  33  35
ATOM     35  O   UNL     1      10.117   2.082  21.900  0.00  0.00    -0.454 OA
ATOM     36  C   UNL     1       8.827   1.557  21.579  0.00  0.00    +0.282 C 
ENDBRANCH  33  35
ENDBRANCH  26  31
ENDBRANCH  22  26
ENDBRANCH  21  23
BRANCH  21  37
ATOM     37  C   UNL     1       4.774   2.529  23.839  0.00  0.00    +0.060 C 
BRANCH  37  38
ATOM     38  C   UNL     1       3.954   3.584  24.548  0.00  0.00    -0.046 A 
ATOM     39  C   UNL     1       4.346   4.930  24.500  0.00  0.00    +0.004 A 
ATOM     40  C   UNL     1       3.576   5.916  25.113  0.00  0.00    +0.000 A 
ATOM     41  C   UNL     1       2.401   5.571  25.777  0.00  0.00    +0.000 A 
ATOM     42  C   UNL     1       2.010   4.236  25.847  0.00  0.00    +0.000 A 
ATOM     43  C   UNL     1       2.791   3.246  25.250  0.00  0.00    +0.004 A 
ENDBRANCH  37  38
ENDBRANCH  21  37
ENDBRANCH  18  21
ENDBRANCH  17  18
ENDBRANCH   1  17
BRANCH   1  44
ATOM     44  C   UNL     1       5.601  -1.327  27.140  0.00  0.00    +0.140 C 
BRANCH  44  45
ATOM     45  C   UNL     1       5.306   0.000  27.803  0.00  0.00    -0.032 A 
ATOM     46  C   UNL     1       6.344   0.810  28.267  0.00  0.00    +0.005 A 
ATOM     47  C   UNL     1       6.090   2.132  28.645  0.00  0.00    +0.009 A 
ATOM     48  C   UNL     1       4.802   2.689  28.546  0.00  0.00    -0.018 A 
ATOM     49  C   UNL     1       3.747   1.806  28.258  0.00  0.00    +0.009 A 
ATOM     50  C   UNL     1       3.993   0.477  27.894  0.00  0.00    +0.005 A 
BRANCH  48  51
ATOM     51  C   UNL     1       4.588   4.161  28.558  0.00  0.00    -0.018 A 
ATOM     52  C   UNL     1       3.468   4.706  29.221  0.00  0.00    +0.008 A 
ATOM     53  C   UNL     1       3.321   6.082  29.415  0.00  0.00    +0.001 A 
ATOM     54  C   UNL     1       4.297   6.954  28.950  0.00  0.00    +0.000 A 
ATOM     55  C   UNL     1       5.399   6.452  28.265  0.00  0.00    +0.001 A 
ATOM     56  C   UNL     1       5.536   5.072  28.062  0.00  0.00    +0.008 A 
ENDBRANCH  48  51
ENDBRANCH  44  45
ENDBRANCH   1  44
TORSDOF 19
ENDMDL
MODEL 9
REMARK VINA RESULT:      -6.0      1.960      6.412
REMARK  Name = 
REMARK  27 active torsions:
REMARK  status: ('A' for Active; 'I' for Inactive)
REMARK    1  A    between atoms: C_1  and  C_2
REMARK    2  A    between atoms: C_2  and  C_3
REMARK    3  A    between atoms: C_2  and  C_4
REMARK    4  A    between atoms: C_2  and  C_5
REMARK    5  A    between atoms: C_5  and  C_7
REMARK    6  A    between atoms: C_5  and  N_51
REMARK    7  A    between atoms: N_9  and  C_10
REMARK    8  A    between atoms: C_10  and  C_12
REMARK    9  A    between atoms: C_10  and  C_19
REMARK   10  A    between atoms: C_12  and  C_13
REMARK   11  A    between atoms: C_19  and  C_21
REMARK   12  A    between atoms: C_19  and  O_50
REMARK   13  A    between atoms: C_21  and  N_22
REMARK   14  A    between atoms: N_22  and  C_23
REMARK   15  A    between atoms: N_22  and  N_36
REMARK   16  A    between atoms: C_23  and  C_24
REMARK   17  A    between atoms: C_27  and  C_30
REMARK   18  A    between atoms: C_37  and  C_39
REMARK   19  A    between atoms: C_39  and  C_41
REMARK   20  A    between atoms: C_39  and  N_45
REMARK   21  A    between atoms: C_41  and  C_42
REMARK   22  A    between atoms: C_41  and  C_43
REMARK   23  A    between atoms: C_41  and  C_44
REMARK   24  A    between atoms: C_46  and  O_48
REMARK   25  A    between atoms: O_48  and  C_49
REMARK   26  A    between atoms: C_52  and  O_54
REMARK   27  A    between atoms: O_54  and  C_55
REMARK                            x       y       z     vdW  Elec       q    Type
REMARK                         _______ _______ _______ _____ _____    ______ ____
ROOT
ATOM      1  N   UNL     1       4.737  -0.725  27.702  0.00  0.00    -0.220 NA
ENDROOT
BRANCH   1   2
ATOM      2  N   UNL     1       3.679  -1.669  27.630  0.00  0.00    -0.246 N 
ATOM      3  H   UNL     1       2.827  -1.452  27.124  0.00  0.00    +0.169 HD
ATOM      4  C   UNL     1       3.834  -3.008  27.985  0.00  0.00    +0.248 C 
ATOM      5  O   UNL     1       4.871  -3.504  28.404  0.00  0.00    -0.272 OA
BRANCH   4   6
ATOM      6  C   UNL     1       2.444  -3.711  27.939  0.00  0.00    +0.169 C 
BRANCH   6   7
ATOM      7  C   UNL     1       1.557  -3.621  29.215  0.00  0.00    -0.011 C 
ATOM      8  C   UNL     1       0.821  -4.968  29.403  0.00  0.00    +0.013 C 
ATOM      9  C   UNL     1       0.461  -2.544  29.033  0.00  0.00    +0.013 C 
ATOM     10  C   UNL     1       2.360  -3.313  30.485  0.00  0.00    +0.013 C 
ENDBRANCH   6   7
BRANCH   6  11
ATOM     11  N   UNL     1       2.534  -5.046  27.324  0.00  0.00    -0.269 N 
ATOM     12  H   UNL     1       3.143  -5.738  27.745  0.00  0.00    +0.153 HD
ATOM     13  C   UNL     1       2.376  -5.240  25.984  0.00  0.00    +0.401 C 
ATOM     14  O   UNL     1       1.841  -4.455  25.220  0.00  0.00    -0.226 OA
BRANCH  13  15
ATOM     15  O   UNL     1       2.919  -6.429  25.629  0.00  0.00    -0.454 OA
ATOM     16  C   UNL     1       4.123  -6.760  26.329  0.00  0.00    +0.282 C 
ENDBRANCH  13  15
ENDBRANCH   6  11
ENDBRANCH   4   6
ENDBRANCH   1   2
BRANCH   1  17
ATOM     17  C   UNL     1       5.420  -0.643  26.380  0.00  0.00    +0.139 C 
BRANCH  17  18
ATOM     18  C   UNL     1       6.871  -1.219  26.377  0.00  0.00    +0.151 C 
BRANCH  18  19
ATOM     19  O   UNL     1       7.703  -0.435  27.246  0.00  0.00    -0.389 OA
ATOM     20  H   UNL     1       7.614  -0.843  28.135  0.00  0.00    +0.210 HD
ENDBRANCH  18  19
BRANCH  18  21
ATOM     21  C   UNL     1       7.487  -1.259  24.945  0.00  0.00    +0.107 C 
BRANCH  21  23
ATOM     22  C   UNL     1       8.000  -3.095  23.336  0.00  0.00    +0.234 C 
ATOM     23  N   UNL     1       7.176  -2.535  24.283  0.00  0.00    -0.308 N 
ATOM     24  H   UNL     1       6.388  -3.060  24.647  0.00  0.00    +0.149 HD
ATOM     25  O   UNL     1       8.989  -2.513  22.875  0.00  0.00    -0.274 OA
BRANCH  22  26
ATOM     26  C   UNL     1       7.670  -4.549  22.942  0.00  0.00    +0.167 C 
BRANCH  26  28
ATOM     27  C   UNL     1       6.406  -5.643  21.007  0.00  0.00    +0.013 C 
ATOM     28  C   UNL     1       6.326  -4.601  22.147  0.00  0.00    -0.011 C 
ATOM     29  C   UNL     1       5.182  -5.024  23.087  0.00  0.00    +0.013 C 
ATOM     30  C   UNL     1       5.972  -3.233  21.525  0.00  0.00    +0.013 C 
ENDBRANCH  26  28
BRANCH  26  31
ATOM     31  N   UNL     1       7.614  -5.312  24.190  0.00  0.00    -0.269 N 
ATOM     32  H   UNL     1       6.737  -5.303  24.695  0.00  0.00    +0.153 HD
ATOM     33  C   UNL     1       8.688  -5.416  25.022  0.00  0.00    +0.401 C 
ATOM     34  O   UNL     1       9.837  -5.123  24.738  0.00  0.00    -0.226 OA
BRANCH  33  35
ATOM     35  O   UNL     1       8.263  -5.865  26.229  0.00  0.00    -0.454 OA
ATOM     36  C   UNL     1       7.648  -4.884  27.067  0.00  0.00    +0.282 C 
ENDBRANCH  33  35
ENDBRANCH  26  31
ENDBRANCH  22  26
ENDBRANCH  21  23
BRANCH  21  37
ATOM     37  C   UNL     1       7.072  -0.048  24.064  0.00  0.00    +0.060 C 
BRANCH  37  38
ATOM     38  C   UNL     1       8.229   0.813  23.606  0.00  0.00    -0.046 A 
ATOM     39  C   UNL     1       9.165   1.286  24.537  0.00  0.00    +0.004 A 
ATOM     40  C   UNL     1      10.258   2.043  24.123  0.00  0.00    +0.000 A 
ATOM     41  C   UNL     1      10.434   2.333  22.772  0.00  0.00    +0.000 A 
ATOM     42  C   UNL     1       9.502   1.883  21.839  0.00  0.00    +0.000 A 
ATOM     43  C   UNL     1       8.397   1.142  22.256  0.00  0.00    +0.004 A 
ENDBRANCH  37  38
ENDBRANCH  21  37
ENDBRANCH  18  21
ENDBRANCH  17  18
ENDBRANCH   1  17
BRANCH   1  44
ATOM     44  C   UNL     1       4.167   0.608  28.100  0.00  0.00    +0.140 C 
BRANCH  44  45
ATOM     45  C   UNL     1       4.795   1.798  27.408  0.00  0.00    -0.032 A 
ATOM     46  C   UNL     1       5.939   2.403  27.932  0.00  0.00    +0.005 A 
ATOM     47  C   UNL     1       6.658   3.329  27.169  0.00  0.00    +0.009 A 
ATOM     48  C   UNL     1       6.271   3.656  25.857  0.00  0.00    -0.018 A 
ATOM     49  C   UNL     1       5.021   3.180  25.425  0.00  0.00    +0.009 A 
ATOM     50  C   UNL     1       4.289   2.266  26.190  0.00  0.00    +0.005 A 
BRANCH  48  51
ATOM     51  C   UNL     1       7.212   4.309  24.909  0.00  0.00    -0.018 A 
ATOM     52  C   UNL     1       6.842   4.491  23.560  0.00  0.00    +0.008 A 
ATOM     53  C   UNL     1       7.611   5.256  22.679  0.00  0.00    +0.001 A 
ATOM     54  C   UNL     1       8.777   5.864  23.127  0.00  0.00    +0.000 A 
ATOM     55  C   UNL     1       9.187   5.680  24.444  0.00  0.00    +0.001 A 
ATOM     56  C   UNL     1       8.419   4.901  25.320  0.00  0.00    +0.008 A 
ENDBRANCH  48  51
ENDBRANCH  44  45
ENDBRANCH   1  44
TORSDOF 19
ENDMDL
