MODEL 1
REMARK VINA RESULT:      -7.4      0.000      0.000
REMARK  Name = 
REMARK  11 active torsions:
REMARK  status: ('A' for Active; 'I' for Inactive)
REMARK    1  A    between atoms: C_1  and  C_2
REMARK    2  A    between atoms: C_5  and  C_36
REMARK    3  A    between atoms: N_6  and  C_7
REMARK    4  A    between atoms: N_15  and  C_16
REMARK    5  A    between atoms: C_16  and  C_17
REMARK    6  A    between atoms: C_17  and  C_18
REMARK    7  A    between atoms: C_18  and  C_19
REMARK    8  A    between atoms: C_18  and  N_25
REMARK    9  A    between atoms: C_26  and  C_28
REMARK   10  A    between atoms: C_36  and  C_37
REMARK   11  A    between atoms: C_36  and  C_38
REMARK                            x       y       z     vdW  Elec       q    Type
REMARK                         _______ _______ _______ _____ _____    ______ ____
ROOT
ATOM      1  C   UNL     1       7.984  -1.965  25.738  0.00  0.00    +0.042 C 
ENDROOT
BRANCH   1   2
ATOM      2  C   UNL     1       8.509  -1.666  24.317  0.00  0.00    +0.087 C 
BRANCH   2   6
ATOM      3  C   UNL     1       8.471   2.359  23.407  0.00  0.00    +0.093 C 
ATOM      4  C   UNL     1       9.247   1.534  22.368  0.00  0.00    +0.044 C 
ATOM      5  C   UNL     1       9.464   0.066  22.832  0.00  0.00    +0.059 C 
ATOM      6  N   UNL     1       8.622  -0.216  24.024  0.00  0.00    -0.296 NA
ATOM      7  C   UNL     1       9.310   0.575  25.061  0.00  0.00    +0.059 C 
ATOM      8  C   UNL     1      10.806   0.372  24.801  0.00  0.00    +0.020 C 
ATOM      9  C   UNL     1      10.896  -0.094  23.355  0.00  0.00    +0.020 C 
ATOM     10  C   UNL     1       8.890   2.049  24.860  0.00  0.00    +0.044 C 
BRANCH   3  13
ATOM     11  C   UNL     1       5.992   3.546  22.098  0.00  0.00    +0.088 C 
ATOM     12  C   UNL     1       7.160   4.323  22.580  0.00  0.00    +0.131 A 
ATOM     13  N   UNL     1       8.301   3.788  23.166  0.00  0.00    -0.312 N 
ATOM     14  C   UNL     1       9.090   4.882  23.472  0.00  0.00    +0.136 A 
ATOM     15  N   UNL     1       8.467   5.974  23.070  0.00  0.00    -0.134 NA
ATOM     16  N   UNL     1       7.270   5.629  22.525  0.00  0.00    -0.135 NA
BRANCH  14  17
ATOM     17  C   UNL     1      10.450   4.918  24.111  0.00  0.00    +0.051 C 
ATOM     18  C   UNL     1      10.860   6.357  24.465  0.00  0.00    +0.015 C 
ATOM     19  C   UNL     1      11.500   4.341  23.153  0.00  0.00    +0.015 C 
ENDBRANCH  14  17
ENDBRANCH   3  13
ENDBRANCH   2   6
ENDBRANCH   1   2
BRANCH   1  20
ATOM     20  C   UNL     1       6.461  -1.716  25.911  0.00  0.00    +0.104 C 
BRANCH  20  21
ATOM     21  C   UNL     1       6.130  -0.282  26.280  0.00  0.00    -0.027 A 
ATOM     22  C   UNL     1       6.563   0.232  27.514  0.00  0.00    +0.005 A 
ATOM     23  C   UNL     1       6.366   1.575  27.837  0.00  0.00    +0.000 A 
ATOM     24  C   UNL     1       5.720   2.419  26.939  0.00  0.00    +0.000 A 
ATOM     25  C   UNL     1       5.239   1.914  25.732  0.00  0.00    +0.000 A 
ATOM     26  C   UNL     1       5.435   0.570  25.407  0.00  0.00    +0.005 A 
ENDBRANCH  20  21
BRANCH  20  27
ATOM     27  N   UNL     1       5.750  -2.103  24.693  0.00  0.00    -0.308 N 
ATOM     28  H   UNL     1       5.672  -1.432  23.942  0.00  0.00    +0.149 HD
ATOM     29  C   UNL     1       5.305  -3.391  24.517  0.00  0.00    +0.217 C 
ATOM     30  O   UNL     1       5.318  -4.213  25.433  0.00  0.00    -0.275 OA
BRANCH  29  31
ATOM     31  C   UNL     1       4.816  -3.740  23.108  0.00  0.00    +0.075 C 
ATOM     32  C   UNL     1       4.477  -5.238  22.984  0.00  0.00    +0.018 C 
ATOM     33  C   UNL     1       5.718  -6.139  23.039  0.00  0.00    +0.076 C 
ATOM     34  C   UNL     1       6.807  -5.689  22.082  0.00  0.00    +0.249 C 
ATOM     35  F   UNL     1       6.427  -5.988  20.812  0.00  0.00    -0.206 F 
ATOM     36  F   UNL     1       7.943  -6.392  22.322  0.00  0.00    -0.206 F 
ATOM     37  C   UNL     1       7.115  -4.201  22.157  0.00  0.00    +0.076 C 
ATOM     38  C   UNL     1       5.842  -3.360  22.034  0.00  0.00    +0.018 C 
ENDBRANCH  29  31
ENDBRANCH  20  27
ENDBRANCH   1  20
TORSDOF 8
ENDMDL
MODEL 2
REMARK VINA RESULT:      -7.3      1.424      2.005
REMARK  Name = 
REMARK  11 active torsions:
REMARK  status: ('A' for Active; 'I' for Inactive)
REMARK    1  A    between atoms: C_1  and  C_2
REMARK    2  A    between atoms: C_5  and  C_36
REMARK    3  A    between atoms: N_6  and  C_7
REMARK    4  A    between atoms: N_15  and  C_16
REMARK    5  A    between atoms: C_16  and  C_17
REMARK    6  A    between atoms: C_17  and  C_18
REMARK    7  A    between atoms: C_18  and  C_19
REMARK    8  A    between atoms: C_18  and  N_25
REMARK    9  A    between atoms: C_26  and  C_28
REMARK   10  A    between atoms: C_36  and  C_37
REMARK   11  A    between atoms: C_36  and  C_38
REMARK                            x       y       z     vdW  Elec       q    Type
REMARK                         _______ _______ _______ _____ _____    ______ ____
ROOT
ATOM      1  C   UNL     1       8.775  -1.873  25.411  0.00  0.00    +0.042 C 
ENDROOT
BRANCH   1   2
ATOM      2  C   UNL     1       8.843  -1.284  23.985  0.00  0.00    +0.087 C 
BRANCH   2   6
ATOM      3  C   UNL     1       6.924   2.367  23.842  0.00  0.00    +0.093 C 
ATOM      4  C   UNL     1       7.095   1.742  22.448  0.00  0.00    +0.044 C 
ATOM      5  C   UNL     1       8.021   0.494  22.476  0.00  0.00    +0.059 C 
ATOM      6  N   UNL     1       8.263   0.077  23.882  0.00  0.00    -0.296 NA
ATOM      7  C   UNL     1       9.140   1.162  24.361  0.00  0.00    +0.059 C 
ATOM      8  C   UNL     1      10.102   1.448  23.204  0.00  0.00    +0.020 C 
ATOM      9  C   UNL     1       9.414   0.884  21.969  0.00  0.00    +0.020 C 
ATOM     10  C   UNL     1       8.232   2.377  24.663  0.00  0.00    +0.044 C 
BRANCH   3  13
ATOM     11  C   UNL     1       4.347   2.644  25.437  0.00  0.00    +0.088 C 
ATOM     12  C   UNL     1       5.015   3.740  24.693  0.00  0.00    +0.131 A 
ATOM     13  N   UNL     1       6.184   3.619  23.952  0.00  0.00    -0.312 N 
ATOM     14  C   UNL     1       6.434   4.891  23.471  0.00  0.00    +0.136 A 
ATOM     15  N   UNL     1       5.467   5.692  23.880  0.00  0.00    -0.134 NA
ATOM     16  N   UNL     1       4.593   4.982  24.642  0.00  0.00    -0.135 NA
BRANCH  14  17
ATOM     17  C   UNL     1       7.559   5.366  22.594  0.00  0.00    +0.051 C 
ATOM     18  C   UNL     1       8.807   5.705  23.428  0.00  0.00    +0.015 C 
ATOM     19  C   UNL     1       7.137   6.625  21.828  0.00  0.00    +0.015 C 
ENDBRANCH  14  17
ENDBRANCH   3  13
ENDBRANCH   2   6
ENDBRANCH   1   2
BRANCH   1  20
ATOM     20  C   UNL     1       7.333  -2.171  25.901  0.00  0.00    +0.104 C 
BRANCH  20  21
ATOM     21  C   UNL     1       6.800  -1.121  26.859  0.00  0.00    -0.027 A 
ATOM     22  C   UNL     1       7.677  -0.155  27.382  0.00  0.00    +0.005 A 
ATOM     23  C   UNL     1       7.199   0.885  28.180  0.00  0.00    +0.000 A 
ATOM     24  C   UNL     1       5.842   0.964  28.482  0.00  0.00    +0.000 A 
ATOM     25  C   UNL     1       4.968  -0.015  28.013  0.00  0.00    +0.000 A 
ATOM     26  C   UNL     1       5.443  -1.056  27.214  0.00  0.00    +0.005 A 
ENDBRANCH  20  21
BRANCH  20  27
ATOM     27  N   UNL     1       6.435  -2.312  24.754  0.00  0.00    -0.308 N 
ATOM     28  H   UNL     1       6.460  -1.609  24.029  0.00  0.00    +0.149 HD
ATOM     29  C   UNL     1       5.661  -3.437  24.600  0.00  0.00    +0.217 C 
ATOM     30  O   UNL     1       5.551  -4.276  25.494  0.00  0.00    -0.275 OA
BRANCH  29  31
ATOM     31  C   UNL     1       4.969  -3.588  23.243  0.00  0.00    +0.075 C 
ATOM     32  C   UNL     1       4.480  -5.031  23.017  0.00  0.00    +0.018 C 
ATOM     33  C   UNL     1       5.630  -6.028  22.814  0.00  0.00    +0.076 C 
ATOM     34  C   UNL     1       6.627  -5.562  21.769  0.00  0.00    +0.249 C 
ATOM     35  F   UNL     1       6.064  -5.687  20.538  0.00  0.00    -0.206 F 
ATOM     36  F   UNL     1       7.714  -6.374  21.783  0.00  0.00    -0.206 F 
ATOM     37  C   UNL     1       7.079  -4.120  21.949  0.00  0.00    +0.076 C 
ATOM     38  C   UNL     1       5.883  -3.173  22.083  0.00  0.00    +0.018 C 
ENDBRANCH  29  31
ENDBRANCH  20  27
ENDBRANCH   1  20
TORSDOF 8
ENDMDL
MODEL 3
REMARK VINA RESULT:      -7.3      2.987      7.282
REMARK  Name = 
REMARK  11 active torsions:
REMARK  status: ('A' for Active; 'I' for Inactive)
REMARK    1  A    between atoms: C_1  and  C_2
REMARK    2  A    between atoms: C_5  and  C_36
REMARK    3  A    between atoms: N_6  and  C_7
REMARK    4  A    between atoms: N_15  and  C_16
REMARK    5  A    between atoms: C_16  and  C_17
REMARK    6  A    between atoms: C_17  and  C_18
REMARK    7  A    between atoms: C_18  and  C_19
REMARK    8  A    between atoms: C_18  and  N_25
REMARK    9  A    between atoms: C_26  and  C_28
REMARK   10  A    between atoms: C_36  and  C_37
REMARK   11  A    between atoms: C_36  and  C_38
REMARK                            x       y       z     vdW  Elec       q    Type
REMARK                         _______ _______ _______ _____ _____    ______ ____
ROOT
ATOM      1  C   UNL     1       5.595   2.512  24.986  0.00  0.00    +0.042 C 
ENDROOT
BRANCH   1   2
ATOM      2  C   UNL     1       4.767   1.318  25.511  0.00  0.00    +0.087 C 
BRANCH   2   6
ATOM      3  C   UNL     1       6.360  -2.338  24.454  0.00  0.00    +0.093 C 
ATOM      4  C   UNL     1       5.257  -2.468  25.517  0.00  0.00    +0.044 C 
ATOM      5  C   UNL     1       4.828  -1.086  26.086  0.00  0.00    +0.059 C 
ATOM      6  N   UNL     1       5.398   0.002  25.249  0.00  0.00    -0.296 NA
ATOM      7  C   UNL     1       6.829  -0.080  25.598  0.00  0.00    +0.059 C 
ATOM      8  C   UNL     1       6.865  -0.327  27.110  0.00  0.00    +0.020 C 
ATOM      9  C   UNL     1       5.486  -0.873  27.454  0.00  0.00    +0.020 C 
ATOM     10  C   UNL     1       7.419  -1.272  24.810  0.00  0.00    +0.044 C 
BRANCH   3  13
ATOM     11  C   UNL     1       5.713  -3.438  21.691  0.00  0.00    +0.088 C 
ATOM     12  C   UNL     1       6.662  -4.048  22.654  0.00  0.00    +0.131 A 
ATOM     13  N   UNL     1       6.953  -3.560  23.922  0.00  0.00    -0.312 N 
ATOM     14  C   UNL     1       7.899  -4.432  24.430  0.00  0.00    +0.136 A 
ATOM     15  N   UNL     1       8.125  -5.375  23.535  0.00  0.00    -0.134 NA
ATOM     16  N   UNL     1       7.365  -5.134  22.433  0.00  0.00    -0.135 NA
BRANCH  14  17
ATOM     17  C   UNL     1       8.577  -4.414  25.772  0.00  0.00    +0.051 C 
ATOM     18  C   UNL     1       9.947  -5.112  25.712  0.00  0.00    +0.015 C 
ATOM     19  C   UNL     1       7.714  -5.139  26.811  0.00  0.00    +0.015 C 
ENDBRANCH  14  17
ENDBRANCH   3  13
ENDBRANCH   2   6
ENDBRANCH   1   2
BRANCH   1  20
ATOM     20  C   UNL     1       5.559   2.670  23.442  0.00  0.00    +0.104 C 
BRANCH  20  21
ATOM     21  C   UNL     1       4.630   3.777  22.978  0.00  0.00    -0.027 A 
ATOM     22  C   UNL     1       5.054   5.114  23.060  0.00  0.00    +0.005 A 
ATOM     23  C   UNL     1       4.268   6.146  22.545  0.00  0.00    +0.000 A 
ATOM     24  C   UNL     1       3.040   5.858  21.956  0.00  0.00    +0.000 A 
ATOM     25  C   UNL     1       2.582   4.542  21.912  0.00  0.00    +0.000 A 
ATOM     26  C   UNL     1       3.367   3.508  22.427  0.00  0.00    +0.005 A 
ENDBRANCH  20  21
BRANCH  20  27
ATOM     27  N   UNL     1       6.911   2.897  22.932  0.00  0.00    -0.308 N 
ATOM     28  H   UNL     1       7.340   3.800  23.078  0.00  0.00    +0.149 HD
ATOM     29  C   UNL     1       7.635   1.870  22.374  0.00  0.00    +0.217 C 
ATOM     30  O   UNL     1       7.122   0.782  22.115  0.00  0.00    -0.275 OA
BRANCH  29  31
ATOM     31  C   UNL     1       9.117   2.161  22.121  0.00  0.00    +0.075 C 
ATOM     32  C   UNL     1       9.913   0.863  21.887  0.00  0.00    +0.018 C 
ATOM     33  C   UNL     1      10.048   0.007  23.154  0.00  0.00    +0.076 C 
ATOM     34  C   UNL     1      10.540   0.806  24.347  0.00  0.00    +0.249 C 
ATOM     35  F   UNL     1      11.860   1.082  24.178  0.00  0.00    -0.206 F 
ATOM     36  F   UNL     1      10.442   0.052  25.471  0.00  0.00    -0.206 F 
ATOM     37  C   UNL     1       9.796   2.116  24.559  0.00  0.00    +0.076 C 
ATOM     38  C   UNL     1       9.752   2.947  23.274  0.00  0.00    +0.018 C 
ENDBRANCH  29  31
ENDBRANCH  20  27
ENDBRANCH   1  20
TORSDOF 8
ENDMDL
MODEL 4
REMARK VINA RESULT:      -7.2      4.078      9.483
REMARK  Name = 
REMARK  11 active torsions:
REMARK  status: ('A' for Active; 'I' for Inactive)
REMARK    1  A    between atoms: C_1  and  C_2
REMARK    2  A    between atoms: C_5  and  C_36
REMARK    3  A    between atoms: N_6  and  C_7
REMARK    4  A    between atoms: N_15  and  C_16
REMARK    5  A    between atoms: C_16  and  C_17
REMARK    6  A    between atoms: C_17  and  C_18
REMARK    7  A    between atoms: C_18  and  C_19
REMARK    8  A    between atoms: C_18  and  N_25
REMARK    9  A    between atoms: C_26  and  C_28
REMARK   10  A    between atoms: C_36  and  C_37
REMARK   11  A    between atoms: C_36  and  C_38
REMARK                            x       y       z     vdW  Elec       q    Type
REMARK                         _______ _______ _______ _____ _____    ______ ____
ROOT
ATOM      1  C   UNL     1       8.564  -4.673  25.771  0.00  0.00    +0.042 C 
ENDROOT
BRANCH   1   2
ATOM      2  C   UNL     1       7.472  -4.046  26.665  0.00  0.00    +0.087 C 
BRANCH   2   6
ATOM      3  C   UNL     1       3.805  -5.787  25.921  0.00  0.00    +0.093 C 
ATOM      4  C   UNL     1       3.677  -4.463  26.692  0.00  0.00    +0.044 C 
ATOM      5  C   UNL     1       5.056  -3.934  27.178  0.00  0.00    +0.059 C 
ATOM      6  N   UNL     1       6.149  -4.701  26.525  0.00  0.00    -0.296 NA
ATOM      7  C   UNL     1       6.030  -6.008  27.198  0.00  0.00    +0.059 C 
ATOM      8  C   UNL     1       5.751  -5.684  28.669  0.00  0.00    +0.020 C 
ATOM      9  C   UNL     1       5.227  -4.255  28.667  0.00  0.00    +0.020 C 
ATOM     10  C   UNL     1       4.842  -6.748  26.541  0.00  0.00    +0.044 C 
BRANCH   3  13
ATOM     11  C   UNL     1       2.917  -6.020  23.019  0.00  0.00    +0.088 C 
ATOM     12  C   UNL     1       2.191  -6.583  24.184  0.00  0.00    +0.131 A 
ATOM     13  N   UNL     1       2.582  -6.470  25.512  0.00  0.00    -0.312 N 
ATOM     14  C   UNL     1       1.624  -7.164  26.226  0.00  0.00    +0.136 A 
ATOM     15  N   UNL     1       0.723  -7.628  25.380  0.00  0.00    -0.134 NA
ATOM     16  N   UNL     1       1.079  -7.275  24.115  0.00  0.00    -0.135 NA
BRANCH  14  17
ATOM     17  C   UNL     1       1.517  -7.374  27.711  0.00  0.00    +0.051 C 
ATOM     18  C   UNL     1       0.687  -8.627  28.038  0.00  0.00    +0.015 C 
ATOM     19  C   UNL     1       0.841  -6.165  28.369  0.00  0.00    +0.015 C 
ENDBRANCH  14  17
ENDBRANCH   3  13
ENDBRANCH   2   6
ENDBRANCH   1   2
BRANCH   1  20
ATOM     20  C   UNL     1       8.756  -3.949  24.411  0.00  0.00    +0.104 C 
BRANCH  20  21
ATOM     21  C   UNL     1       7.765  -4.397  23.352  0.00  0.00    -0.027 A 
ATOM     22  C   UNL     1       6.925  -3.447  22.747  0.00  0.00    +0.005 A 
ATOM     23  C   UNL     1       6.079  -3.809  21.697  0.00  0.00    +0.000 A 
ATOM     24  C   UNL     1       6.049  -5.126  21.249  0.00  0.00    +0.000 A 
ATOM     25  C   UNL     1       6.838  -6.091  21.873  0.00  0.00    +0.000 A 
ATOM     26  C   UNL     1       7.686  -5.731  22.923  0.00  0.00    +0.005 A 
ENDBRANCH  20  21
BRANCH  20  27
ATOM     27  N   UNL     1       8.673  -2.500  24.600  0.00  0.00    -0.308 N 
ATOM     28  H   UNL     1       7.958  -2.131  25.210  0.00  0.00    +0.149 HD
ATOM     29  C   UNL     1       9.623  -1.665  24.062  0.00  0.00    +0.217 C 
ATOM     30  O   UNL     1      10.462  -2.070  23.259  0.00  0.00    -0.275 OA
BRANCH  29  31
ATOM     31  C   UNL     1       9.581  -0.212  24.543  0.00  0.00    +0.075 C 
ATOM     32  C   UNL     1       8.153   0.363  24.474  0.00  0.00    +0.018 C 
ATOM     33  C   UNL     1       7.661   0.571  23.035  0.00  0.00    +0.076 C 
ATOM     34  C   UNL     1       8.657   1.335  22.183  0.00  0.00    +0.249 C 
ATOM     35  F   UNL     1       8.651   2.640  22.563  0.00  0.00    -0.206 F 
ATOM     36  F   UNL     1       8.262   1.307  20.885  0.00  0.00    -0.206 F 
ATOM     37  C   UNL     1      10.082   0.810  22.282  0.00  0.00    +0.076 C 
ATOM     38  C   UNL     1      10.530   0.686  23.741  0.00  0.00    +0.018 C 
ENDBRANCH  29  31
ENDBRANCH  20  27
ENDBRANCH   1  20
TORSDOF 8
ENDMDL
MODEL 5
REMARK VINA RESULT:      -7.1      2.621      4.079
REMARK  Name = 
REMARK  11 active torsions:
REMARK  status: ('A' for Active; 'I' for Inactive)
REMARK    1  A    between atoms: C_1  and  C_2
REMARK    2  A    between atoms: C_5  and  C_36
REMARK    3  A    between atoms: N_6  and  C_7
REMARK    4  A    between atoms: N_15  and  C_16
REMARK    5  A    between atoms: C_16  and  C_17
REMARK    6  A    between atoms: C_17  and  C_18
REMARK    7  A    between atoms: C_18  and  C_19
REMARK    8  A    between atoms: C_18  and  N_25
REMARK    9  A    between atoms: C_26  and  C_28
REMARK   10  A    between atoms: C_36  and  C_37
REMARK   11  A    between atoms: C_36  and  C_38
REMARK                            x       y       z     vdW  Elec       q    Type
REMARK                         _______ _______ _______ _____ _____    ______ ____
ROOT
ATOM      1  C   UNL     1       6.409  -1.843  22.979  0.00  0.00    +0.042 C 
ENDROOT
BRANCH   1   2
ATOM      2  C   UNL     1       7.823  -1.262  22.758  0.00  0.00    +0.087 C 
BRANCH   2   6
ATOM      3  C   UNL     1       8.035   2.456  24.536  0.00  0.00    +0.093 C 
ATOM      4  C   UNL     1       7.354   2.505  23.158  0.00  0.00    +0.044 C 
ATOM      5  C   UNL     1       7.489   1.160  22.391  0.00  0.00    +0.059 C 
ATOM      6  N   UNL     1       7.991   0.104  23.309  0.00  0.00    -0.296 NA
ATOM      7  C   UNL     1       9.391   0.528  23.501  0.00  0.00    +0.059 C 
ATOM      8  C   UNL     1       9.869   0.989  22.121  0.00  0.00    +0.020 C 
ATOM      9  C   UNL     1       8.596   1.283  21.339  0.00  0.00    +0.020 C 
ATOM     10  C   UNL     1       9.376   1.691  24.519  0.00  0.00    +0.044 C 
BRANCH   3  13
ATOM     11  C   UNL     1       6.776   2.746  27.292  0.00  0.00    +0.088 C 
ATOM     12  C   UNL     1       7.535   3.805  26.581  0.00  0.00    +0.131 A 
ATOM     13  N   UNL     1       8.101   3.685  25.319  0.00  0.00    -0.312 N 
ATOM     14  C   UNL     1       8.720   4.900  25.089  0.00  0.00    +0.136 A 
ATOM     15  N   UNL     1       8.508   5.683  26.131  0.00  0.00    -0.134 NA
ATOM     16  N   UNL     1       7.782   5.003  27.058  0.00  0.00    -0.135 NA
BRANCH  14  17
ATOM     17  C   UNL     1       9.485   5.358  23.879  0.00  0.00    +0.051 C 
ATOM     18  C   UNL     1      10.808   6.032  24.281  0.00  0.00    +0.015 C 
ATOM     19  C   UNL     1       8.656   6.369  23.078  0.00  0.00    +0.015 C 
ENDBRANCH  14  17
ENDBRANCH   3  13
ENDBRANCH   2   6
ENDBRANCH   1   2
BRANCH   1  20
ATOM     20  C   UNL     1       6.392  -3.370  23.255  0.00  0.00    +0.104 C 
BRANCH  20  21
ATOM     21  C   UNL     1       7.402  -3.798  24.304  0.00  0.00    -0.027 A 
ATOM     22  C   UNL     1       7.389  -3.181  25.567  0.00  0.00    +0.005 A 
ATOM     23  C   UNL     1       8.233  -3.623  26.586  0.00  0.00    +0.000 A 
ATOM     24  C   UNL     1       9.113  -4.676  26.354  0.00  0.00    +0.000 A 
ATOM     25  C   UNL     1       9.174  -5.265  25.092  0.00  0.00    +0.000 A 
ATOM     26  C   UNL     1       8.330  -4.824  24.070  0.00  0.00    +0.005 A 
ENDBRANCH  20  21
BRANCH  20  27
ATOM     27  N   UNL     1       5.046  -3.793  23.646  0.00  0.00    -0.308 N 
ATOM     28  H   UNL     1       4.541  -3.237  24.321  0.00  0.00    +0.149 HD
ATOM     29  C   UNL     1       4.430  -4.849  23.019  0.00  0.00    +0.217 C 
ATOM     30  O   UNL     1       5.039  -5.589  22.247  0.00  0.00    -0.275 OA
BRANCH  29  31
ATOM     31  C   UNL     1       2.941  -5.029  23.326  0.00  0.00    +0.075 C 
ATOM     32  C   UNL     1       2.557  -4.363  24.661  0.00  0.00    +0.018 C 
ATOM     33  C   UNL     1       3.143  -5.086  25.881  0.00  0.00    +0.076 C 
ATOM     34  C   UNL     1       2.876  -6.580  25.857  0.00  0.00    +0.249 C 
ATOM     35  F   UNL     1       1.564  -6.797  26.137  0.00  0.00    -0.206 F 
ATOM     36  F   UNL     1       3.587  -7.186  26.842  0.00  0.00    -0.206 F 
ATOM     37  C   UNL     1       3.202  -7.242  24.527  0.00  0.00    +0.076 C 
ATOM     38  C   UNL     1       2.537  -6.507  23.360  0.00  0.00    +0.018 C 
ENDBRANCH  29  31
ENDBRANCH  20  27
ENDBRANCH   1  20
TORSDOF 8
ENDMDL
MODEL 6
REMARK VINA RESULT:      -7.1      3.003      7.592
REMARK  Name = 
REMARK  11 active torsions:
REMARK  status: ('A' for Active; 'I' for Inactive)
REMARK    1  A    between atoms: C_1  and  C_2
REMARK    2  A    between atoms: C_5  and  C_36
REMARK    3  A    between atoms: N_6  and  C_7
REMARK    4  A    between atoms: N_15  and  C_16
REMARK    5  A    between atoms: C_16  and  C_17
REMARK    6  A    between atoms: C_17  and  C_18
REMARK    7  A    between atoms: C_18  and  C_19
REMARK    8  A    between atoms: C_18  and  N_25
REMARK    9  A    between atoms: C_26  and  C_28
REMARK   10  A    between atoms: C_36  and  C_37
REMARK   11  A    between atoms: C_36  and  C_38
REMARK                            x       y       z     vdW  Elec       q    Type
REMARK                         _______ _______ _______ _____ _____    ______ ____
ROOT
ATOM      1  C   UNL     1       8.399  -0.351  27.241  0.00  0.00    +0.042 C 
ENDROOT
BRANCH   1   2
ATOM      2  C   UNL     1       9.004  -1.083  26.023  0.00  0.00    +0.087 C 
BRANCH   2   6
ATOM      3  C   UNL     1       6.744  -4.414  25.111  0.00  0.00    +0.093 C 
ATOM      4  C   UNL     1       8.192  -4.536  24.610  0.00  0.00    +0.044 C 
ATOM      5  C   UNL     1       8.971  -3.197  24.740  0.00  0.00    +0.059 C 
ATOM      6  N   UNL     1       8.194  -2.240  25.570  0.00  0.00    -0.296 NA
ATOM      7  C   UNL     1       7.082  -1.901  24.661  0.00  0.00    +0.059 C 
ATOM      8  C   UNL     1       7.719  -1.762  23.275  0.00  0.00    +0.020 C 
ATOM      9  C   UNL     1       9.040  -2.515  23.369  0.00  0.00    +0.020 C 
ATOM     10  C   UNL     1       6.080  -3.077  24.715  0.00  0.00    +0.044 C 
BRANCH   3  13
ATOM     11  C   UNL     1       5.524  -5.950  27.438  0.00  0.00    +0.088 C 
ATOM     12  C   UNL     1       5.290  -6.243  26.002  0.00  0.00    +0.131 A 
ATOM     13  N   UNL     1       5.853  -5.555  24.934  0.00  0.00    -0.312 N 
ATOM     14  C   UNL     1       5.330  -6.160  23.806  0.00  0.00    +0.136 A 
ATOM     15  N   UNL     1       4.539  -7.146  24.186  0.00  0.00    -0.134 NA
ATOM     16  N   UNL     1       4.508  -7.192  25.545  0.00  0.00    -0.135 NA
BRANCH  14  17
ATOM     17  C   UNL     1       5.590  -5.847  22.359  0.00  0.00    +0.051 C 
ATOM     18  C   UNL     1       7.048  -6.157  21.977  0.00  0.00    +0.015 C 
ATOM     19  C   UNL     1       5.327  -4.362  22.083  0.00  0.00    +0.015 C 
ENDBRANCH  14  17
ENDBRANCH   3  13
ENDBRANCH   2   6
ENDBRANCH   1   2
BRANCH   1  20
ATOM     20  C   UNL     1       7.310   0.692  26.871  0.00  0.00    +0.104 C 
BRANCH  20  21
ATOM     21  C   UNL     1       6.582   1.248  28.081  0.00  0.00    -0.027 A 
ATOM     22  C   UNL     1       6.975   2.488  28.613  0.00  0.00    +0.005 A 
ATOM     23  C   UNL     1       6.258   3.075  29.657  0.00  0.00    +0.000 A 
ATOM     24  C   UNL     1       5.152   2.425  30.195  0.00  0.00    +0.000 A 
ATOM     25  C   UNL     1       4.780   1.171  29.712  0.00  0.00    +0.000 A 
ATOM     26  C   UNL     1       5.495   0.581  28.667  0.00  0.00    +0.005 A 
ENDBRANCH  20  21
BRANCH  20  27
ATOM     27  N   UNL     1       7.904   1.780  26.094  0.00  0.00    -0.308 N 
ATOM     28  H   UNL     1       8.709   2.261  26.468  0.00  0.00    +0.149 HD
ATOM     29  C   UNL     1       7.458   2.063  24.825  0.00  0.00    +0.217 C 
ATOM     30  O   UNL     1       6.439   1.549  24.366  0.00  0.00    -0.275 OA
BRANCH  29  31
ATOM     31  C   UNL     1       8.322   3.036  24.018  0.00  0.00    +0.075 C 
ATOM     32  C   UNL     1       7.968   2.993  22.519  0.00  0.00    +0.018 C 
ATOM     33  C   UNL     1       8.388   1.680  21.843  0.00  0.00    +0.076 C 
ATOM     34  C   UNL     1       9.832   1.313  22.129  0.00  0.00    +0.249 C 
ATOM     35  F   UNL     1      10.646   2.143  21.424  0.00  0.00    -0.206 F 
ATOM     36  F   UNL     1      10.080   0.055  21.682  0.00  0.00    -0.206 F 
ATOM     37  C   UNL     1      10.209   1.402  23.601  0.00  0.00    +0.076 C 
ATOM     38  C   UNL     1       9.819   2.758  24.196  0.00  0.00    +0.018 C 
ENDBRANCH  29  31
ENDBRANCH  20  27
ENDBRANCH   1  20
TORSDOF 8
ENDMDL
MODEL 7
REMARK VINA RESULT:      -7.0      4.013      9.509
REMARK  Name = 
REMARK  11 active torsions:
REMARK  status: ('A' for Active; 'I' for Inactive)
REMARK    1  A    between atoms: C_1  and  C_2
REMARK    2  A    between atoms: C_5  and  C_36
REMARK    3  A    between atoms: N_6  and  C_7
REMARK    4  A    between atoms: N_15  and  C_16
REMARK    5  A    between atoms: C_16  and  C_17
REMARK    6  A    between atoms: C_17  and  C_18
REMARK    7  A    between atoms: C_18  and  C_19
REMARK    8  A    between atoms: C_18  and  N_25
REMARK    9  A    between atoms: C_26  and  C_28
REMARK   10  A    between atoms: C_36  and  C_37
REMARK   11  A    between atoms: C_36  and  C_38
REMARK                            x       y       z     vdW  Elec       q    Type
REMARK                         _______ _______ _______ _____ _____    ______ ____
ROOT
ATOM      1  C   UNL     1       8.071  -4.032  25.995  0.00  0.00    +0.042 C 
ENDROOT
BRANCH   1   2
ATOM      2  C   UNL     1       6.765  -3.433  26.562  0.00  0.00    +0.087 C 
BRANCH   2   6
ATOM      3  C   UNL     1       3.501  -5.937  26.240  0.00  0.00    +0.093 C 
ATOM      4  C   UNL     1       3.318  -4.877  27.339  0.00  0.00    +0.044 C 
ATOM      5  C   UNL     1       4.631  -4.094  27.621  0.00  0.00    +0.059 C 
ATOM      6  N   UNL     1       5.629  -4.387  26.559  0.00  0.00    -0.296 NA
ATOM      7  C   UNL     1       5.991  -5.782  26.875  0.00  0.00    +0.059 C 
ATOM      8  C   UNL     1       6.081  -5.842  28.403  0.00  0.00    +0.020 C 
ATOM      9  C   UNL     1       5.285  -4.641  28.894  0.00  0.00    +0.020 C 
ATOM     10  C   UNL     1       4.853  -6.677  26.334  0.00  0.00    +0.044 C 
BRANCH   3  13
ATOM     11  C   UNL     1       1.947  -7.404  28.407  0.00  0.00    +0.088 C 
ATOM     12  C   UNL     1       1.676  -7.492  26.951  0.00  0.00    +0.131 A 
ATOM     13  N   UNL     1       2.388  -6.836  25.955  0.00  0.00    -0.312 N 
ATOM     14  C   UNL     1       1.763  -7.196  24.775  0.00  0.00    +0.136 A 
ATOM     15  N   UNL     1       0.774  -8.023  25.059  0.00  0.00    -0.134 NA
ATOM     16  N   UNL     1       0.715  -8.200  26.406  0.00  0.00    -0.135 NA
BRANCH  14  17
ATOM     17  C   UNL     1       2.105  -6.801  23.365  0.00  0.00    +0.051 C 
ATOM     18  C   UNL     1       1.753  -5.327  23.101  0.00  0.00    +0.015 C 
ATOM     19  C   UNL     1       1.325  -7.667  22.369  0.00  0.00    +0.015 C 
ENDBRANCH  14  17
ENDBRANCH   3  13
ENDBRANCH   2   6
ENDBRANCH   1   2
BRANCH   1  20
ATOM     20  C   UNL     1       8.477  -3.460  24.611  0.00  0.00    +0.104 C 
BRANCH  20  21
ATOM     21  C   UNL     1       7.644  -4.013  23.469  0.00  0.00    -0.027 A 
ATOM     22  C   UNL     1       7.638  -5.397  23.226  0.00  0.00    +0.005 A 
ATOM     23  C   UNL     1       6.802  -5.947  22.254  0.00  0.00    +0.000 A 
ATOM     24  C   UNL     1       5.974  -5.121  21.499  0.00  0.00    +0.000 A 
ATOM     25  C   UNL     1       6.006  -3.742  21.693  0.00  0.00    +0.000 A 
ATOM     26  C   UNL     1       6.841  -3.188  22.666  0.00  0.00    +0.005 A 
ENDBRANCH  20  21
BRANCH  20  27
ATOM     27  N   UNL     1       8.400  -1.999  24.633  0.00  0.00    -0.308 N 
ATOM     28  H   UNL     1       7.608  -1.561  25.081  0.00  0.00    +0.149 HD
ATOM     29  C   UNL     1       9.440  -1.232  24.166  0.00  0.00    +0.217 C 
ATOM     30  O   UNL     1      10.385  -1.726  23.551  0.00  0.00    -0.275 OA
BRANCH  29  31
ATOM     31  C   UNL     1       9.358   0.264  24.480  0.00  0.00    +0.075 C 
ATOM     32  C   UNL     1       7.933   0.808  24.261  0.00  0.00    +0.018 C 
ATOM     33  C   UNL     1       7.529   0.850  22.781  0.00  0.00    +0.076 C 
ATOM     34  C   UNL     1       8.571   1.530  21.912  0.00  0.00    +0.249 C 
ATOM     35  F   UNL     1       8.531   2.869  22.143  0.00  0.00    -0.206 F 
ATOM     36  F   UNL     1       8.257   1.354  20.603  0.00  0.00    -0.206 F 
ATOM     37  C   UNL     1       9.991   1.039  22.155  0.00  0.00    +0.076 C 
ATOM     38  C   UNL     1      10.349   1.082  23.642  0.00  0.00    +0.018 C 
ENDBRANCH  29  31
ENDBRANCH  20  27
ENDBRANCH   1  20
TORSDOF 8
ENDMDL
MODEL 8
REMARK VINA RESULT:      -6.9      3.421      7.786
REMARK  Name = 
REMARK  11 active torsions:
REMARK  status: ('A' for Active; 'I' for Inactive)
REMARK    1  A    between atoms: C_1  and  C_2
REMARK    2  A    between atoms: C_5  and  C_36
REMARK    3  A    between atoms: N_6  and  C_7
REMARK    4  A    between atoms: N_15  and  C_16
REMARK    5  A    between atoms: C_16  and  C_17
REMARK    6  A    between atoms: C_17  and  C_18
REMARK    7  A    between atoms: C_18  and  C_19
REMARK    8  A    between atoms: C_18  and  N_25
REMARK    9  A    between atoms: C_26  and  C_28
REMARK   10  A    between atoms: C_36  and  C_37
REMARK   11  A    between atoms: C_36  and  C_38
REMARK                            x       y       z     vdW  Elec       q    Type
REMARK                         _______ _______ _______ _____ _____    ______ ____
ROOT
ATOM      1  C   UNL     1      10.120   1.191  23.238  0.00  0.00    +0.042 C 
ENDROOT
BRANCH   1   2
ATOM      2  C   UNL     1      10.218  -0.083  24.106  0.00  0.00    +0.087 C 
BRANCH   2   6
ATOM      3  C   UNL     1       6.506  -1.593  25.091  0.00  0.00    +0.093 C 
ATOM      4  C   UNL     1       7.651  -2.484  25.597  0.00  0.00    +0.044 C 
ATOM      5  C   UNL     1       9.029  -2.047  25.024  0.00  0.00    +0.059 C 
ATOM      6  N   UNL     1       8.904  -0.718  24.370  0.00  0.00    -0.296 NA
ATOM      7  C   UNL     1       8.126  -1.060  23.163  0.00  0.00    +0.059 C 
ATOM      8  C   UNL     1       8.707  -2.388  22.668  0.00  0.00    +0.020 C 
ATOM      9  C   UNL     1       9.421  -2.982  23.875  0.00  0.00    +0.020 C 
ATOM     10  C   UNL     1       6.652  -1.208  23.603  0.00  0.00    +0.044 C 
BRANCH   3  13
ATOM     11  C   UNL     1       4.793   0.022  27.021  0.00  0.00    +0.088 C 
ATOM     12  C   UNL     1       4.358  -1.209  26.315  0.00  0.00    +0.131 A 
ATOM     13  N   UNL     1       5.138  -1.959  25.443  0.00  0.00    -0.312 N 
ATOM     14  C   UNL     1       4.311  -2.982  25.018  0.00  0.00    +0.136 A 
ATOM     15  N   UNL     1       3.142  -2.855  25.617  0.00  0.00    -0.134 NA
ATOM     16  N   UNL     1       3.169  -1.753  26.414  0.00  0.00    -0.135 NA
BRANCH  14  17
ATOM     17  C   UNL     1       4.615  -4.112  24.073  0.00  0.00    +0.051 C 
ATOM     18  C   UNL     1       3.322  -4.759  23.547  0.00  0.00    +0.015 C 
ATOM     19  C   UNL     1       5.436  -5.192  24.787  0.00  0.00    +0.015 C 
ENDBRANCH  14  17
ENDBRANCH   3  13
ENDBRANCH   2   6
ENDBRANCH   1   2
BRANCH   1  20
ATOM     20  C   UNL     1       9.504   2.409  23.976  0.00  0.00    +0.104 C 
BRANCH  20  21
ATOM     21  C   UNL     1      10.297   3.688  23.780  0.00  0.00    -0.027 A 
ATOM     22  C   UNL     1       9.700   4.924  24.084  0.00  0.00    +0.005 A 
ATOM     23  C   UNL     1      10.436   6.108  24.015  0.00  0.00    +0.000 A 
ATOM     24  C   UNL     1      11.772   6.076  23.626  0.00  0.00    +0.000 A 
ATOM     25  C   UNL     1      12.364   4.865  23.272  0.00  0.00    +0.000 A 
ATOM     26  C   UNL     1      11.630   3.678  23.341  0.00  0.00    +0.005 A 
ENDBRANCH  20  21
BRANCH  20  27
ATOM     27  N   UNL     1       8.117   2.603  23.550  0.00  0.00    -0.308 N 
ATOM     28  H   UNL     1       7.935   2.850  22.588  0.00  0.00    +0.149 HD
ATOM     29  C   UNL     1       7.074   2.333  24.404  0.00  0.00    +0.217 C 
ATOM     30  O   UNL     1       7.258   2.100  25.598  0.00  0.00    -0.275 OA
BRANCH  29  31
ATOM     31  C   UNL     1       5.681   2.319  23.769  0.00  0.00    +0.075 C 
ATOM     32  C   UNL     1       5.649   3.135  22.463  0.00  0.00    +0.018 C 
ATOM     33  C   UNL     1       5.792   4.645  22.697  0.00  0.00    +0.076 C 
ATOM     34  C   UNL     1       4.833   5.165  23.752  0.00  0.00    +0.249 C 
ATOM     35  F   UNL     1       3.577   5.184  23.234  0.00  0.00    -0.206 F 
ATOM     36  F   UNL     1       5.146   6.449  24.059  0.00  0.00    -0.206 F 
ATOM     37  C   UNL     1       4.817   4.337  25.029  0.00  0.00    +0.076 C 
ATOM     38  C   UNL     1       4.609   2.850  24.728  0.00  0.00    +0.018 C 
ENDBRANCH  29  31
ENDBRANCH  20  27
ENDBRANCH   1  20
TORSDOF 8
ENDMDL
MODEL 9
REMARK VINA RESULT:      -6.9      2.587      5.015
REMARK  Name = 
REMARK  11 active torsions:
REMARK  status: ('A' for Active; 'I' for Inactive)
REMARK    1  A    between atoms: C_1  and  C_2
REMARK    2  A    between atoms: C_5  and  C_36
REMARK    3  A    between atoms: N_6  and  C_7
REMARK    4  A    between atoms: N_15  and  C_16
REMARK    5  A    between atoms: C_16  and  C_17
REMARK    6  A    between atoms: C_17  and  C_18
REMARK    7  A    between atoms: C_18  and  C_19
REMARK    8  A    between atoms: C_18  and  N_25
REMARK    9  A    between atoms: C_26  and  C_28
REMARK   10  A    between atoms: C_36  and  C_37
REMARK   11  A    between atoms: C_36  and  C_38
REMARK                            x       y       z     vdW  Elec       q    Type
REMARK                         _______ _______ _______ _____ _____    ______ ____
ROOT
ATOM      1  C   UNL     1       4.062  -2.058  27.770  0.00  0.00    +0.042 C 
ENDROOT
BRANCH   1   2
ATOM      2  C   UNL     1       4.938  -0.790  27.874  0.00  0.00    +0.087 C 
BRANCH   2   6
ATOM      3  C   UNL     1       7.976  -0.976  25.087  0.00  0.00    +0.093 C 
ATOM      4  C   UNL     1       8.397  -0.226  26.360  0.00  0.00    +0.044 C 
ATOM      5  C   UNL     1       7.191   0.052  27.302  0.00  0.00    +0.059 C 
ATOM      6  N   UNL     1       6.010  -0.729  26.851  0.00  0.00    -0.296 NA
ATOM      7  C   UNL     1       5.645  -0.016  25.612  0.00  0.00    +0.059 C 
ATOM      8  C   UNL     1       5.821   1.472  25.932  0.00  0.00    +0.020 C 
ATOM      9  C   UNL     1       6.746   1.509  27.141  0.00  0.00    +0.020 C 
ATOM     10  C   UNL     1       6.628  -0.484  24.515  0.00  0.00    +0.044 C 
BRANCH   3  13
ATOM     11  C   UNL     1       9.431  -3.623  24.708  0.00  0.00    +0.088 C 
ATOM     12  C   UNL     1       9.628  -2.410  23.875  0.00  0.00    +0.131 A 
ATOM     13  N   UNL     1       8.978  -1.195  24.050  0.00  0.00    -0.312 N 
ATOM     14  C   UNL     1       9.458  -0.387  23.036  0.00  0.00    +0.136 A 
ATOM     15  N   UNL     1      10.343  -1.071  22.336  0.00  0.00    -0.134 NA
ATOM     16  N   UNL     1      10.443  -2.326  22.850  0.00  0.00    -0.135 NA
BRANCH  14  17
ATOM     17  C   UNL     1       9.121   1.046  22.730  0.00  0.00    +0.051 C 
ATOM     18  C   UNL     1       8.859   1.247  21.228  0.00  0.00    +0.015 C 
ATOM     19  C   UNL     1      10.280   1.962  23.142  0.00  0.00    +0.015 C 
ENDBRANCH  14  17
ENDBRANCH   3  13
ENDBRANCH   2   6
ENDBRANCH   1   2
BRANCH   1  20
ATOM     20  C   UNL     1       4.807  -3.291  27.194  0.00  0.00    +0.104 C 
BRANCH  20  21
ATOM     21  C   UNL     1       4.694  -4.521  28.076  0.00  0.00    -0.027 A 
ATOM     22  C   UNL     1       5.858  -5.217  28.443  0.00  0.00    +0.005 A 
ATOM     23  C   UNL     1       5.799  -6.286  29.338  0.00  0.00    +0.000 A 
ATOM     24  C   UNL     1       4.574  -6.687  29.863  0.00  0.00    +0.000 A 
ATOM     25  C   UNL     1       3.404  -6.040  29.469  0.00  0.00    +0.000 A 
ATOM     26  C   UNL     1       3.461  -4.969  28.575  0.00  0.00    +0.005 A 
ENDBRANCH  20  21
BRANCH  20  27
ATOM     27  N   UNL     1       4.317  -3.587  25.847  0.00  0.00    -0.308 N 
ATOM     28  H   UNL     1       3.327  -3.510  25.664  0.00  0.00    +0.149 HD
ATOM     29  C   UNL     1       5.193  -3.843  24.820  0.00  0.00    +0.217 C 
ATOM     30  O   UNL     1       6.395  -4.015  25.020  0.00  0.00    -0.275 OA
BRANCH  29  31
ATOM     31  C   UNL     1       4.582  -3.877  23.417  0.00  0.00    +0.075 C 
ATOM     32  C   UNL     1       4.264  -5.318  22.975  0.00  0.00    +0.018 C 
ATOM     33  C   UNL     1       5.524  -6.154  22.709  0.00  0.00    +0.076 C 
ATOM     34  C   UNL     1       6.508  -5.450  21.794  0.00  0.00    +0.249 C 
ATOM     35  F   UNL     1       6.018  -5.461  20.527  0.00  0.00    -0.206 F 
ATOM     36  F   UNL     1       7.677  -6.140  21.764  0.00  0.00    -0.206 F 
ATOM     37  C   UNL     1       6.792  -4.007  22.189  0.00  0.00    +0.076 C 
ATOM     38  C   UNL     1       5.495  -3.215  22.377  0.00  0.00    +0.018 C 
ENDBRANCH  29  31
ENDBRANCH  20  27
ENDBRANCH   1  20
TORSDOF 8
ENDMDL
