MODEL 1
REMARK VINA RESULT:      -7.5      0.000      0.000
REMARK  Name = 
REMARK  17 active torsions:
REMARK  status: ('A' for Active; 'I' for Inactive)
REMARK    1  A    between atoms: C_1  and  C_2
REMARK    2  A    between atoms: C_2  and  C_3
REMARK    3  A    between atoms: C_2  and  C_4
REMARK    4  A    between atoms: C_2  and  N_5
REMARK    5  A    between atoms: C_6  and  C_8
REMARK    6  A    between atoms: N_10  and  C_41
REMARK    7  A    between atoms: N_13  and  C_14
REMARK    8  A    between atoms: C_14  and  C_15
REMARK    9  A    between atoms: C_15  and  C_16
REMARK   10  A    between atoms: C_15  and  O_40
REMARK   11  A    between atoms: C_16  and  C_17
REMARK   12  A    between atoms: C_17  and  C_19
REMARK   13  A    between atoms: C_17  and  C_26
REMARK   14  A    between atoms: C_19  and  C_20
REMARK   15  A    between atoms: N_28  and  C_29
REMARK   16  A    between atoms: C_31  and  O_39
REMARK   17  A    between atoms: C_41  and  C_42
REMARK                            x       y       z     vdW  Elec       q    Type
REMARK                         _______ _______ _______ _____ _____    ______ ____
ROOT
ATOM      1  C   UNL     1       9.093  -3.090  24.390  0.00  0.00    +0.129 C 
ENDROOT
BRANCH   1   2
ATOM      2  O   UNL     1      10.392  -3.034  23.784  0.00  0.00    -0.391 OA
ATOM      3  H   UNL     1      10.304  -3.207  22.830  0.00  0.00    +0.210 HD
ENDBRANCH   1   2
BRANCH   1   4
ATOM      4  C   UNL     1       8.095  -2.249  23.540  0.00  0.00    +0.116 C 
BRANCH   4   6
ATOM      5  C   UNL     1       6.955  -0.056  23.330  0.00  0.00    +0.157 C 
ATOM      6  N   UNL     1       7.433  -1.135  24.264  0.00  0.00    -0.287 NA
ATOM      7  C   UNL     1       8.349  -0.516  25.243  0.00  0.00    +0.100 C 
ATOM      8  C   UNL     1       9.477   0.364  24.631  0.00  0.00    +0.100 C 
ATOM      9  N   UNL     1       9.030   1.305  23.575  0.00  0.00    -0.295 NA
ATOM     10  C   UNL     1       8.133   0.633  22.606  0.00  0.00    +0.113 C 
BRANCH   5  13
ATOM     11  N   UNL     1       6.157   2.318  23.779  0.00  0.00    -0.309 N 
ATOM     12  H   UNL     1       6.848   2.515  23.055  0.00  0.00    +0.149 HD
ATOM     13  C   UNL     1       6.014   0.973  24.094  0.00  0.00    +0.232 C 
ATOM     14  O   UNL     1       5.225   0.586  24.954  0.00  0.00    -0.274 OA
BRANCH  11  16
ATOM     15  C   UNL     1       5.667   4.764  23.630  0.00  0.00    +0.031 C 
ATOM     16  C   UNL     1       5.505   3.468  24.443  0.00  0.00    +0.026 C 
ATOM     17  C   UNL     1       3.985   3.205  24.560  0.00  0.00    +0.031 C 
ATOM     18  C   UNL     1       6.055   3.663  25.861  0.00  0.00    +0.031 C 
ENDBRANCH  11  16
ENDBRANCH   5  13
BRANCH   9  19
ATOM     19  C   UNL     1      10.162   1.972  22.917  0.00  0.00    +0.121 C 
BRANCH  19  20
ATOM     20  C   UNL     1      10.359   3.390  23.398  0.00  0.00    -0.015 A 
ATOM     21  C   UNL     1       9.306   4.129  23.942  0.00  0.00    +0.008 A 
ATOM     22  C   UNL     1       9.507   5.444  24.347  0.00  0.00    +0.020 A 
ATOM     23  C   UNL     1      10.774   5.980  24.208  0.00  0.00    +0.111 A 
ATOM     24  N   UNL     1      11.820   5.303  23.685  0.00  0.00    -0.263 NA
ATOM     25  C   UNL     1      11.588   4.030  23.289  0.00  0.00    +0.115 A 
ENDBRANCH  19  20
ENDBRANCH   9  19
ENDBRANCH   4   6
ENDBRANCH   1   4
BRANCH   1  26
ATOM     26  C   UNL     1       8.628  -4.545  24.536  0.00  0.00    +0.045 C 
BRANCH  26  27
ATOM     27  C   UNL     1       7.130  -4.728  24.814  0.00  0.00    +0.082 C 
BRANCH  27  28
ATOM     28  C   UNL     1       6.863  -5.132  26.274  0.00  0.00    +0.217 C 
ATOM     29  N   UNL     1       5.721  -4.665  26.886  0.00  0.00    -0.306 N 
ATOM     30  H   UNL     1       5.098  -4.037  26.398  0.00  0.00    +0.149 HD
ATOM     31  O   UNL     1       7.633  -5.900  26.854  0.00  0.00    -0.275 OA
BRANCH  29  32
ATOM     32  C   UNL     1       5.278  -5.221  28.163  0.00  0.00    +0.132 C 
ATOM     33  C   UNL     1       4.131  -4.481  28.783  0.00  0.00    -0.022 A 
ATOM     34  C   UNL     1       3.155  -5.351  29.273  0.00  0.00    -0.040 A 
ATOM     35  C   UNL     1       2.105  -4.885  30.054  0.00  0.00    +0.004 A 
ATOM     36  C   UNL     1       2.040  -3.519  30.335  0.00  0.00    +0.000 A 
ATOM     37  C   UNL     1       3.000  -2.640  29.815  0.00  0.00    +0.000 A 
ATOM     38  C   UNL     1       3.422  -6.771  28.893  0.00  0.00    +0.069 C 
ATOM     39  C   UNL     1       4.054  -3.119  29.037  0.00  0.00    +0.006 A 
ATOM     40  C   UNL     1       4.732  -6.691  28.073  0.00  0.00    +0.143 C 
BRANCH  40  41
ATOM     41  O   UNL     1       5.654  -7.667  28.581  0.00  0.00    -0.389 OA
ATOM     42  H   UNL     1       5.150  -8.402  28.974  0.00  0.00    +0.210 HD
ENDBRANCH  40  41
ENDBRANCH  29  32
ENDBRANCH  27  28
BRANCH  27  43
ATOM     43  C   UNL     1       6.230  -5.365  23.727  0.00  0.00    +0.048 C 
BRANCH  43  44
ATOM     44  C   UNL     1       4.753  -5.710  23.765  0.00  0.00    -0.047 A 
ATOM     45  C   UNL     1       4.437  -6.967  24.350  0.00  0.00    +0.003 A 
ATOM     46  C   UNL     1       3.125  -7.430  24.472  0.00  0.00    +0.000 A 
ATOM     47  C   UNL     1       2.080  -6.650  24.003  0.00  0.00    +0.000 A 
ATOM     48  C   UNL     1       2.364  -5.413  23.420  0.00  0.00    +0.000 A 
ATOM     49  C   UNL     1       3.695  -4.935  23.300  0.00  0.00    +0.003 A 
ENDBRANCH  43  44
ENDBRANCH  27  43
ENDBRANCH  26  27
ENDBRANCH   1  26
TORSDOF 14
ENDMDL
MODEL 2
REMARK VINA RESULT:      -7.4      2.548      8.911
REMARK  Name = 
REMARK  17 active torsions:
REMARK  status: ('A' for Active; 'I' for Inactive)
REMARK    1  A    between atoms: C_1  and  C_2
REMARK    2  A    between atoms: C_2  and  C_3
REMARK    3  A    between atoms: C_2  and  C_4
REMARK    4  A    between atoms: C_2  and  N_5
REMARK    5  A    between atoms: C_6  and  C_8
REMARK    6  A    between atoms: N_10  and  C_41
REMARK    7  A    between atoms: N_13  and  C_14
REMARK    8  A    between atoms: C_14  and  C_15
REMARK    9  A    between atoms: C_15  and  C_16
REMARK   10  A    between atoms: C_15  and  O_40
REMARK   11  A    between atoms: C_16  and  C_17
REMARK   12  A    between atoms: C_17  and  C_19
REMARK   13  A    between atoms: C_17  and  C_26
REMARK   14  A    between atoms: C_19  and  C_20
REMARK   15  A    between atoms: N_28  and  C_29
REMARK   16  A    between atoms: C_31  and  O_39
REMARK   17  A    between atoms: C_41  and  C_42
REMARK                            x       y       z     vdW  Elec       q    Type
REMARK                         _______ _______ _______ _____ _____    ______ ____
ROOT
ATOM      1  C   UNL     1       8.549  -1.286  23.631  0.00  0.00    +0.129 C 
ENDROOT
BRANCH   1   2
ATOM      2  O   UNL     1       8.451  -0.810  22.282  0.00  0.00    -0.391 OA
ATOM      3  H   UNL     1       8.764  -1.505  21.676  0.00  0.00    +0.210 HD
ENDBRANCH   1   2
BRANCH   1   4
ATOM      4  C   UNL     1       8.765  -2.829  23.614  0.00  0.00    +0.116 C 
BRANCH   4   6
ATOM      5  C   UNL     1       6.390  -3.191  24.228  0.00  0.00    +0.157 C 
ATOM      6  N   UNL     1       7.543  -3.634  23.369  0.00  0.00    -0.287 NA
ATOM      7  C   UNL     1       7.785  -5.066  23.635  0.00  0.00    +0.100 C 
ATOM      8  C   UNL     1       7.907  -5.449  25.139  0.00  0.00    +0.100 C 
ATOM      9  N   UNL     1       6.867  -4.860  26.018  0.00  0.00    -0.295 NA
ATOM     10  C   UNL     1       6.678  -3.419  25.729  0.00  0.00    +0.113 C 
BRANCH   5  13
ATOM     11  N   UNL     1       4.291  -4.547  24.709  0.00  0.00    -0.309 N 
ATOM     12  H   UNL     1       4.680  -4.514  25.651  0.00  0.00    +0.149 HD
ATOM     13  C   UNL     1       5.036  -3.874  23.750  0.00  0.00    +0.232 C 
ATOM     14  O   UNL     1       4.694  -3.835  22.569  0.00  0.00    -0.274 OA
BRANCH  11  16
ATOM     15  C   UNL     1       3.236  -6.297  23.270  0.00  0.00    +0.031 C 
ATOM     16  C   UNL     1       3.082  -5.371  24.489  0.00  0.00    +0.026 C 
ATOM     17  C   UNL     1       2.850  -6.287  25.714  0.00  0.00    +0.031 C 
ATOM     18  C   UNL     1       1.840  -4.487  24.327  0.00  0.00    +0.031 C 
ENDBRANCH  11  16
ENDBRANCH   5  13
BRANCH   9  19
ATOM     19  C   UNL     1       7.143  -5.111  27.440  0.00  0.00    +0.121 C 
BRANCH  19  20
ATOM     20  C   UNL     1       5.897  -5.459  28.220  0.00  0.00    -0.015 A 
ATOM     21  C   UNL     1       5.032  -4.469  28.692  0.00  0.00    +0.008 A 
ATOM     22  C   UNL     1       3.909  -4.814  29.435  0.00  0.00    +0.020 A 
ATOM     23  C   UNL     1       3.675  -6.156  29.672  0.00  0.00    +0.111 A 
ATOM     24  N   UNL     1       4.485  -7.146  29.238  0.00  0.00    -0.263 NA
ATOM     25  C   UNL     1       5.576  -6.775  28.528  0.00  0.00    +0.115 A 
ENDBRANCH  19  20
ENDBRANCH   9  19
ENDBRANCH   4   6
ENDBRANCH   1   4
BRANCH   1  26
ATOM     26  C   UNL     1       9.678  -0.563  24.378  0.00  0.00    +0.045 C 
BRANCH  26  27
ATOM     27  C   UNL     1       9.462   0.940  24.595  0.00  0.00    +0.082 C 
BRANCH  27  28
ATOM     28  C   UNL     1       8.116   1.233  25.282  0.00  0.00    +0.217 C 
ATOM     29  N   UNL     1       7.970   0.897  26.609  0.00  0.00    -0.306 N 
ATOM     30  H   UNL     1       8.715   0.429  27.105  0.00  0.00    +0.149 HD
ATOM     31  O   UNL     1       7.218   1.805  24.662  0.00  0.00    -0.275 OA
BRANCH  29  32
ATOM     32  C   UNL     1       6.829   1.386  27.381  0.00  0.00    +0.132 C 
ATOM     33  C   UNL     1       5.740   0.373  27.566  0.00  0.00    -0.022 A 
ATOM     34  C   UNL     1       5.268   0.349  28.879  0.00  0.00    -0.040 A 
ATOM     35  C   UNL     1       4.134  -0.376  29.222  0.00  0.00    +0.004 A 
ATOM     36  C   UNL     1       3.475  -1.092  28.221  0.00  0.00    +0.000 A 
ATOM     37  C   UNL     1       3.968  -1.098  26.910  0.00  0.00    +0.000 A 
ATOM     38  C   UNL     1       6.089   1.205  29.789  0.00  0.00    +0.069 C 
ATOM     39  C   UNL     1       5.105  -0.361  26.575  0.00  0.00    +0.006 A 
ATOM     40  C   UNL     1       7.176   1.793  28.858  0.00  0.00    +0.143 C 
BRANCH  40  41
ATOM     41  O   UNL     1       7.231   3.214  29.054  0.00  0.00    -0.389 OA
ATOM     42  H   UNL     1       6.512   3.478  29.655  0.00  0.00    +0.210 HD
ENDBRANCH  40  41
ENDBRANCH  29  32
ENDBRANCH  27  28
BRANCH  27  43
ATOM     43  C   UNL     1       9.936   1.939  23.512  0.00  0.00    +0.048 C 
BRANCH  43  44
ATOM     44  C   UNL     1      10.299   3.407  23.632  0.00  0.00    -0.047 A 
ATOM     45  C   UNL     1      11.653   3.725  23.331  0.00  0.00    +0.003 A 
ATOM     46  C   UNL     1      12.147   5.031  23.383  0.00  0.00    +0.000 A 
ATOM     47  C   UNL     1      11.302   6.065  23.749  0.00  0.00    +0.000 A 
ATOM     48  C   UNL     1       9.969   5.780  24.055  0.00  0.00    +0.000 A 
ATOM     49  C   UNL     1       9.460   4.455  23.996  0.00  0.00    +0.003 A 
ENDBRANCH  43  44
ENDBRANCH  27  43
ENDBRANCH  26  27
ENDBRANCH   1  26
TORSDOF 14
ENDMDL
MODEL 3
REMARK VINA RESULT:      -7.4      2.186      9.150
REMARK  Name = 
REMARK  17 active torsions:
REMARK  status: ('A' for Active; 'I' for Inactive)
REMARK    1  A    between atoms: C_1  and  C_2
REMARK    2  A    between atoms: C_2  and  C_3
REMARK    3  A    between atoms: C_2  and  C_4
REMARK    4  A    between atoms: C_2  and  N_5
REMARK    5  A    between atoms: C_6  and  C_8
REMARK    6  A    between atoms: N_10  and  C_41
REMARK    7  A    between atoms: N_13  and  C_14
REMARK    8  A    between atoms: C_14  and  C_15
REMARK    9  A    between atoms: C_15  and  C_16
REMARK   10  A    between atoms: C_15  and  O_40
REMARK   11  A    between atoms: C_16  and  C_17
REMARK   12  A    between atoms: C_17  and  C_19
REMARK   13  A    between atoms: C_17  and  C_26
REMARK   14  A    between atoms: C_19  and  C_20
REMARK   15  A    between atoms: N_28  and  C_29
REMARK   16  A    between atoms: C_31  and  O_39
REMARK   17  A    between atoms: C_41  and  C_42
REMARK                            x       y       z     vdW  Elec       q    Type
REMARK                         _______ _______ _______ _____ _____    ______ ____
ROOT
ATOM      1  C   UNL     1       9.355  -1.427  22.651  0.00  0.00    +0.129 C 
ENDROOT
BRANCH   1   2
ATOM      2  O   UNL     1      10.187  -1.510  21.485  0.00  0.00    -0.391 OA
ATOM      3  H   UNL     1       9.623  -1.498  20.691  0.00  0.00    +0.210 HD
ENDBRANCH   1   2
BRANCH   1   4
ATOM      4  C   UNL     1       8.633  -2.791  22.862  0.00  0.00    +0.116 C 
BRANCH   4   6
ATOM      5  C   UNL     1       7.772  -4.375  24.566  0.00  0.00    +0.157 C 
ATOM      6  N   UNL     1       7.923  -2.934  24.158  0.00  0.00    -0.287 NA
ATOM      7  C   UNL     1       6.575  -2.334  24.096  0.00  0.00    +0.100 C 
ATOM      8  C   UNL     1       5.528  -3.140  23.272  0.00  0.00    +0.100 C 
ATOM      9  N   UNL     1       5.507  -4.597  23.547  0.00  0.00    -0.295 NA
ATOM     10  C   UNL     1       6.879  -5.156  23.576  0.00  0.00    +0.113 C 
BRANCH   5  13
ATOM     11  N   UNL     1       6.228  -5.368  26.328  0.00  0.00    -0.309 N 
ATOM     12  H   UNL     1       5.902  -5.891  25.515  0.00  0.00    +0.149 HD
ATOM     13  C   UNL     1       7.267  -4.483  26.069  0.00  0.00    +0.232 C 
ATOM     14  O   UNL     1       7.757  -3.780  26.951  0.00  0.00    -0.274 OA
BRANCH  11  16
ATOM     15  C   UNL     1       4.778  -4.256  28.033  0.00  0.00    +0.031 C 
ATOM     16  C   UNL     1       5.498  -5.545  27.602  0.00  0.00    +0.026 C 
ATOM     17  C   UNL     1       4.404  -6.625  27.427  0.00  0.00    +0.031 C 
ATOM     18  C   UNL     1       6.444  -6.017  28.713  0.00  0.00    +0.031 C 
ENDBRANCH  11  16
ENDBRANCH   5  13
BRANCH   9  19
ATOM     19  C   UNL     1       4.631  -5.320  22.615  0.00  0.00    +0.121 C 
BRANCH  19  20
ATOM     20  C   UNL     1       3.572  -6.132  23.323  0.00  0.00    -0.015 A 
ATOM     21  C   UNL     1       2.236  -5.727  23.345  0.00  0.00    +0.008 A 
ATOM     22  C   UNL     1       1.287  -6.476  24.032  0.00  0.00    +0.020 A 
ATOM     23  C   UNL     1       1.707  -7.629  24.670  0.00  0.00    +0.111 A 
ATOM     24  N   UNL     1       2.988  -8.056  24.677  0.00  0.00    -0.263 NA
ATOM     25  C   UNL     1       3.889  -7.298  24.009  0.00  0.00    +0.115 A 
ENDBRANCH  19  20
ENDBRANCH   9  19
ENDBRANCH   4   6
ENDBRANCH   1   4
BRANCH   1  26
ATOM     26  C   UNL     1      10.185  -1.028  23.878  0.00  0.00    +0.045 C 
BRANCH  26  27
ATOM     27  C   UNL     1       9.869   0.356  24.460  0.00  0.00    +0.082 C 
BRANCH  27  28
ATOM     28  C   UNL     1       8.996   0.261  25.724  0.00  0.00    +0.217 C 
ATOM     29  N   UNL     1       8.107   1.280  25.985  0.00  0.00    -0.306 N 
ATOM     30  H   UNL     1       8.063   2.090  25.382  0.00  0.00    +0.149 HD
ATOM     31  O   UNL     1       9.062  -0.734  26.447  0.00  0.00    -0.275 OA
BRANCH  29  32
ATOM     32  C   UNL     1       7.074   1.125  27.007  0.00  0.00    +0.132 C 
ATOM     33  C   UNL     1       6.304   2.380  27.289  0.00  0.00    -0.022 A 
ATOM     34  C   UNL     1       4.931   2.140  27.373  0.00  0.00    -0.040 A 
ATOM     35  C   UNL     1       4.057   3.124  27.815  0.00  0.00    +0.004 A 
ATOM     36  C   UNL     1       4.580   4.369  28.171  0.00  0.00    +0.000 A 
ATOM     37  C   UNL     1       5.953   4.622  28.053  0.00  0.00    +0.000 A 
ATOM     38  C   UNL     1       4.578   0.741  26.985  0.00  0.00    +0.069 C 
ATOM     39  C   UNL     1       6.824   3.624  27.613  0.00  0.00    +0.006 A 
ATOM     40  C   UNL     1       5.942   0.102  26.631  0.00  0.00    +0.143 C 
BRANCH  40  41
ATOM     41  O   UNL     1       6.059  -1.149  27.325  0.00  0.00    -0.389 OA
ATOM     42  H   UNL     1       6.920  -1.550  27.111  0.00  0.00    +0.210 HD
ENDBRANCH  40  41
ENDBRANCH  29  32
ENDBRANCH  27  28
BRANCH  27  43
ATOM     43  C   UNL     1       9.598   1.539  23.499  0.00  0.00    +0.048 C 
BRANCH  43  44
ATOM     44  C   UNL     1       9.968   3.004  23.630  0.00  0.00    -0.047 A 
ATOM     45  C   UNL     1      11.316   3.322  23.302  0.00  0.00    +0.003 A 
ATOM     46  C   UNL     1      11.815   4.625  23.360  0.00  0.00    +0.000 A 
ATOM     47  C   UNL     1      10.981   5.658  23.757  0.00  0.00    +0.000 A 
ATOM     48  C   UNL     1       9.654   5.372  24.088  0.00  0.00    +0.000 A 
ATOM     49  C   UNL     1       9.140   4.050  24.024  0.00  0.00    +0.003 A 
ENDBRANCH  43  44
ENDBRANCH  27  43
ENDBRANCH  26  27
ENDBRANCH   1  26
TORSDOF 14
ENDMDL
MODEL 4
REMARK VINA RESULT:      -7.3      2.300      9.115
REMARK  Name = 
REMARK  17 active torsions:
REMARK  status: ('A' for Active; 'I' for Inactive)
REMARK    1  A    between atoms: C_1  and  C_2
REMARK    2  A    between atoms: C_2  and  C_3
REMARK    3  A    between atoms: C_2  and  C_4
REMARK    4  A    between atoms: C_2  and  N_5
REMARK    5  A    between atoms: C_6  and  C_8
REMARK    6  A    between atoms: N_10  and  C_41
REMARK    7  A    between atoms: N_13  and  C_14
REMARK    8  A    between atoms: C_14  and  C_15
REMARK    9  A    between atoms: C_15  and  C_16
REMARK   10  A    between atoms: C_15  and  O_40
REMARK   11  A    between atoms: C_16  and  C_17
REMARK   12  A    between atoms: C_17  and  C_19
REMARK   13  A    between atoms: C_17  and  C_26
REMARK   14  A    between atoms: C_19  and  C_20
REMARK   15  A    between atoms: N_28  and  C_29
REMARK   16  A    between atoms: C_31  and  O_39
REMARK   17  A    between atoms: C_41  and  C_42
REMARK                            x       y       z     vdW  Elec       q    Type
REMARK                         _______ _______ _______ _____ _____    ______ ____
ROOT
ATOM      1  C   UNL     1       9.406  -1.359  22.973  0.00  0.00    +0.129 C 
ENDROOT
BRANCH   1   2
ATOM      2  O   UNL     1      10.551  -1.515  22.125  0.00  0.00    -0.391 OA
ATOM      3  H   UNL     1      11.349  -1.249  22.616  0.00  0.00    +0.210 HD
ENDBRANCH   1   2
BRANCH   1   4
ATOM      4  C   UNL     1       8.647  -2.716  23.063  0.00  0.00    +0.116 C 
BRANCH   4   6
ATOM      5  C   UNL     1       7.933  -4.460  24.676  0.00  0.00    +0.157 C 
ATOM      6  N   UNL     1       7.996  -2.988  24.369  0.00  0.00    -0.287 NA
ATOM      7  C   UNL     1       6.618  -2.458  24.398  0.00  0.00    +0.100 C 
ATOM      8  C   UNL     1       5.582  -3.257  23.555  0.00  0.00    +0.100 C 
ATOM      9  N   UNL     1       5.644  -4.730  23.723  0.00  0.00    -0.295 NA
ATOM     10  C   UNL     1       7.043  -5.215  23.664  0.00  0.00    +0.113 C 
BRANCH   5  13
ATOM     11  N   UNL     1       6.387  -5.513  26.400  0.00  0.00    -0.309 N 
ATOM     12  H   UNL     1       5.973  -5.904  25.554  0.00  0.00    +0.149 HD
ATOM     13  C   UNL     1       7.493  -4.702  26.184  0.00  0.00    +0.232 C 
ATOM     14  O   UNL     1       8.090  -4.156  27.110  0.00  0.00    -0.274 OA
BRANCH  11  16
ATOM     15  C   UNL     1       5.087  -4.496  28.277  0.00  0.00    +0.031 C 
ATOM     16  C   UNL     1       5.705  -5.775  27.686  0.00  0.00    +0.026 C 
ATOM     17  C   UNL     1       4.539  -6.767  27.463  0.00  0.00    +0.031 C 
ATOM     18  C   UNL     1       6.668  -6.410  28.696  0.00  0.00    +0.031 C 
ENDBRANCH  11  16
ENDBRANCH   5  13
BRANCH   9  19
ATOM     19  C   UNL     1       4.771  -5.430  22.772  0.00  0.00    +0.121 C 
BRANCH  19  20
ATOM     20  C   UNL     1       3.515  -5.963  23.420  0.00  0.00    -0.015 A 
ATOM     21  C   UNL     1       3.502  -7.195  24.079  0.00  0.00    +0.008 A 
ATOM     22  C   UNL     1       2.325  -7.678  24.640  0.00  0.00    +0.020 A 
ATOM     23  C   UNL     1       1.188  -6.897  24.536  0.00  0.00    +0.111 A 
ATOM     24  N   UNL     1       1.155  -5.703  23.905  0.00  0.00    -0.263 NA
ATOM     25  C   UNL     1       2.314  -5.267  23.360  0.00  0.00    +0.115 A 
ENDBRANCH  19  20
ENDBRANCH   9  19
ENDBRANCH   4   6
ENDBRANCH   1   4
BRANCH   1  26
ATOM     26  C   UNL     1       9.826  -0.851  24.358  0.00  0.00    +0.045 C 
BRANCH  26  27
ATOM     27  C   UNL     1       9.636   0.654  24.590  0.00  0.00    +0.082 C 
BRANCH  27  28
ATOM     28  C   UNL     1       8.261   0.972  25.202  0.00  0.00    +0.217 C 
ATOM     29  N   UNL     1       8.099   0.824  26.562  0.00  0.00    -0.306 N 
ATOM     30  H   UNL     1       8.855   0.474  27.134  0.00  0.00    +0.149 HD
ATOM     31  O   UNL     1       7.351   1.398  24.490  0.00  0.00    -0.275 OA
BRANCH  29  32
ATOM     32  C   UNL     1       6.917   1.358  27.235  0.00  0.00    +0.132 C 
ATOM     33  C   UNL     1       5.844   0.341  27.480  0.00  0.00    -0.022 A 
ATOM     34  C   UNL     1       5.319   0.438  28.770  0.00  0.00    -0.040 A 
ATOM     35  C   UNL     1       4.188  -0.278  29.140  0.00  0.00    +0.004 A 
ATOM     36  C   UNL     1       3.587  -1.110  28.193  0.00  0.00    +0.000 A 
ATOM     37  C   UNL     1       4.134  -1.236  26.909  0.00  0.00    +0.000 A 
ATOM     38  C   UNL     1       6.081   1.404  29.618  0.00  0.00    +0.069 C 
ATOM     39  C   UNL     1       5.267  -0.507  26.545  0.00  0.00    +0.006 A 
ATOM     40  C   UNL     1       7.192   1.923  28.674  0.00  0.00    +0.143 C 
BRANCH  40  41
ATOM     41  O   UNL     1       7.207   3.357  28.726  0.00  0.00    -0.389 OA
ATOM     42  H   UNL     1       6.775   3.707  27.926  0.00  0.00    +0.210 HD
ENDBRANCH  40  41
ENDBRANCH  29  32
ENDBRANCH  27  28
BRANCH  27  43
ATOM     43  C   UNL     1      10.198   1.658  23.553  0.00  0.00    +0.048 C 
BRANCH  43  44
ATOM     44  C   UNL     1      10.383   3.160  23.652  0.00  0.00    -0.047 A 
ATOM     45  C   UNL     1      11.693   3.632  23.360  0.00  0.00    +0.003 A 
ATOM     46  C   UNL     1      12.028   4.987  23.396  0.00  0.00    +0.000 A 
ATOM     47  C   UNL     1      11.061   5.920  23.735  0.00  0.00    +0.000 A 
ATOM     48  C   UNL     1       9.768   5.483  24.030  0.00  0.00    +0.000 A 
ATOM     49  C   UNL     1       9.420   4.107  23.989  0.00  0.00    +0.003 A 
ENDBRANCH  43  44
ENDBRANCH  27  43
ENDBRANCH  26  27
ENDBRANCH   1  26
TORSDOF 14
ENDMDL
MODEL 5
REMARK VINA RESULT:      -7.3      2.121      5.043
REMARK  Name = 
REMARK  17 active torsions:
REMARK  status: ('A' for Active; 'I' for Inactive)
REMARK    1  A    between atoms: C_1  and  C_2
REMARK    2  A    between atoms: C_2  and  C_3
REMARK    3  A    between atoms: C_2  and  C_4
REMARK    4  A    between atoms: C_2  and  N_5
REMARK    5  A    between atoms: C_6  and  C_8
REMARK    6  A    between atoms: N_10  and  C_41
REMARK    7  A    between atoms: N_13  and  C_14
REMARK    8  A    between atoms: C_14  and  C_15
REMARK    9  A    between atoms: C_15  and  C_16
REMARK   10  A    between atoms: C_15  and  O_40
REMARK   11  A    between atoms: C_16  and  C_17
REMARK   12  A    between atoms: C_17  and  C_19
REMARK   13  A    between atoms: C_17  and  C_26
REMARK   14  A    between atoms: C_19  and  C_20
REMARK   15  A    between atoms: N_28  and  C_29
REMARK   16  A    between atoms: C_31  and  O_39
REMARK   17  A    between atoms: C_41  and  C_42
REMARK                            x       y       z     vdW  Elec       q    Type
REMARK                         _______ _______ _______ _____ _____    ______ ____
ROOT
ATOM      1  C   UNL     1       4.550   0.845  26.711  0.00  0.00    +0.129 C 
ENDROOT
BRANCH   1   2
ATOM      2  O   UNL     1       3.663   1.355  27.715  0.00  0.00    -0.391 OA
ATOM      3  H   UNL     1       3.765   2.322  27.769  0.00  0.00    +0.210 HD
ENDBRANCH   1   2
BRANCH   1   4
ATOM      4  C   UNL     1       5.291   2.036  26.031  0.00  0.00    +0.116 C 
BRANCH   4   6
ATOM      5  C   UNL     1       7.662   1.895  25.315  0.00  0.00    +0.157 C 
ATOM      6  N   UNL     1       6.224   1.657  24.941  0.00  0.00    -0.287 NA
ATOM      7  C   UNL     1       5.942   2.421  23.708  0.00  0.00    +0.100 C 
ATOM      8  C   UNL     1       6.368   3.918  23.745  0.00  0.00    +0.100 C 
ATOM      9  N   UNL     1       7.726   4.166  24.288  0.00  0.00    -0.295 NA
ATOM     10  C   UNL     1       7.952   3.397  25.534  0.00  0.00    +0.113 C 
BRANCH   5  13
ATOM     11  N   UNL     1       8.191   0.077  23.615  0.00  0.00    -0.309 N 
ATOM     12  H   UNL     1       7.250  -0.217  23.877  0.00  0.00    +0.149 HD
ATOM     13  C   UNL     1       8.638   1.227  24.254  0.00  0.00    +0.232 C 
ATOM     14  O   UNL     1       9.755   1.695  24.043  0.00  0.00    -0.274 OA
BRANCH  11  16
ATOM     15  C   UNL     1       9.494  -0.022  21.485  0.00  0.00    +0.031 C 
ATOM     16  C   UNL     1       8.959  -0.797  22.701  0.00  0.00    +0.026 C 
ATOM     17  C   UNL     1      10.192  -1.366  23.442  0.00  0.00    +0.031 C 
ATOM     18  C   UNL     1       8.106  -1.984  22.237  0.00  0.00    +0.031 C 
ENDBRANCH  11  16
ENDBRANCH   5  13
BRANCH   9  19
ATOM     19  C   UNL     1       7.995   5.601  24.463  0.00  0.00    +0.121 C 
BRANCH  19  20
ATOM     20  C   UNL     1       9.471   5.911  24.527  0.00  0.00    -0.015 A 
ATOM     21  C   UNL     1      10.378   5.330  23.636  0.00  0.00    +0.008 A 
ATOM     22  C   UNL     1      11.736   5.608  23.737  0.00  0.00    +0.020 A 
ATOM     23  C   UNL     1      12.149   6.480  24.727  0.00  0.00    +0.111 A 
ATOM     24  N   UNL     1      11.309   7.062  25.611  0.00  0.00    -0.263 NA
ATOM     25  C   UNL     1       9.995   6.761  25.493  0.00  0.00    +0.115 A 
ENDBRANCH  19  20
ENDBRANCH   9  19
ENDBRANCH   4   6
ENDBRANCH   1   4
BRANCH   1  26
ATOM     26  C   UNL     1       5.534  -0.162  27.320  0.00  0.00    +0.045 C 
BRANCH  26  27
ATOM     27  C   UNL     1       5.104  -1.632  27.233  0.00  0.00    +0.082 C 
BRANCH  27  28
ATOM     28  C   UNL     1       6.200  -2.514  26.609  0.00  0.00    +0.217 C 
ATOM     29  N   UNL     1       6.399  -3.775  27.125  0.00  0.00    -0.306 N 
ATOM     30  H   UNL     1       5.867  -4.094  27.922  0.00  0.00    +0.149 HD
ATOM     31  O   UNL     1       6.840  -2.109  25.637  0.00  0.00    -0.275 OA
BRANCH  29  32
ATOM     32  C   UNL     1       7.228  -4.748  26.415  0.00  0.00    +0.132 C 
ATOM     33  C   UNL     1       6.735  -5.079  25.039  0.00  0.00    -0.022 A 
ATOM     34  C   UNL     1       7.773  -5.099  24.105  0.00  0.00    -0.040 A 
ATOM     35  C   UNL     1       7.568  -5.570  22.815  0.00  0.00    +0.004 A 
ATOM     36  C   UNL     1       6.293  -6.018  22.464  0.00  0.00    +0.000 A 
ATOM     37  C   UNL     1       5.242  -5.965  23.389  0.00  0.00    +0.000 A 
ATOM     38  C   UNL     1       9.062  -4.614  24.685  0.00  0.00    +0.069 C 
ATOM     39  C   UNL     1       5.460  -5.496  24.686  0.00  0.00    +0.006 A 
ATOM     40  C   UNL     1       8.701  -4.272  26.150  0.00  0.00    +0.143 C 
BRANCH  40  41
ATOM     41  O   UNL     1       9.660  -4.892  27.018  0.00  0.00    -0.389 OA
ATOM     42  H   UNL     1       9.352  -4.813  27.938  0.00  0.00    +0.210 HD
ENDBRANCH  40  41
ENDBRANCH  29  32
ENDBRANCH  27  28
BRANCH  27  43
ATOM     43  C   UNL     1       3.635  -1.973  26.881  0.00  0.00    +0.048 C 
BRANCH  43  44
ATOM     44  C   UNL     1       3.001  -3.308  26.539  0.00  0.00    -0.047 A 
ATOM     45  C   UNL     1       2.437  -3.396  25.235  0.00  0.00    +0.003 A 
ATOM     46  C   UNL     1       1.825  -4.558  24.760  0.00  0.00    +0.000 A 
ATOM     47  C   UNL     1       1.748  -5.673  25.578  0.00  0.00    +0.000 A 
ATOM     48  C   UNL     1       2.290  -5.612  26.864  0.00  0.00    +0.000 A 
ATOM     49  C   UNL     1       2.920  -4.435  27.350  0.00  0.00    +0.003 A 
ENDBRANCH  43  44
ENDBRANCH  27  43
ENDBRANCH  26  27
ENDBRANCH   1  26
TORSDOF 14
ENDMDL
MODEL 6
REMARK VINA RESULT:      -7.1      2.276      8.961
REMARK  Name = 
REMARK  17 active torsions:
REMARK  status: ('A' for Active; 'I' for Inactive)
REMARK    1  A    between atoms: C_1  and  C_2
REMARK    2  A    between atoms: C_2  and  C_3
REMARK    3  A    between atoms: C_2  and  C_4
REMARK    4  A    between atoms: C_2  and  N_5
REMARK    5  A    between atoms: C_6  and  C_8
REMARK    6  A    between atoms: N_10  and  C_41
REMARK    7  A    between atoms: N_13  and  C_14
REMARK    8  A    between atoms: C_14  and  C_15
REMARK    9  A    between atoms: C_15  and  C_16
REMARK   10  A    between atoms: C_15  and  O_40
REMARK   11  A    between atoms: C_16  and  C_17
REMARK   12  A    between atoms: C_17  and  C_19
REMARK   13  A    between atoms: C_17  and  C_26
REMARK   14  A    between atoms: C_19  and  C_20
REMARK   15  A    between atoms: N_28  and  C_29
REMARK   16  A    between atoms: C_31  and  O_39
REMARK   17  A    between atoms: C_41  and  C_42
REMARK                            x       y       z     vdW  Elec       q    Type
REMARK                         _______ _______ _______ _____ _____    ______ ____
ROOT
ATOM      1  C   UNL     1       9.319  -1.606  22.937  0.00  0.00    +0.129 C 
ENDROOT
BRANCH   1   2
ATOM      2  O   UNL     1      10.079  -1.810  21.738  0.00  0.00    -0.391 OA
ATOM      3  H   UNL     1      10.600  -1.009  21.552  0.00  0.00    +0.210 HD
ENDBRANCH   1   2
BRANCH   1   4
ATOM      4  C   UNL     1       9.145  -2.970  23.671  0.00  0.00    +0.116 C 
BRANCH   4   6
ATOM      5  C   UNL     1       6.722  -3.132  24.174  0.00  0.00    +0.157 C 
ATOM      6  N   UNL     1       7.876  -3.684  23.382  0.00  0.00    -0.287 NA
ATOM      7  C   UNL     1       7.992  -5.124  23.688  0.00  0.00    +0.100 C 
ATOM      8  C   UNL     1       8.012  -5.479  25.203  0.00  0.00    +0.100 C 
ATOM      9  N   UNL     1       6.981  -4.790  26.018  0.00  0.00    -0.295 NA
ATOM     10  C   UNL     1       6.919  -3.346  25.691  0.00  0.00    +0.113 C 
BRANCH   5  13
ATOM     11  N   UNL     1       4.544  -4.390  24.559  0.00  0.00    -0.309 N 
ATOM     12  H   UNL     1       4.915  -4.417  25.509  0.00  0.00    +0.149 HD
ATOM     13  C   UNL     1       5.343  -3.720  23.643  0.00  0.00    +0.232 C 
ATOM     14  O   UNL     1       5.027  -3.614  22.459  0.00  0.00    -0.274 OA
BRANCH  11  16
ATOM     15  C   UNL     1       2.105  -4.193  24.049  0.00  0.00    +0.031 C 
ATOM     16  C   UNL     1       3.297  -5.137  24.283  0.00  0.00    +0.026 C 
ATOM     17  C   UNL     1       3.465  -5.967  22.989  0.00  0.00    +0.031 C 
ATOM     18  C   UNL     1       2.981  -6.112  25.424  0.00  0.00    +0.031 C 
ENDBRANCH  11  16
ENDBRANCH   5  13
BRANCH   9  19
ATOM     19  C   UNL     1       7.168  -5.028  27.456  0.00  0.00    +0.121 C 
BRANCH  19  20
ATOM     20  C   UNL     1       5.870  -5.325  28.169  0.00  0.00    -0.015 A 
ATOM     21  C   UNL     1       5.545  -6.619  28.583  0.00  0.00    +0.008 A 
ATOM     22  C   UNL     1       4.329  -6.872  29.208  0.00  0.00    +0.020 A 
ATOM     23  C   UNL     1       3.472  -5.807  29.416  0.00  0.00    +0.111 A 
ATOM     24  N   UNL     1       3.744  -4.541  29.030  0.00  0.00    -0.263 NA
ATOM     25  C   UNL     1       4.930  -4.331  28.414  0.00  0.00    +0.115 A 
ENDBRANCH  19  20
ENDBRANCH   9  19
ENDBRANCH   4   6
ENDBRANCH   1   4
BRANCH   1  26
ATOM     26  C   UNL     1       9.996  -0.562  23.834  0.00  0.00    +0.045 C 
BRANCH  26  27
ATOM     27  C   UNL     1       9.404   0.851  23.757  0.00  0.00    +0.082 C 
BRANCH  27  28
ATOM     28  C   UNL     1       7.871   0.825  23.630  0.00  0.00    +0.217 C 
ATOM     29  N   UNL     1       7.123   0.617  24.767  0.00  0.00    -0.306 N 
ATOM     30  H   UNL     1       7.574   0.442  25.654  0.00  0.00    +0.149 HD
ATOM     31  O   UNL     1       7.338   1.040  22.541  0.00  0.00    -0.275 OA
BRANCH  29  32
ATOM     32  C   UNL     1       5.679   0.845  24.762  0.00  0.00    +0.132 C 
ATOM     33  C   UNL     1       5.022   0.618  26.090  0.00  0.00    -0.022 A 
ATOM     34  C   UNL     1       4.114   1.631  26.402  0.00  0.00    -0.040 A 
ATOM     35  C   UNL     1       3.259   1.519  27.490  0.00  0.00    +0.004 A 
ATOM     36  C   UNL     1       3.330   0.368  28.277  0.00  0.00    +0.000 A 
ATOM     37  C   UNL     1       4.266  -0.634  27.986  0.00  0.00    +0.000 A 
ATOM     38  C   UNL     1       4.167   2.758  25.421  0.00  0.00    +0.069 C 
ATOM     39  C   UNL     1       5.117  -0.514  26.887  0.00  0.00    +0.006 A 
ATOM     40  C   UNL     1       5.259   2.319  24.417  0.00  0.00    +0.143 C 
BRANCH  40  41
ATOM     41  O   UNL     1       4.744   2.462  23.085  0.00  0.00    -0.389 OA
ATOM     42  H   UNL     1       5.427   2.181  22.450  0.00  0.00    +0.210 HD
ENDBRANCH  40  41
ENDBRANCH  29  32
ENDBRANCH  27  28
BRANCH  27  43
ATOM     43  C   UNL     1      10.161   1.948  22.968  0.00  0.00    +0.048 C 
BRANCH  43  44
ATOM     44  C   UNL     1      10.450   3.390  23.340  0.00  0.00    -0.047 A 
ATOM     45  C   UNL     1       9.333   4.129  23.819  0.00  0.00    +0.003 A 
ATOM     46  C   UNL     1       9.432   5.466  24.214  0.00  0.00    +0.000 A 
ATOM     47  C   UNL     1      10.654   6.113  24.134  0.00  0.00    +0.000 A 
ATOM     48  C   UNL     1      11.766   5.410  23.663  0.00  0.00    +0.000 A 
ATOM     49  C   UNL     1      11.673   4.050  23.267  0.00  0.00    +0.003 A 
ENDBRANCH  43  44
ENDBRANCH  27  43
ENDBRANCH  26  27
ENDBRANCH   1  26
TORSDOF 14
ENDMDL
MODEL 7
REMARK VINA RESULT:      -7.0      2.209      7.313
REMARK  Name = 
REMARK  17 active torsions:
REMARK  status: ('A' for Active; 'I' for Inactive)
REMARK    1  A    between atoms: C_1  and  C_2
REMARK    2  A    between atoms: C_2  and  C_3
REMARK    3  A    between atoms: C_2  and  C_4
REMARK    4  A    between atoms: C_2  and  N_5
REMARK    5  A    between atoms: C_6  and  C_8
REMARK    6  A    between atoms: N_10  and  C_41
REMARK    7  A    between atoms: N_13  and  C_14
REMARK    8  A    between atoms: C_14  and  C_15
REMARK    9  A    between atoms: C_15  and  C_16
REMARK   10  A    between atoms: C_15  and  O_40
REMARK   11  A    between atoms: C_16  and  C_17
REMARK   12  A    between atoms: C_17  and  C_19
REMARK   13  A    between atoms: C_17  and  C_26
REMARK   14  A    between atoms: C_19  and  C_20
REMARK   15  A    between atoms: N_28  and  C_29
REMARK   16  A    between atoms: C_31  and  O_39
REMARK   17  A    between atoms: C_41  and  C_42
REMARK                            x       y       z     vdW  Elec       q    Type
REMARK                         _______ _______ _______ _____ _____    ______ ____
ROOT
ATOM      1  C   UNL     1       8.087  -0.661  26.508  0.00  0.00    +0.129 C 
ENDROOT
BRANCH   1   2
ATOM      2  O   UNL     1       9.332  -0.057  26.883  0.00  0.00    -0.391 OA
ATOM      3  H   UNL     1       9.264   0.908  26.767  0.00  0.00    +0.210 HD
ENDBRANCH   1   2
BRANCH   1   4
ATOM      4  C   UNL     1       8.232  -2.211  26.564  0.00  0.00    +0.116 C 
BRANCH   4   6
ATOM      5  C   UNL     1       8.384  -3.914  24.768  0.00  0.00    +0.157 C 
ATOM      6  N   UNL     1       7.496  -2.952  25.510  0.00  0.00    -0.287 NA
ATOM      7  C   UNL     1       6.902  -2.028  24.524  0.00  0.00    +0.100 C 
ATOM      8  C   UNL     1       7.914  -1.361  23.547  0.00  0.00    +0.100 C 
ATOM      9  N   UNL     1       8.909  -2.287  22.953  0.00  0.00    -0.295 NA
ATOM     10  C   UNL     1       9.492  -3.177  23.984  0.00  0.00    +0.113 C 
BRANCH   5  13
ATOM     11  N   UNL     1       6.138  -4.778  23.940  0.00  0.00    -0.309 N 
ATOM     12  H   UNL     1       5.806  -4.057  24.581  0.00  0.00    +0.149 HD
ATOM     13  C   UNL     1       7.520  -4.883  23.850  0.00  0.00    +0.232 C 
ATOM     14  O   UNL     1       8.063  -5.713  23.124  0.00  0.00    -0.274 OA
BRANCH  11  16
ATOM     15  C   UNL     1       4.886  -6.934  24.115  0.00  0.00    +0.031 C 
ATOM     16  C   UNL     1       5.129  -5.651  23.301  0.00  0.00    +0.026 C 
ATOM     17  C   UNL     1       3.773  -4.910  23.228  0.00  0.00    +0.031 C 
ATOM     18  C   UNL     1       5.544  -6.007  21.868  0.00  0.00    +0.031 C 
ENDBRANCH  11  16
ENDBRANCH   5  13
BRANCH   9  19
ATOM     19  C   UNL     1       9.939  -1.571  22.188  0.00  0.00    +0.121 C 
BRANCH  19  20
ATOM     20  C   UNL     1      10.103  -0.137  22.635  0.00  0.00    -0.015 A 
ATOM     21  C   UNL     1       9.712   0.929  21.821  0.00  0.00    +0.008 A 
ATOM     22  C   UNL     1       9.903   2.240  22.243  0.00  0.00    +0.020 A 
ATOM     23  C   UNL     1      10.471   2.446  23.487  0.00  0.00    +0.111 A 
ATOM     24  N   UNL     1      10.867   1.445  24.304  0.00  0.00    -0.263 NA
ATOM     25  C   UNL     1      10.677   0.181  23.859  0.00  0.00    +0.115 A 
ENDBRANCH  19  20
ENDBRANCH   9  19
ENDBRANCH   4   6
ENDBRANCH   1   4
BRANCH   1  26
ATOM     26  C   UNL     1       6.951  -0.164  27.412  0.00  0.00    +0.045 C 
BRANCH  26  27
ATOM     27  C   UNL     1       5.542  -0.272  26.814  0.00  0.00    +0.082 C 
BRANCH  27  28
ATOM     28  C   UNL     1       5.092   1.049  26.167  0.00  0.00    +0.217 C 
ATOM     29  N   UNL     1       6.052   1.876  25.627  0.00  0.00    -0.306 N 
ATOM     30  H   UNL     1       7.031   1.639  25.696  0.00  0.00    +0.149 HD
ATOM     31  O   UNL     1       3.893   1.323  26.091  0.00  0.00    -0.275 OA
BRANCH  29  32
ATOM     32  C   UNL     1       5.674   3.000  24.772  0.00  0.00    +0.132 C 
ATOM     33  C   UNL     1       6.818   3.893  24.400  0.00  0.00    -0.022 A 
ATOM     34  C   UNL     1       6.798   4.227  23.044  0.00  0.00    -0.040 A 
ATOM     35  C   UNL     1       7.652   5.195  22.530  0.00  0.00    +0.004 A 
ATOM     36  C   UNL     1       8.542   5.827  23.401  0.00  0.00    +0.000 A 
ATOM     37  C   UNL     1       8.587   5.468  24.754  0.00  0.00    +0.000 A 
ATOM     38  C   UNL     1       5.754   3.467  22.291  0.00  0.00    +0.069 C 
ATOM     39  C   UNL     1       7.721   4.499  25.262  0.00  0.00    +0.006 A 
ATOM     40  C   UNL     1       5.094   2.581  23.374  0.00  0.00    +0.143 C 
BRANCH  40  41
ATOM     41  O   UNL     1       3.669   2.731  23.285  0.00  0.00    -0.389 OA
ATOM     42  H   UNL     1       3.394   2.601  22.360  0.00  0.00    +0.210 HD
ENDBRANCH  40  41
ENDBRANCH  29  32
ENDBRANCH  27  28
BRANCH  27  43
ATOM     43  C   UNL     1       4.465  -1.101  27.554  0.00  0.00    +0.048 C 
BRANCH  43  44
ATOM     44  C   UNL     1       4.021  -2.535  27.338  0.00  0.00    -0.047 A 
ATOM     45  C   UNL     1       2.700  -2.692  26.833  0.00  0.00    +0.003 A 
ATOM     46  C   UNL     1       2.142  -3.945  26.568  0.00  0.00    +0.000 A 
ATOM     47  C   UNL     1       2.887  -5.088  26.808  0.00  0.00    +0.000 A 
ATOM     48  C   UNL     1       4.185  -4.962  27.308  0.00  0.00    +0.000 A 
ATOM     49  C   UNL     1       4.759  -3.690  27.572  0.00  0.00    +0.003 A 
ENDBRANCH  43  44
ENDBRANCH  27  43
ENDBRANCH  26  27
ENDBRANCH   1  26
TORSDOF 14
ENDMDL
MODEL 8
REMARK VINA RESULT:      -6.9      2.632      9.850
REMARK  Name = 
REMARK  17 active torsions:
REMARK  status: ('A' for Active; 'I' for Inactive)
REMARK    1  A    between atoms: C_1  and  C_2
REMARK    2  A    between atoms: C_2  and  C_3
REMARK    3  A    between atoms: C_2  and  C_4
REMARK    4  A    between atoms: C_2  and  N_5
REMARK    5  A    between atoms: C_6  and  C_8
REMARK    6  A    between atoms: N_10  and  C_41
REMARK    7  A    between atoms: N_13  and  C_14
REMARK    8  A    between atoms: C_14  and  C_15
REMARK    9  A    between atoms: C_15  and  C_16
REMARK   10  A    between atoms: C_15  and  O_40
REMARK   11  A    between atoms: C_16  and  C_17
REMARK   12  A    between atoms: C_17  and  C_19
REMARK   13  A    between atoms: C_17  and  C_26
REMARK   14  A    between atoms: C_19  and  C_20
REMARK   15  A    between atoms: N_28  and  C_29
REMARK   16  A    between atoms: C_31  and  O_39
REMARK   17  A    between atoms: C_41  and  C_42
REMARK                            x       y       z     vdW  Elec       q    Type
REMARK                         _______ _______ _______ _____ _____    ______ ____
ROOT
ATOM      1  C   UNL     1       8.750   0.142  21.553  0.00  0.00    +0.129 C 
ENDROOT
BRANCH   1   2
ATOM      2  O   UNL     1      10.156  -0.133  21.582  0.00  0.00    -0.391 OA
ATOM      3  H   UNL     1      10.612   0.591  22.047  0.00  0.00    +0.210 HD
ENDBRANCH   1   2
BRANCH   1   4
ATOM      4  C   UNL     1       8.075  -0.513  22.796  0.00  0.00    +0.116 C 
BRANCH   4   6
ATOM      5  C   UNL     1       6.158  -2.057  23.101  0.00  0.00    +0.157 C 
ATOM      6  N   UNL     1       7.560  -1.888  22.582  0.00  0.00    -0.287 NA
ATOM      7  C   UNL     1       8.416  -2.889  23.250  0.00  0.00    +0.100 C 
ATOM      8  C   UNL     1       8.296  -2.933  24.801  0.00  0.00    +0.100 C 
ATOM      9  N   UNL     1       6.906  -2.915  25.319  0.00  0.00    -0.295 NA
ATOM     10  C   UNL     1       6.095  -1.882  24.634  0.00  0.00    +0.113 C 
BRANCH   5  13
ATOM     11  N   UNL     1       5.158  -4.344  23.591  0.00  0.00    -0.309 N 
ATOM     12  H   UNL     1       5.291  -4.019  24.549  0.00  0.00    +0.149 HD
ATOM     13  C   UNL     1       5.539  -3.436  22.612  0.00  0.00    +0.232 C 
ATOM     14  O   UNL     1       5.442  -3.694  21.413  0.00  0.00    -0.274 OA
BRANCH  11  16
ATOM     15  C   UNL     1       5.559  -6.488  22.371  0.00  0.00    +0.031 C 
ATOM     16  C   UNL     1       4.691  -5.734  23.393  0.00  0.00    +0.026 C 
ATOM     17  C   UNL     1       4.799  -6.513  24.726  0.00  0.00    +0.031 C 
ATOM     18  C   UNL     1       3.221  -5.760  22.957  0.00  0.00    +0.031 C 
ENDBRANCH  11  16
ENDBRANCH   5  13
BRANCH   9  19
ATOM     19  C   UNL     1       6.866  -2.777  26.782  0.00  0.00    +0.121 C 
BRANCH  19  20
ATOM     20  C   UNL     1       6.422  -4.044  27.473  0.00  0.00    -0.015 A 
ATOM     21  C   UNL     1       5.208  -4.113  28.161  0.00  0.00    +0.008 A 
ATOM     22  C   UNL     1       4.837  -5.282  28.815  0.00  0.00    +0.020 A 
ATOM     23  C   UNL     1       5.696  -6.364  28.748  0.00  0.00    +0.111 A 
ATOM     24  N   UNL     1       6.880  -6.341  28.098  0.00  0.00    -0.263 NA
ATOM     25  C   UNL     1       7.216  -5.184  27.481  0.00  0.00    +0.115 A 
ENDBRANCH  19  20
ENDBRANCH   9  19
ENDBRANCH   4   6
ENDBRANCH   1   4
BRANCH   1  26
ATOM     26  C   UNL     1       8.496   1.654  21.502  0.00  0.00    +0.045 C 
BRANCH  26  27
ATOM     27  C   UNL     1       8.153   2.307  22.847  0.00  0.00    +0.082 C 
BRANCH  27  28
ATOM     28  C   UNL     1       6.991   3.307  22.720  0.00  0.00    +0.217 C 
ATOM     29  N   UNL     1       5.926   3.189  23.584  0.00  0.00    -0.306 N 
ATOM     30  H   UNL     1       5.891   2.436  24.256  0.00  0.00    +0.149 HD
ATOM     31  O   UNL     1       7.050   4.221  21.895  0.00  0.00    -0.275 OA
BRANCH  29  32
ATOM     32  C   UNL     1       4.931   4.254  23.693  0.00  0.00    +0.132 C 
ATOM     33  C   UNL     1       3.571   3.870  23.193  0.00  0.00    -0.022 A 
ATOM     34  C   UNL     1       2.560   4.285  24.062  0.00  0.00    -0.040 A 
ATOM     35  C   UNL     1       1.222   4.202  23.699  0.00  0.00    +0.004 A 
ATOM     36  C   UNL     1       0.904   3.685  22.442  0.00  0.00    +0.000 A 
ATOM     37  C   UNL     1       1.916   3.235  21.583  0.00  0.00    +0.000 A 
ATOM     38  C   UNL     1       3.106   4.839  25.338  0.00  0.00    +0.069 C 
ATOM     39  C   UNL     1       3.258   3.329  21.955  0.00  0.00    +0.006 A 
ATOM     40  C   UNL     1       4.639   4.719  25.164  0.00  0.00    +0.143 C 
BRANCH  40  41
ATOM     41  O   UNL     1       5.239   5.982  25.488  0.00  0.00    -0.389 OA
ATOM     42  H   UNL     1       4.754   6.381  26.232  0.00  0.00    +0.210 HD
ENDBRANCH  40  41
ENDBRANCH  29  32
ENDBRANCH  27  28
BRANCH  27  43
ATOM     43  C   UNL     1       9.295   2.670  23.827  0.00  0.00    +0.048 C 
BRANCH  43  44
ATOM     44  C   UNL     1      10.319   3.787  23.759  0.00  0.00    -0.047 A 
ATOM     45  C   UNL     1       9.857   5.062  24.189  0.00  0.00    +0.003 A 
ATOM     46  C   UNL     1      10.677   6.193  24.198  0.00  0.00    +0.000 A 
ATOM     47  C   UNL     1      11.989   6.088  23.768  0.00  0.00    +0.000 A 
ATOM     48  C   UNL     1      12.467   4.848  23.336  0.00  0.00    +0.000 A 
ATOM     49  C   UNL     1      11.640   3.694  23.331  0.00  0.00    +0.003 A 
ENDBRANCH  43  44
ENDBRANCH  27  43
ENDBRANCH  26  27
ENDBRANCH   1  26
TORSDOF 14
ENDMDL
MODEL 9
REMARK VINA RESULT:      -6.9      1.853      4.943
REMARK  Name = 
REMARK  17 active torsions:
REMARK  status: ('A' for Active; 'I' for Inactive)
REMARK    1  A    between atoms: C_1  and  C_2
REMARK    2  A    between atoms: C_2  and  C_3
REMARK    3  A    between atoms: C_2  and  C_4
REMARK    4  A    between atoms: C_2  and  N_5
REMARK    5  A    between atoms: C_6  and  C_8
REMARK    6  A    between atoms: N_10  and  C_41
REMARK    7  A    between atoms: N_13  and  C_14
REMARK    8  A    between atoms: C_14  and  C_15
REMARK    9  A    between atoms: C_15  and  C_16
REMARK   10  A    between atoms: C_15  and  O_40
REMARK   11  A    between atoms: C_16  and  C_17
REMARK   12  A    between atoms: C_17  and  C_19
REMARK   13  A    between atoms: C_17  and  C_26
REMARK   14  A    between atoms: C_19  and  C_20
REMARK   15  A    between atoms: N_28  and  C_29
REMARK   16  A    between atoms: C_31  and  O_39
REMARK   17  A    between atoms: C_41  and  C_42
REMARK                            x       y       z     vdW  Elec       q    Type
REMARK                         _______ _______ _______ _____ _____    ______ ____
ROOT
ATOM      1  C   UNL     1       4.231  -1.540  27.148  0.00  0.00    +0.129 C 
ENDROOT
BRANCH   1   2
ATOM      2  O   UNL     1       2.946  -1.036  26.762  0.00  0.00    -0.391 OA
ATOM      3  H   UNL     1       3.065  -0.189  26.295  0.00  0.00    +0.210 HD
ENDBRANCH   1   2
BRANCH   1   4
ATOM      4  C   UNL     1       5.244  -0.359  27.225  0.00  0.00    +0.116 C 
BRANCH   4   6
ATOM      5  C   UNL     1       7.486   0.481  26.578  0.00  0.00    +0.157 C 
ATOM      6  N   UNL     1       6.310  -0.374  26.192  0.00  0.00    -0.287 NA
ATOM      7  C   UNL     1       5.801   0.110  24.893  0.00  0.00    +0.100 C 
ATOM      8  C   UNL     1       5.548   1.644  24.811  0.00  0.00    +0.100 C 
ATOM      9  N   UNL     1       6.638   2.486  25.361  0.00  0.00    -0.295 NA
ATOM     10  C   UNL     1       7.097   1.973  26.673  0.00  0.00    +0.113 C 
BRANCH   5  13
ATOM     11  N   UNL     1       9.284   1.336  24.994  0.00  0.00    -0.309 N 
ATOM     12  H   UNL     1       8.869   2.229  25.262  0.00  0.00    +0.149 HD
ATOM     13  C   UNL     1       8.712   0.225  25.600  0.00  0.00    +0.232 C 
ATOM     14  O   UNL     1       9.104  -0.917  25.366  0.00  0.00    -0.274 OA
BRANCH  11  16
ATOM     15  C   UNL     1       9.884   0.604  22.681  0.00  0.00    +0.031 C 
ATOM     16  C   UNL     1      10.332   1.349  23.950  0.00  0.00    +0.026 C 
ATOM     17  C   UNL     1      10.626   2.807  23.527  0.00  0.00    +0.031 C 
ATOM     18  C   UNL     1      11.639   0.746  24.481  0.00  0.00    +0.031 C 
ENDBRANCH  11  16
ENDBRANCH   5  13
BRANCH   9  19
ATOM     19  C   UNL     1       6.261   3.905  25.419  0.00  0.00    +0.121 C 
BRANCH  19  20
ATOM     20  C   UNL     1       7.295   4.806  24.786  0.00  0.00    -0.015 A 
ATOM     21  C   UNL     1       8.414   5.244  25.498  0.00  0.00    +0.008 A 
ATOM     22  C   UNL     1       9.334   6.099  24.902  0.00  0.00    +0.020 A 
ATOM     23  C   UNL     1       9.112   6.482  23.592  0.00  0.00    +0.111 A 
ATOM     24  N   UNL     1       8.043   6.086  22.868  0.00  0.00    -0.263 NA
ATOM     25  C   UNL     1       7.160   5.263  23.481  0.00  0.00    +0.115 A 
ENDBRANCH  19  20
ENDBRANCH   9  19
ENDBRANCH   4   6
ENDBRANCH   1   4
BRANCH   1  26
ATOM     26  C   UNL     1       4.137  -2.293  28.482  0.00  0.00    +0.045 C 
BRANCH  26  27
ATOM     27  C   UNL     1       3.834  -3.793  28.367  0.00  0.00    +0.082 C 
BRANCH  27  28
ATOM     28  C   UNL     1       5.036  -4.582  27.821  0.00  0.00    +0.217 C 
ATOM     29  N   UNL     1       5.082  -4.856  26.472  0.00  0.00    -0.306 N 
ATOM     30  H   UNL     1       4.322  -4.583  25.866  0.00  0.00    +0.149 HD
ATOM     31  O   UNL     1       5.955  -4.907  28.573  0.00  0.00    -0.275 OA
BRANCH  29  32
ATOM     32  C   UNL     1       6.308  -5.358  25.854  0.00  0.00    +0.132 C 
ATOM     33  C   UNL     1       6.253  -5.426  24.358  0.00  0.00    -0.022 A 
ATOM     34  C   UNL     1       7.417  -4.929  23.770  0.00  0.00    -0.040 A 
ATOM     35  C   UNL     1       7.654  -5.076  22.410  0.00  0.00    +0.004 A 
ATOM     36  C   UNL     1       6.693  -5.728  21.634  0.00  0.00    +0.000 A 
ATOM     37  C   UNL     1       5.508  -6.195  22.216  0.00  0.00    +0.000 A 
ATOM     38  C   UNL     1       8.331  -4.300  24.772  0.00  0.00    +0.069 C 
ATOM     39  C   UNL     1       5.283  -6.048  23.585  0.00  0.00    +0.006 A 
ATOM     40  C   UNL     1       7.574  -4.465  26.112  0.00  0.00    +0.143 C 
BRANCH  40  41
ATOM     41  O   UNL     1       8.473  -5.024  27.082  0.00  0.00    -0.389 OA
ATOM     42  H   UNL     1       7.958  -5.326  27.852  0.00  0.00    +0.210 HD
ENDBRANCH  40  41
ENDBRANCH  29  32
ENDBRANCH  27  28
BRANCH  27  43
ATOM     43  C   UNL     1       2.424  -4.249  27.918  0.00  0.00    +0.048 C 
BRANCH  43  44
ATOM     44  C   UNL     1       1.963  -4.822  26.591  0.00  0.00    -0.047 A 
ATOM     45  C   UNL     1       1.762  -6.231  26.574  0.00  0.00    +0.003 A 
ATOM     46  C   UNL     1       1.329  -6.913  25.435  0.00  0.00    +0.000 A 
ATOM     47  C   UNL     1       1.089  -6.208  24.267  0.00  0.00    +0.000 A 
ATOM     48  C   UNL     1       1.283  -4.825  24.255  0.00  0.00    +0.000 A 
ATOM     49  C   UNL     1       1.717  -4.125  25.412  0.00  0.00    +0.003 A 
ENDBRANCH  43  44
ENDBRANCH  27  43
ENDBRANCH  26  27
ENDBRANCH   1  26
TORSDOF 14
ENDMDL
