MODEL 1
REMARK VINA RESULT:      -6.8      0.000      0.000
REMARK  Name = 
REMARK  2 active torsions:
REMARK  status: ('A' for Active; 'I' for Inactive)
REMARK    1  A    between atoms: C_1  and  C_2
REMARK    2  A    between atoms: N_12  and  C_13
REMARK                            x       y       z     vdW  Elec       q    Type
REMARK                         _______ _______ _______ _____ _____    ______ ____
ROOT
ATOM      1  C   UNL     1       5.652  -1.812  24.656  0.00  0.00    +0.086 C 
ATOM      2  C   UNL     1       6.774  -1.159  23.877  0.00  0.00    +0.114 A 
ATOM      3  N   UNL     1       7.556  -1.886  22.991  0.00  0.00    -0.263 N 
ATOM      4  C   UNL     1       8.638  -1.276  22.338  0.00  0.00    +0.266 A 
ATOM      5  O   UNL     1       9.389  -1.830  21.533  0.00  0.00    -0.267 OA
ATOM      6  C   UNL     1       8.874   0.147  22.631  0.00  0.00    +0.065 A 
ATOM      7  C   UNL     1       8.023   0.772  23.531  0.00  0.00    +0.078 A 
ATOM      8  C   UNL     1       8.240   2.116  23.847  0.00  0.00    +0.028 A 
ATOM      9  C   UNL     1       9.285   2.824  23.251  0.00  0.00    +0.002 A 
ATOM     10  C   UNL     1      10.125   2.197  22.334  0.00  0.00    +0.001 A 
ATOM     11  C   UNL     1       9.924   0.850  22.023  0.00  0.00    +0.015 A 
ATOM     12  N   UNL     1       6.965   0.098  24.141  0.00  0.00    -0.233 NA
ENDROOT
BRANCH   3  13
ATOM     13  C   UNL     1       7.362  -3.288  22.720  0.00  0.00    +0.069 A 
ATOM     14  C   UNL     1       7.984  -4.320  23.444  0.00  0.00    +0.065 A 
ATOM     15 CL   UNL     1       9.016  -4.024  24.798  0.00  0.00    -0.081 Cl
ATOM     16  C   UNL     1       7.682  -5.664  23.168  0.00  0.00    +0.022 A 
ATOM     17  C   UNL     1       6.730  -5.996  22.204  0.00  0.00    +0.002 A 
ATOM     18  C   UNL     1       6.083  -4.986  21.502  0.00  0.00    +0.002 A 
ATOM     19  C   UNL     1       6.401  -3.648  21.753  0.00  0.00    +0.028 A 
ENDBRANCH   3  13
TORSDOF 1
ENDMDL
MODEL 2
REMARK VINA RESULT:      -6.7      2.277      3.139
REMARK  Name = 
REMARK  2 active torsions:
REMARK  status: ('A' for Active; 'I' for Inactive)
REMARK    1  A    between atoms: C_1  and  C_2
REMARK    2  A    between atoms: N_12  and  C_13
REMARK                            x       y       z     vdW  Elec       q    Type
REMARK                         _______ _______ _______ _____ _____    ______ ____
ROOT
ATOM      1  C   UNL     1       7.203  -3.594  22.476  0.00  0.00    +0.086 C 
ATOM      2  C   UNL     1       7.971  -2.430  23.067  0.00  0.00    +0.114 A 
ATOM      3  N   UNL     1       8.144  -2.301  24.437  0.00  0.00    -0.263 N 
ATOM      4  C   UNL     1       8.794  -1.174  24.965  0.00  0.00    +0.266 A 
ATOM      5  O   UNL     1       9.001  -0.966  26.161  0.00  0.00    -0.267 OA
ATOM      6  C   UNL     1       9.279  -0.175  23.999  0.00  0.00    +0.065 A 
ATOM      7  C   UNL     1       9.052  -0.414  22.651  0.00  0.00    +0.078 A 
ATOM      8  C   UNL     1       9.480   0.531  21.715  0.00  0.00    +0.028 A 
ATOM      9  C   UNL     1      10.143   1.688  22.127  0.00  0.00    +0.002 A 
ATOM     10  C   UNL     1      10.385   1.914  23.480  0.00  0.00    +0.001 A 
ATOM     11  C   UNL     1       9.948   0.982  24.424  0.00  0.00    +0.015 A 
ATOM     12  N   UNL     1       8.398  -1.561  22.202  0.00  0.00    -0.233 NA
ENDROOT
BRANCH   3  13
ATOM     13  C   UNL     1       7.644  -3.251  25.398  0.00  0.00    +0.069 A 
ATOM     14  C   UNL     1       8.341  -4.404  25.798  0.00  0.00    +0.065 A 
ATOM     15 CL   UNL     1       9.924  -4.788  25.222  0.00  0.00    -0.081 Cl
ATOM     16  C   UNL     1       7.818  -5.239  26.799  0.00  0.00    +0.022 A 
ATOM     17  C   UNL     1       6.624  -4.917  27.444  0.00  0.00    +0.002 A 
ATOM     18  C   UNL     1       5.939  -3.762  27.082  0.00  0.00    +0.002 A 
ATOM     19  C   UNL     1       6.440  -2.943  26.066  0.00  0.00    +0.028 A 
ENDBRANCH   3  13
TORSDOF 1
ENDMDL
MODEL 3
REMARK VINA RESULT:      -6.7      2.451      3.353
REMARK  Name = 
REMARK  2 active torsions:
REMARK  status: ('A' for Active; 'I' for Inactive)
REMARK    1  A    between atoms: C_1  and  C_2
REMARK    2  A    between atoms: N_12  and  C_13
REMARK                            x       y       z     vdW  Elec       q    Type
REMARK                         _______ _______ _______ _____ _____    ______ ____
ROOT
ATOM      1  C   UNL     1       7.558  -3.568  22.498  0.00  0.00    +0.086 C 
ATOM      2  C   UNL     1       8.227  -2.341  23.083  0.00  0.00    +0.114 A 
ATOM      3  N   UNL     1       8.336  -2.165  24.455  0.00  0.00    -0.263 N 
ATOM      4  C   UNL     1       8.891  -0.984  24.974  0.00  0.00    +0.266 A 
ATOM      5  O   UNL     1       9.036  -0.731  26.171  0.00  0.00    -0.267 OA
ATOM      6  C   UNL     1       9.351   0.018  23.999  0.00  0.00    +0.065 A 
ATOM      7  C   UNL     1       9.194  -0.272  22.651  0.00  0.00    +0.078 A 
ATOM      8  C   UNL     1       9.599   0.673  21.704  0.00  0.00    +0.028 A 
ATOM      9  C   UNL     1      10.171   1.881  22.107  0.00  0.00    +0.002 A 
ATOM     10  C   UNL     1      10.343   2.159  23.461  0.00  0.00    +0.001 A 
ATOM     11  C   UNL     1       9.928   1.226  24.415  0.00  0.00    +0.015 A 
ATOM     12  N   UNL     1       8.633  -1.470  22.211  0.00  0.00    -0.233 NA
ENDROOT
BRANCH   3  13
ATOM     13  C   UNL     1       7.858  -3.118  25.424  0.00  0.00    +0.069 A 
ATOM     14  C   UNL     1       6.536  -3.157  25.900  0.00  0.00    +0.065 A 
ATOM     15 CL   UNL     1       5.302  -2.092  25.326  0.00  0.00    -0.081 Cl
ATOM     16  C   UNL     1       6.129  -4.168  26.787  0.00  0.00    +0.022 A 
ATOM     17  C   UNL     1       7.015  -5.173  27.175  0.00  0.00    +0.002 A 
ATOM     18  C   UNL     1       8.317  -5.167  26.687  0.00  0.00    +0.002 A 
ATOM     19  C   UNL     1       8.735  -4.147  25.827  0.00  0.00    +0.028 A 
ENDBRANCH   3  13
TORSDOF 1
ENDMDL
MODEL 4
REMARK VINA RESULT:      -6.4      2.125      5.822
REMARK  Name = 
REMARK  2 active torsions:
REMARK  status: ('A' for Active; 'I' for Inactive)
REMARK    1  A    between atoms: C_1  and  C_2
REMARK    2  A    between atoms: N_12  and  C_13
REMARK                            x       y       z     vdW  Elec       q    Type
REMARK                         _______ _______ _______ _____ _____    ______ ____
ROOT
ATOM      1  C   UNL     1       7.534  -1.386  26.614  0.00  0.00    +0.086 C 
ATOM      2  C   UNL     1       7.485  -2.198  25.336  0.00  0.00    +0.114 A 
ATOM      3  N   UNL     1       8.089  -1.748  24.171  0.00  0.00    -0.263 N 
ATOM      4  C   UNL     1       7.965  -2.482  22.981  0.00  0.00    +0.266 A 
ATOM      5  O   UNL     1       8.464  -2.172  21.898  0.00  0.00    -0.267 OA
ATOM      6  C   UNL     1       7.190  -3.731  23.049  0.00  0.00    +0.065 A 
ATOM      7  C   UNL     1       6.635  -4.083  24.272  0.00  0.00    +0.078 A 
ATOM      8  C   UNL     1       5.873  -5.251  24.358  0.00  0.00    +0.028 A 
ATOM      9  C   UNL     1       5.689  -6.062  23.237  0.00  0.00    +0.002 A 
ATOM     10  C   UNL     1       6.263  -5.714  22.016  0.00  0.00    +0.001 A 
ATOM     11  C   UNL     1       7.015  -4.540  21.917  0.00  0.00    +0.015 A 
ATOM     12  N   UNL     1       6.804  -3.301  25.414  0.00  0.00    -0.233 NA
ENDROOT
BRANCH   3  13
ATOM     13  C   UNL     1       8.820  -0.510  24.078  0.00  0.00    +0.069 A 
ATOM     14  C   UNL     1       8.231   0.728  23.769  0.00  0.00    +0.065 A 
ATOM     15 CL   UNL     1       6.531   0.920  23.524  0.00  0.00    -0.081 Cl
ATOM     16  C   UNL     1       9.000   1.903  23.774  0.00  0.00    +0.022 A 
ATOM     17  C   UNL     1      10.349   1.869  24.127  0.00  0.00    +0.002 A 
ATOM     18  C   UNL     1      10.939   0.657  24.467  0.00  0.00    +0.002 A 
ATOM     19  C   UNL     1      10.185  -0.519  24.435  0.00  0.00    +0.028 A 
ENDBRANCH   3  13
TORSDOF 1
ENDMDL
MODEL 5
REMARK VINA RESULT:      -6.4      1.638      5.483
REMARK  Name = 
REMARK  2 active torsions:
REMARK  status: ('A' for Active; 'I' for Inactive)
REMARK    1  A    between atoms: C_1  and  C_2
REMARK    2  A    between atoms: N_12  and  C_13
REMARK                            x       y       z     vdW  Elec       q    Type
REMARK                         _______ _______ _______ _____ _____    ______ ____
ROOT
ATOM      1  C   UNL     1       5.781   0.345  24.815  0.00  0.00    +0.086 C 
ATOM      2  C   UNL     1       6.217  -0.925  24.113  0.00  0.00    +0.114 A 
ATOM      3  N   UNL     1       7.421  -0.994  23.428  0.00  0.00    -0.263 N 
ATOM      4  C   UNL     1       7.767  -2.157  22.722  0.00  0.00    +0.266 A 
ATOM      5  O   UNL     1       8.810  -2.321  22.087  0.00  0.00    -0.267 OA
ATOM      6  C   UNL     1       6.808  -3.272  22.767  0.00  0.00    +0.065 A 
ATOM      7  C   UNL     1       5.637  -3.089  23.490  0.00  0.00    +0.078 A 
ATOM      8  C   UNL     1       4.697  -4.122  23.528  0.00  0.00    +0.028 A 
ATOM      9  C   UNL     1       4.940  -5.327  22.867  0.00  0.00    +0.002 A 
ATOM     10  C   UNL     1       6.125  -5.513  22.158  0.00  0.00    +0.001 A 
ATOM     11  C   UNL     1       7.064  -4.479  22.103  0.00  0.00    +0.015 A 
ATOM     12  N   UNL     1       5.363  -1.902  24.168  0.00  0.00    -0.233 NA
ENDROOT
BRANCH   3  13
ATOM     13  C   UNL     1       8.355   0.100  23.342  0.00  0.00    +0.069 A 
ATOM     14  C   UNL     1       9.289   0.414  24.345  0.00  0.00    +0.065 A 
ATOM     15 CL   UNL     1       9.469  -0.525  25.784  0.00  0.00    -0.081 Cl
ATOM     16  C   UNL     1      10.218   1.450  24.151  0.00  0.00    +0.022 A 
ATOM     17  C   UNL     1      10.259   2.153  22.947  0.00  0.00    +0.002 A 
ATOM     18  C   UNL     1       9.363   1.833  21.934  0.00  0.00    +0.002 A 
ATOM     19  C   UNL     1       8.418   0.823  22.133  0.00  0.00    +0.028 A 
ENDBRANCH   3  13
TORSDOF 1
ENDMDL
MODEL 6
REMARK VINA RESULT:      -6.3      2.436      5.664
REMARK  Name = 
REMARK  2 active torsions:
REMARK  status: ('A' for Active; 'I' for Inactive)
REMARK    1  A    between atoms: C_1  and  C_2
REMARK    2  A    between atoms: N_12  and  C_13
REMARK                            x       y       z     vdW  Elec       q    Type
REMARK                         _______ _______ _______ _____ _____    ______ ____
ROOT
ATOM      1  C   UNL     1       9.089  -0.460  26.093  0.00  0.00    +0.086 C 
ATOM      2  C   UNL     1       8.271  -1.591  25.505  0.00  0.00    +0.114 A 
ATOM      3  N   UNL     1       7.785  -1.531  24.207  0.00  0.00    -0.263 N 
ATOM      4  C   UNL     1       6.966  -2.558  23.710  0.00  0.00    +0.266 A 
ATOM      5  O   UNL     1       6.488  -2.602  22.576  0.00  0.00    -0.267 OA
ATOM      6  C   UNL     1       6.677  -3.676  24.622  0.00  0.00    +0.065 A 
ATOM      7  C   UNL     1       7.223  -3.630  25.897  0.00  0.00    +0.078 A 
ATOM      8  C   UNL     1       6.943  -4.666  26.792  0.00  0.00    +0.028 A 
ATOM      9  C   UNL     1       6.144  -5.743  26.402  0.00  0.00    +0.002 A 
ATOM     10  C   UNL     1       5.614  -5.794  25.116  0.00  0.00    +0.001 A 
ATOM     11  C   UNL     1       5.876  -4.754  24.219  0.00  0.00    +0.015 A 
ATOM     12  N   UNL     1       8.030  -2.574  26.319  0.00  0.00    -0.233 NA
ENDROOT
BRANCH   3  13
ATOM     13  C   UNL     1       8.028  -0.428  23.314  0.00  0.00    +0.069 A 
ATOM     14  C   UNL     1       9.144  -0.336  22.464  0.00  0.00    +0.065 A 
ATOM     15 CL   UNL     1      10.336  -1.582  22.347  0.00  0.00    -0.081 Cl
ATOM     16  C   UNL     1       9.268   0.737  21.565  0.00  0.00    +0.022 A 
ATOM     17  C   UNL     1       8.267   1.703  21.469  0.00  0.00    +0.002 A 
ATOM     18  C   UNL     1       7.142   1.610  22.280  0.00  0.00    +0.002 A 
ATOM     19  C   UNL     1       7.028   0.560  23.196  0.00  0.00    +0.028 A 
ENDBRANCH   3  13
TORSDOF 1
ENDMDL
MODEL 7
REMARK VINA RESULT:      -6.3      2.999      6.231
REMARK  Name = 
REMARK  2 active torsions:
REMARK  status: ('A' for Active; 'I' for Inactive)
REMARK    1  A    between atoms: C_1  and  C_2
REMARK    2  A    between atoms: N_12  and  C_13
REMARK                            x       y       z     vdW  Elec       q    Type
REMARK                         _______ _______ _______ _____ _____    ______ ____
ROOT
ATOM      1  C   UNL     1       7.028  -5.691  21.564  0.00  0.00    +0.086 C 
ATOM      2  C   UNL     1       5.945  -5.083  22.430  0.00  0.00    +0.114 A 
ATOM      3  N   UNL     1       6.199  -3.982  23.236  0.00  0.00    -0.263 N 
ATOM      4  C   UNL     1       5.199  -3.483  24.086  0.00  0.00    +0.266 A 
ATOM      5  O   UNL     1       5.321  -2.513  24.836  0.00  0.00    -0.267 OA
ATOM      6  C   UNL     1       3.898  -4.172  24.058  0.00  0.00    +0.065 A 
ATOM      7  C   UNL     1       3.760  -5.259  23.207  0.00  0.00    +0.078 A 
ATOM      8  C   UNL     1       2.544  -5.947  23.179  0.00  0.00    +0.028 A 
ATOM      9  C   UNL     1       1.477  -5.533  23.979  0.00  0.00    +0.002 A 
ATOM     10  C   UNL     1       1.615  -4.430  24.818  0.00  0.00    +0.001 A 
ATOM     11  C   UNL     1       2.833  -3.745  24.863  0.00  0.00    +0.015 A 
ATOM     12  N   UNL     1       4.801  -5.697  22.389  0.00  0.00    -0.233 NA
ENDROOT
BRANCH   3  13
ATOM     13  C   UNL     1       7.476  -3.319  23.303  0.00  0.00    +0.069 A 
ATOM     14  C   UNL     1       8.500  -3.679  24.197  0.00  0.00    +0.065 A 
ATOM     15 CL   UNL     1       8.366  -5.013  25.286  0.00  0.00    -0.081 Cl
ATOM     16  C   UNL     1       9.746  -3.033  24.147  0.00  0.00    +0.022 A 
ATOM     17  C   UNL     1      10.004  -2.056  23.184  0.00  0.00    +0.002 A 
ATOM     18  C   UNL     1       9.012  -1.712  22.273  0.00  0.00    +0.002 A 
ATOM     19  C   UNL     1       7.761  -2.332  22.337  0.00  0.00    +0.028 A 
ENDBRANCH   3  13
TORSDOF 1
ENDMDL
MODEL 8
REMARK VINA RESULT:      -6.2      2.765      5.986
REMARK  Name = 
REMARK  2 active torsions:
REMARK  status: ('A' for Active; 'I' for Inactive)
REMARK    1  A    between atoms: C_1  and  C_2
REMARK    2  A    between atoms: N_12  and  C_13
REMARK                            x       y       z     vdW  Elec       q    Type
REMARK                         _______ _______ _______ _____ _____    ______ ____
ROOT
ATOM      1  C   UNL     1      10.345  -1.500  22.255  0.00  0.00    +0.086 C 
ATOM      2  C   UNL     1       9.415  -1.911  23.377  0.00  0.00    +0.114 A 
ATOM      3  N   UNL     1       8.525  -1.009  23.943  0.00  0.00    -0.263 N 
ATOM      4  C   UNL     1       7.727  -1.392  25.033  0.00  0.00    +0.266 A 
ATOM      5  O   UNL     1       6.907  -0.672  25.604  0.00  0.00    -0.267 OA
ATOM      6  C   UNL     1       7.878  -2.776  25.512  0.00  0.00    +0.065 A 
ATOM      7  C   UNL     1       8.796  -3.589  24.863  0.00  0.00    +0.078 A 
ATOM      8  C   UNL     1       8.977  -4.899  25.314  0.00  0.00    +0.028 A 
ATOM      9  C   UNL     1       8.231  -5.389  26.387  0.00  0.00    +0.002 A 
ATOM     10  C   UNL     1       7.297  -4.575  27.023  0.00  0.00    +0.001 A 
ATOM     11  C   UNL     1       7.120  -3.258  26.588  0.00  0.00    +0.015 A 
ATOM     12  N   UNL     1       9.554  -3.136  23.784  0.00  0.00    -0.233 NA
ENDROOT
BRANCH   3  13
ATOM     13  C   UNL     1       8.391   0.359  23.512  0.00  0.00    +0.069 A 
ATOM     14  C   UNL     1       9.313   1.374  23.823  0.00  0.00    +0.065 A 
ATOM     15 CL   UNL     1      10.762   1.080  24.717  0.00  0.00    -0.081 Cl
ATOM     16  C   UNL     1       9.151   2.667  23.298  0.00  0.00    +0.022 A 
ATOM     17  C   UNL     1       8.101   2.954  22.426  0.00  0.00    +0.002 A 
ATOM     18  C   UNL     1       7.200   1.954  22.083  0.00  0.00    +0.002 A 
ATOM     19  C   UNL     1       7.339   0.673  22.626  0.00  0.00    +0.028 A 
ENDBRANCH   3  13
TORSDOF 1
ENDMDL
MODEL 9
REMARK VINA RESULT:      -6.2      2.480      5.947
REMARK  Name = 
REMARK  2 active torsions:
REMARK  status: ('A' for Active; 'I' for Inactive)
REMARK    1  A    between atoms: C_1  and  C_2
REMARK    2  A    between atoms: N_12  and  C_13
REMARK                            x       y       z     vdW  Elec       q    Type
REMARK                         _______ _______ _______ _____ _____    ______ ____
ROOT
ATOM      1  C   UNL     1       8.684  -2.035  25.678  0.00  0.00    +0.086 C 
ATOM      2  C   UNL     1       7.704  -2.876  24.887  0.00  0.00    +0.114 A 
ATOM      3  N   UNL     1       7.337  -2.531  23.594  0.00  0.00    -0.263 N 
ATOM      4  C   UNL     1       6.369  -3.284  22.910  0.00  0.00    +0.266 A 
ATOM      5  O   UNL     1       5.976  -3.065  21.763  0.00  0.00    -0.267 OA
ATOM      6  C   UNL     1       5.798  -4.438  23.623  0.00  0.00    +0.065 A 
ATOM      7  C   UNL     1       6.248  -4.688  24.912  0.00  0.00    +0.078 A 
ATOM      8  C   UNL     1       5.703  -5.762  25.622  0.00  0.00    +0.028 A 
ATOM      9  C   UNL     1       4.738  -6.583  25.036  0.00  0.00    +0.002 A 
ATOM     10  C   UNL     1       4.304  -6.338  23.735  0.00  0.00    +0.001 A 
ATOM     11  C   UNL     1       4.832  -5.257  23.024  0.00  0.00    +0.015 A 
ATOM     12  N   UNL     1       7.215  -3.894  25.527  0.00  0.00    -0.233 NA
ENDROOT
BRANCH   3  13
ATOM     13  C   UNL     1       7.858  -1.385  22.895  0.00  0.00    +0.069 A 
ATOM     14  C   UNL     1       7.350  -0.082  23.037  0.00  0.00    +0.065 A 
ATOM     15 CL   UNL     1       6.068   0.310  24.127  0.00  0.00    -0.081 Cl
ATOM     16  C   UNL     1       7.964   0.997  22.378  0.00  0.00    +0.022 A 
ATOM     17  C   UNL     1       9.112   0.800  21.609  0.00  0.00    +0.002 A 
ATOM     18  C   UNL     1       9.645  -0.477  21.485  0.00  0.00    +0.002 A 
ATOM     19  C   UNL     1       9.020  -1.558  22.115  0.00  0.00    +0.028 A 
ENDBRANCH   3  13
TORSDOF 1
ENDMDL
