MODEL 1
REMARK VINA RESULT:      -5.7      0.000      0.000
REMARK  Name = 
REMARK  13 active torsions:
REMARK  status: ('A' for Active; 'I' for Inactive)
REMARK    1  A    between atoms: C_1  and  C_2
REMARK    2  A    between atoms: C_2  and  C_3
REMARK    3  A    between atoms: C_3  and  C_4
REMARK    4  A    between atoms: C_3  and  O_6
REMARK    5  A    between atoms: C_4  and  C_5
REMARK    6  A    between atoms: O_6  and  C_7
REMARK    7  A    between atoms: C_10  and  C_21
REMARK    8  A    between atoms: C_12  and  N_20
REMARK    9  A    between atoms: C_14  and  N_16
REMARK   10  A    between atoms: C_17  and  C_19
REMARK   11  A    between atoms: C_21  and  O_23
REMARK   12  A    between atoms: O_23  and  C_24
REMARK   13  A    between atoms: C_24  and  C_25
REMARK                            x       y       z     vdW  Elec       q    Type
REMARK                         _______ _______ _______ _____ _____    ______ ____
ROOT
ATOM      1  C   UNL     1       9.278   2.136  21.951  0.00  0.00    +0.164 C 
ATOM      2  C   UNL     1       9.898   2.673  23.279  0.00  0.00    +0.122 C 
ATOM      3  C   UNL     1       9.971   1.681  24.471  0.00  0.00    +0.078 C 
ATOM      4  C   UNL     1      10.088   0.192  24.115  0.00  0.00    +0.062 C 
ATOM      5  C   UNL     1       9.614  -0.229  22.759  0.00  0.00    +0.037 C 
ATOM      6  C   UNL     1       9.236   0.641  21.810  0.00  0.00    +0.016 C 
ENDROOT
BRANCH   2   7
ATOM      7  N   UNL     1      11.163   3.397  23.070  0.00  0.00    -0.308 N 
ATOM      8  H   UNL     1      11.881   2.920  22.540  0.00  0.00    +0.149 HD
ATOM      9  C   UNL     1      11.370   4.697  23.449  0.00  0.00    +0.210 C 
ATOM     10  C   UNL     1      12.740   5.224  23.115  0.00  0.00    +0.109 C 
ATOM     11  O   UNL     1      10.527   5.376  24.025  0.00  0.00    -0.276 OA
ENDBRANCH   2   7
BRANCH   3  12
ATOM     12  N   UNL     1       8.826   1.905  25.388  0.00  0.00    -0.325 NA
ATOM     13  H   UNL     1       9.147   1.815  26.353  0.00  0.00    +0.119 HD
ATOM     14  H   UNL     1       8.507   2.870  25.290  0.00  0.00    +0.119 HD
ENDBRANCH   3  12
BRANCH   5  15
ATOM     15  C   UNL     1       9.694  -1.704  22.539  0.00  0.00    +0.335 C 
ATOM     16  O   UNL     1      10.690  -2.357  22.826  0.00  0.00    -0.245 OA
BRANCH  15  17
ATOM     17  O   UNL     1       8.606  -2.178  21.885  0.00  0.00    -0.462 OA
BRANCH  17  18
ATOM     18  C   UNL     1       7.698  -2.934  22.700  0.00  0.00    +0.229 C 
ATOM     19  C   UNL     1       6.411  -2.138  22.815  0.00  0.00    +0.048 C 
ENDBRANCH  17  18
ENDBRANCH  15  17
ENDBRANCH   5  15
BRANCH   1  20
ATOM     20  O   UNL     1       7.927   2.566  21.719  0.00  0.00    -0.367 OA
BRANCH  20  21
ATOM     21  C   UNL     1       7.309   3.456  22.660  0.00  0.00    +0.119 C 
BRANCH  21  23
ATOM     22  C   UNL     1       7.133   5.938  23.268  0.00  0.00    +0.006 C 
ATOM     23  C   UNL     1       7.248   4.908  22.153  0.00  0.00    +0.028 C 
ENDBRANCH  21  23
BRANCH  21  24
ATOM     24  C   UNL     1       5.913   2.882  22.958  0.00  0.00    +0.028 C 
ATOM     25  C   UNL     1       5.988   1.541  23.686  0.00  0.00    +0.006 C 
ENDBRANCH  21  24
ENDBRANCH  20  21
ENDBRANCH   1  20
TORSDOF 9
ENDMDL
MODEL 2
REMARK VINA RESULT:      -5.6      4.160      8.223
REMARK  Name = 
REMARK  13 active torsions:
REMARK  status: ('A' for Active; 'I' for Inactive)
REMARK    1  A    between atoms: C_1  and  C_2
REMARK    2  A    between atoms: C_2  and  C_3
REMARK    3  A    between atoms: C_3  and  C_4
REMARK    4  A    between atoms: C_3  and  O_6
REMARK    5  A    between atoms: C_4  and  C_5
REMARK    6  A    between atoms: O_6  and  C_7
REMARK    7  A    between atoms: C_10  and  C_21
REMARK    8  A    between atoms: C_12  and  N_20
REMARK    9  A    between atoms: C_14  and  N_16
REMARK   10  A    between atoms: C_17  and  C_19
REMARK   11  A    between atoms: C_21  and  O_23
REMARK   12  A    between atoms: O_23  and  C_24
REMARK   13  A    between atoms: C_24  and  C_25
REMARK                            x       y       z     vdW  Elec       q    Type
REMARK                         _______ _______ _______ _____ _____    ______ ____
ROOT
ATOM      1  C   UNL     1       6.833  -3.722  24.498  0.00  0.00    +0.164 C 
ATOM      2  C   UNL     1       7.523  -4.769  25.429  0.00  0.00    +0.122 C 
ATOM      3  C   UNL     1       9.069  -4.873  25.341  0.00  0.00    +0.078 C 
ATOM      4  C   UNL     1       9.819  -3.598  24.930  0.00  0.00    +0.062 C 
ATOM      5  C   UNL     1       9.049  -2.564  24.170  0.00  0.00    +0.037 C 
ATOM      6  C   UNL     1       7.724  -2.637  23.965  0.00  0.00    +0.016 C 
ENDROOT
BRANCH   2   7
ATOM      7  N   UNL     1       7.040  -4.707  26.819  0.00  0.00    -0.308 N 
ATOM      8  H   UNL     1       7.294  -3.888  27.356  0.00  0.00    +0.149 HD
ATOM      9  C   UNL     1       6.188  -5.626  27.372  0.00  0.00    +0.210 C 
ATOM     10  C   UNL     1       5.824  -5.343  28.804  0.00  0.00    +0.109 C 
ATOM     11  O   UNL     1       5.767  -6.607  26.769  0.00  0.00    -0.276 OA
ENDBRANCH   2   7
BRANCH   3  12
ATOM     12  N   UNL     1       9.451  -6.005  24.461  0.00  0.00    -0.325 NA
ATOM     13  H   UNL     1       9.659  -6.823  25.036  0.00  0.00    +0.119 HD
ATOM     14  H   UNL     1       8.648  -6.265  23.887  0.00  0.00    +0.119 HD
ENDBRANCH   3  12
BRANCH   5  15
ATOM     15  C   UNL     1       9.884  -1.401  23.746  0.00  0.00    +0.335 C 
ATOM     16  O   UNL     1      10.383  -1.325  22.630  0.00  0.00    -0.245 OA
BRANCH  15  17
ATOM     17  O   UNL     1      10.112  -0.541  24.769  0.00  0.00    -0.462 OA
BRANCH  17  18
ATOM     18  C   UNL     1      10.854   0.634  24.409  0.00  0.00    +0.229 C 
ATOM     19  C   UNL     1       9.866   1.780  24.284  0.00  0.00    +0.048 C 
ENDBRANCH  17  18
ENDBRANCH  15  17
ENDBRANCH   5  15
BRANCH   1  20
ATOM     20  O   UNL     1       6.210  -4.292  23.336  0.00  0.00    -0.367 OA
BRANCH  20  21
ATOM     21  C   UNL     1       5.990  -5.709  23.289  0.00  0.00    +0.119 C 
BRANCH  21  23
ATOM     22  C   UNL     1       3.569  -4.882  23.401  0.00  0.00    +0.006 C 
ATOM     23  C   UNL     1       4.497  -6.079  23.248  0.00  0.00    +0.028 C 
ENDBRANCH  21  23
BRANCH  21  24
ATOM     24  C   UNL     1       6.756  -6.233  22.062  0.00  0.00    +0.028 C 
ATOM     25  C   UNL     1       6.167  -5.712  20.752  0.00  0.00    +0.006 C 
ENDBRANCH  21  24
ENDBRANCH  20  21
ENDBRANCH   1  20
TORSDOF 9
ENDMDL
MODEL 3
REMARK VINA RESULT:      -5.6      2.987      4.761
REMARK  Name = 
REMARK  13 active torsions:
REMARK  status: ('A' for Active; 'I' for Inactive)
REMARK    1  A    between atoms: C_1  and  C_2
REMARK    2  A    between atoms: C_2  and  C_3
REMARK    3  A    between atoms: C_3  and  C_4
REMARK    4  A    between atoms: C_3  and  O_6
REMARK    5  A    between atoms: C_4  and  C_5
REMARK    6  A    between atoms: O_6  and  C_7
REMARK    7  A    between atoms: C_10  and  C_21
REMARK    8  A    between atoms: C_12  and  N_20
REMARK    9  A    between atoms: C_14  and  N_16
REMARK   10  A    between atoms: C_17  and  C_19
REMARK   11  A    between atoms: C_21  and  O_23
REMARK   12  A    between atoms: O_23  and  C_24
REMARK   13  A    between atoms: C_24  and  C_25
REMARK                            x       y       z     vdW  Elec       q    Type
REMARK                         _______ _______ _______ _____ _____    ______ ____
ROOT
ATOM      1  C   UNL     1       9.177  -1.248  24.911  0.00  0.00    +0.164 C 
ATOM      2  C   UNL     1       7.755  -0.614  25.037  0.00  0.00    +0.122 C 
ATOM      3  C   UNL     1       6.590  -1.363  24.336  0.00  0.00    +0.078 C 
ATOM      4  C   UNL     1       6.743  -2.884  24.191  0.00  0.00    +0.062 C 
ATOM      5  C   UNL     1       8.132  -3.441  24.235  0.00  0.00    +0.037 C 
ATOM      6  C   UNL     1       9.211  -2.702  24.537  0.00  0.00    +0.016 C 
ENDROOT
BRANCH   2   7
ATOM      7  N   UNL     1       7.423  -0.217  26.415  0.00  0.00    -0.308 N 
ATOM      8  H   UNL     1       7.369  -0.956  27.104  0.00  0.00    +0.149 HD
ATOM      9  C   UNL     1       7.300   1.084  26.826  0.00  0.00    +0.210 C 
ATOM     10  C   UNL     1       6.970   1.239  28.286  0.00  0.00    +0.109 C 
ATOM     11  O   UNL     1       7.428   2.045  26.076  0.00  0.00    -0.276 OA
ENDBRANCH   2   7
BRANCH   3  12
ATOM     12  N   UNL     1       6.308  -0.743  23.018  0.00  0.00    -0.325 NA
ATOM     13  H   UNL     1       5.510  -1.215  22.590  0.00  0.00    +0.119 HD
ATOM     14  H   UNL     1       6.015   0.224  23.163  0.00  0.00    +0.119 HD
ENDBRANCH   3  12
BRANCH   5  15
ATOM     15  C   UNL     1       8.183  -4.915  24.004  0.00  0.00    +0.335 C 
ATOM     16  O   UNL     1       9.164  -5.590  24.290  0.00  0.00    -0.245 OA
BRANCH  15  17
ATOM     17  O   UNL     1       7.089  -5.362  23.341  0.00  0.00    -0.462 OA
BRANCH  17  18
ATOM     18  C   UNL     1       7.361  -5.935  22.053  0.00  0.00    +0.229 C 
ATOM     19  C   UNL     1       6.089  -5.842  21.231  0.00  0.00    +0.048 C 
ENDBRANCH  17  18
ENDBRANCH  15  17
ENDBRANCH   5  15
BRANCH   1  20
ATOM     20  O   UNL     1      10.025  -0.599  23.951  0.00  0.00    -0.367 OA
BRANCH  20  21
ATOM     21  C   UNL     1       9.650   0.693  23.451  0.00  0.00    +0.119 C 
BRANCH  21  23
ATOM     22  C   UNL     1       9.933   3.222  23.740  0.00  0.00    +0.006 C 
ATOM     23  C   UNL     1      10.451   1.837  24.098  0.00  0.00    +0.028 C 
ENDBRANCH  21  23
BRANCH  21  24
ATOM     24  C   UNL     1       9.829   0.644  21.924  0.00  0.00    +0.028 C 
ATOM     25  C   UNL     1       9.477  -0.726  21.348  0.00  0.00    +0.006 C 
ENDBRANCH  21  24
ENDBRANCH  20  21
ENDBRANCH   1  20
TORSDOF 9
ENDMDL
MODEL 4
REMARK VINA RESULT:      -5.5      3.356      6.100
REMARK  Name = 
REMARK  13 active torsions:
REMARK  status: ('A' for Active; 'I' for Inactive)
REMARK    1  A    between atoms: C_1  and  C_2
REMARK    2  A    between atoms: C_2  and  C_3
REMARK    3  A    between atoms: C_3  and  C_4
REMARK    4  A    between atoms: C_3  and  O_6
REMARK    5  A    between atoms: C_4  and  C_5
REMARK    6  A    between atoms: O_6  and  C_7
REMARK    7  A    between atoms: C_10  and  C_21
REMARK    8  A    between atoms: C_12  and  N_20
REMARK    9  A    between atoms: C_14  and  N_16
REMARK   10  A    between atoms: C_17  and  C_19
REMARK   11  A    between atoms: C_21  and  O_23
REMARK   12  A    between atoms: O_23  and  C_24
REMARK   13  A    between atoms: C_24  and  C_25
REMARK                            x       y       z     vdW  Elec       q    Type
REMARK                         _______ _______ _______ _____ _____    ______ ____
ROOT
ATOM      1  C   UNL     1       7.337  -1.636  25.195  0.00  0.00    +0.164 C 
ATOM      2  C   UNL     1       8.613  -1.092  24.477  0.00  0.00    +0.122 C 
ATOM      3  C   UNL     1       9.076  -1.848  23.203  0.00  0.00    +0.078 C 
ATOM      4  C   UNL     1       7.983  -2.558  22.392  0.00  0.00    +0.062 C 
ATOM      5  C   UNL     1       6.718  -2.914  23.111  0.00  0.00    +0.037 C 
ATOM      6  C   UNL     1       6.448  -2.516  24.364  0.00  0.00    +0.016 C 
ENDROOT
BRANCH   2   7
ATOM      7  N   UNL     1       8.587   0.368  24.288  0.00  0.00    -0.308 N 
ATOM      8  H   UNL     1       7.694   0.783  24.050  0.00  0.00    +0.149 HD
ATOM      9  C   UNL     1       9.657   1.188  24.526  0.00  0.00    +0.210 C 
ATOM     10  C   UNL     1       9.383   2.646  24.276  0.00  0.00    +0.109 C 
ATOM     11  O   UNL     1      10.753   0.779  24.894  0.00  0.00    -0.276 OA
ENDBRANCH   2   7
BRANCH   3  12
ATOM     12  N   UNL     1      10.166  -2.796  23.544  0.00  0.00    -0.325 NA
ATOM     13  H   UNL     1      10.932  -2.283  23.983  0.00  0.00    +0.119 HD
ATOM     14  H   UNL     1       9.827  -3.450  24.251  0.00  0.00    +0.119 HD
ENDBRANCH   3  12
BRANCH   5  15
ATOM     15  C   UNL     1       5.752  -3.671  22.262  0.00  0.00    +0.335 C 
ATOM     16  O   UNL     1       4.596  -3.879  22.610  0.00  0.00    -0.245 OA
BRANCH  15  17
ATOM     17  O   UNL     1       6.344  -4.189  21.158  0.00  0.00    -0.462 OA
BRANCH  17  18
ATOM     18  C   UNL     1       6.194  -5.609  21.007  0.00  0.00    +0.229 C 
ATOM     19  C   UNL     1       7.125  -6.278  22.003  0.00  0.00    +0.048 C 
ENDBRANCH  17  18
ENDBRANCH  15  17
ENDBRANCH   5  15
BRANCH   1  20
ATOM     20  O   UNL     1       7.612  -2.401  26.378  0.00  0.00    -0.367 OA
BRANCH  20  21
ATOM     21  C   UNL     1       7.437  -3.825  26.343  0.00  0.00    +0.119 C 
BRANCH  21  23
ATOM     22  C   UNL     1       9.112  -5.448  25.285  0.00  0.00    +0.006 C 
ATOM     23  C   UNL     1       8.762  -4.592  26.494  0.00  0.00    +0.028 C 
ENDBRANCH  21  23
BRANCH  21  24
ATOM     24  C   UNL     1       6.430  -4.173  27.453  0.00  0.00    +0.028 C 
ATOM     25  C   UNL     1       6.471  -5.655  27.822  0.00  0.00    +0.006 C 
ENDBRANCH  21  24
ENDBRANCH  20  21
ENDBRANCH   1  20
TORSDOF 9
ENDMDL
MODEL 5
REMARK VINA RESULT:      -5.5      4.698      8.655
REMARK  Name = 
REMARK  13 active torsions:
REMARK  status: ('A' for Active; 'I' for Inactive)
REMARK    1  A    between atoms: C_1  and  C_2
REMARK    2  A    between atoms: C_2  and  C_3
REMARK    3  A    between atoms: C_3  and  C_4
REMARK    4  A    between atoms: C_3  and  O_6
REMARK    5  A    between atoms: C_4  and  C_5
REMARK    6  A    between atoms: O_6  and  C_7
REMARK    7  A    between atoms: C_10  and  C_21
REMARK    8  A    between atoms: C_12  and  N_20
REMARK    9  A    between atoms: C_14  and  N_16
REMARK   10  A    between atoms: C_17  and  C_19
REMARK   11  A    between atoms: C_21  and  O_23
REMARK   12  A    between atoms: O_23  and  C_24
REMARK   13  A    between atoms: C_24  and  C_25
REMARK                            x       y       z     vdW  Elec       q    Type
REMARK                         _______ _______ _______ _____ _____    ______ ____
ROOT
ATOM      1  C   UNL     1       6.307  -4.723  25.249  0.00  0.00    +0.164 C 
ATOM      2  C   UNL     1       7.286  -5.252  26.344  0.00  0.00    +0.122 C 
ATOM      3  C   UNL     1       8.766  -4.795  26.240  0.00  0.00    +0.078 C 
ATOM      4  C   UNL     1       9.017  -3.431  25.579  0.00  0.00    +0.062 C 
ATOM      5  C   UNL     1       7.958  -2.912  24.656  0.00  0.00    +0.037 C 
ATOM      6  C   UNL     1       6.764  -3.503  24.500  0.00  0.00    +0.016 C 
ENDROOT
BRANCH   2   7
ATOM      7  N   UNL     1       6.749  -5.119  27.708  0.00  0.00    -0.308 N 
ATOM      8  H   UNL     1       6.930  -4.247  28.188  0.00  0.00    +0.149 HD
ATOM      9  C   UNL     1       5.938  -6.049  28.303  0.00  0.00    +0.210 C 
ATOM     10  C   UNL     1       5.504  -5.684  29.697  0.00  0.00    +0.109 C 
ATOM     11  O   UNL     1       5.604  -7.098  27.764  0.00  0.00    -0.276 OA
ENDBRANCH   2   7
BRANCH   3  12
ATOM     12  N   UNL     1       9.577  -5.847  25.580  0.00  0.00    -0.325 NA
ATOM     13  H   UNL     1       8.988  -6.660  25.395  0.00  0.00    +0.119 HD
ATOM     14  H   UNL     1       9.878  -5.508  24.665  0.00  0.00    +0.119 HD
ENDBRANCH   3  12
BRANCH   5  15
ATOM     15  C   UNL     1       8.329  -1.622  24.002  0.00  0.00    +0.335 C 
ATOM     16  O   UNL     1       7.492  -0.798  23.656  0.00  0.00    -0.245 OA
BRANCH  15  17
ATOM     17  O   UNL     1       9.657  -1.552  23.737  0.00  0.00    -0.462 OA
BRANCH  17  18
ATOM     18  C   UNL     1      10.152  -0.225  23.507  0.00  0.00    +0.229 C 
ATOM     19  C   UNL     1      10.603   0.336  24.843  0.00  0.00    +0.048 C 
ENDBRANCH  17  18
ENDBRANCH  15  17
ENDBRANCH   5  15
BRANCH   1  20
ATOM     20  O   UNL     1       5.991  -5.684  24.230  0.00  0.00    -0.367 OA
BRANCH  20  21
ATOM     21  C   UNL     1       5.199  -5.273  23.107  0.00  0.00    +0.119 C 
BRANCH  21  23
ATOM     22  C   UNL     1       7.271  -6.066  21.827  0.00  0.00    +0.006 C 
ATOM     23  C   UNL     1       5.786  -5.739  21.762  0.00  0.00    +0.028 C 
ENDBRANCH  21  23
BRANCH  21  24
ATOM     24  C   UNL     1       3.779  -5.817  23.345  0.00  0.00    +0.028 C 
ATOM     25  C   UNL     1       3.778  -7.031  24.272  0.00  0.00    +0.006 C 
ENDBRANCH  21  24
ENDBRANCH  20  21
ENDBRANCH   1  20
TORSDOF 9
ENDMDL
MODEL 6
REMARK VINA RESULT:      -5.3      2.724      6.909
REMARK  Name = 
REMARK  13 active torsions:
REMARK  status: ('A' for Active; 'I' for Inactive)
REMARK    1  A    between atoms: C_1  and  C_2
REMARK    2  A    between atoms: C_2  and  C_3
REMARK    3  A    between atoms: C_3  and  C_4
REMARK    4  A    between atoms: C_3  and  O_6
REMARK    5  A    between atoms: C_4  and  C_5
REMARK    6  A    between atoms: O_6  and  C_7
REMARK    7  A    between atoms: C_10  and  C_21
REMARK    8  A    between atoms: C_12  and  N_20
REMARK    9  A    between atoms: C_14  and  N_16
REMARK   10  A    between atoms: C_17  and  C_19
REMARK   11  A    between atoms: C_21  and  O_23
REMARK   12  A    between atoms: O_23  and  C_24
REMARK   13  A    between atoms: C_24  and  C_25
REMARK                            x       y       z     vdW  Elec       q    Type
REMARK                         _______ _______ _______ _____ _____    ______ ____
ROOT
ATOM      1  C   UNL     1       7.335  -1.809  23.216  0.00  0.00    +0.164 C 
ATOM      2  C   UNL     1       8.765  -2.337  23.555  0.00  0.00    +0.122 C 
ATOM      3  C   UNL     1       9.954  -1.395  23.230  0.00  0.00    +0.078 C 
ATOM      4  C   UNL     1       9.663   0.113  23.265  0.00  0.00    +0.062 C 
ATOM      5  C   UNL     1       8.240   0.541  23.087  0.00  0.00    +0.037 C 
ATOM      6  C   UNL     1       7.212  -0.322  23.045  0.00  0.00    +0.016 C 
ENDROOT
BRANCH   2   7
ATOM      7  N   UNL     1       8.857  -2.918  24.904  0.00  0.00    -0.308 N 
ATOM      8  H   UNL     1       8.689  -2.294  25.684  0.00  0.00    +0.149 HD
ATOM      9  C   UNL     1       9.041  -4.253  25.150  0.00  0.00    +0.210 C 
ATOM     10  C   UNL     1       9.088  -4.609  26.611  0.00  0.00    +0.109 C 
ATOM     11  O   UNL     1       9.174  -5.091  24.265  0.00  0.00    -0.276 OA
ENDBRANCH   2   7
BRANCH   3  12
ATOM     12  N   UNL     1      10.563  -1.774  21.931  0.00  0.00    -0.325 NA
ATOM     13  H   UNL     1       9.823  -2.032  21.276  0.00  0.00    +0.119 HD
ATOM     14  H   UNL     1      11.018  -0.954  21.527  0.00  0.00    +0.119 HD
ENDBRANCH   3  12
BRANCH   5  15
ATOM     15  C   UNL     1       8.070   2.024  23.055  0.00  0.00    +0.335 C 
ATOM     16  O   UNL     1       7.310   2.580  22.272  0.00  0.00    -0.245 OA
BRANCH  15  17
ATOM     17  O   UNL     1       8.937   2.651  23.887  0.00  0.00    -0.462 OA
BRANCH  17  18
ATOM     18  C   UNL     1       8.318   3.455  24.902  0.00  0.00    +0.229 C 
ATOM     19  C   UNL     1       8.699   4.900  24.640  0.00  0.00    +0.048 C 
ENDBRANCH  17  18
ENDBRANCH  15  17
ENDBRANCH   5  15
BRANCH   1  20
ATOM     20  O   UNL     1       6.774  -2.365  22.016  0.00  0.00    -0.367 OA
BRANCH  20  21
ATOM     21  C   UNL     1       5.962  -3.545  22.109  0.00  0.00    +0.119 C 
BRANCH  21  23
ATOM     22  C   UNL     1       6.173  -5.755  20.832  0.00  0.00    +0.006 C 
ATOM     23  C   UNL     1       6.766  -4.839  21.894  0.00  0.00    +0.028 C 
ENDBRANCH  21  23
BRANCH  21  24
ATOM     24  C   UNL     1       5.280  -3.502  23.488  0.00  0.00    +0.028 C 
ATOM     25  C   UNL     1       5.456  -4.811  24.256  0.00  0.00    +0.006 C 
ENDBRANCH  21  24
ENDBRANCH  20  21
ENDBRANCH   1  20
TORSDOF 9
ENDMDL
MODEL 7
REMARK VINA RESULT:      -5.1      4.516      7.534
REMARK  Name = 
REMARK  13 active torsions:
REMARK  status: ('A' for Active; 'I' for Inactive)
REMARK    1  A    between atoms: C_1  and  C_2
REMARK    2  A    between atoms: C_2  and  C_3
REMARK    3  A    between atoms: C_3  and  C_4
REMARK    4  A    between atoms: C_3  and  O_6
REMARK    5  A    between atoms: C_4  and  C_5
REMARK    6  A    between atoms: O_6  and  C_7
REMARK    7  A    between atoms: C_10  and  C_21
REMARK    8  A    between atoms: C_12  and  N_20
REMARK    9  A    between atoms: C_14  and  N_16
REMARK   10  A    between atoms: C_17  and  C_19
REMARK   11  A    between atoms: C_21  and  O_23
REMARK   12  A    between atoms: O_23  and  C_24
REMARK   13  A    between atoms: C_24  and  C_25
REMARK                            x       y       z     vdW  Elec       q    Type
REMARK                         _______ _______ _______ _____ _____    ______ ____
ROOT
ATOM      1  C   UNL     1       7.737  -2.933  25.032  0.00  0.00    +0.164 C 
ATOM      2  C   UNL     1       8.503  -4.115  24.358  0.00  0.00    +0.122 C 
ATOM      3  C   UNL     1       8.777  -5.364  25.238  0.00  0.00    +0.078 C 
ATOM      4  C   UNL     1       7.772  -5.642  26.365  0.00  0.00    +0.062 C 
ATOM      5  C   UNL     1       6.957  -4.486  26.858  0.00  0.00    +0.037 C 
ATOM      6  C   UNL     1       6.963  -3.279  26.272  0.00  0.00    +0.016 C 
ENDROOT
BRANCH   2   7
ATOM      7  N   UNL     1       7.965  -4.466  23.033  0.00  0.00    -0.308 N 
ATOM      8  H   UNL     1       8.553  -4.266  22.233  0.00  0.00    +0.149 HD
ATOM      9  C   UNL     1       6.789  -5.140  22.841  0.00  0.00    +0.210 C 
ATOM     10  C   UNL     1       6.456  -5.397  21.395  0.00  0.00    +0.109 C 
ATOM     11  O   UNL     1       6.053  -5.492  23.756  0.00  0.00    -0.276 OA
ENDBRANCH   2   7
BRANCH   3  12
ATOM     12  N   UNL     1      10.158  -5.310  25.779  0.00  0.00    -0.325 NA
ATOM     13  H   UNL     1      10.533  -4.370  25.648  0.00  0.00    +0.119 HD
ATOM     14  H   UNL     1      10.125  -5.459  26.788  0.00  0.00    +0.119 HD
ENDBRANCH   3  12
BRANCH   5  15
ATOM     15  C   UNL     1       6.070  -4.839  28.006  0.00  0.00    +0.335 C 
ATOM     16  O   UNL     1       6.443  -5.556  28.927  0.00  0.00    -0.245 OA
BRANCH  15  17
ATOM     17  O   UNL     1       4.806  -4.382  27.829  0.00  0.00    -0.462 OA
BRANCH  17  18
ATOM     18  C   UNL     1       3.922  -5.306  27.177  0.00  0.00    +0.229 C 
ATOM     19  C   UNL     1       3.372  -4.619  25.939  0.00  0.00    +0.048 C 
ENDBRANCH  17  18
ENDBRANCH  15  17
ENDBRANCH   5  15
BRANCH   1  20
ATOM     20  O   UNL     1       8.579  -1.834  25.417  0.00  0.00    -0.367 OA
BRANCH  20  21
ATOM     21  C   UNL     1       9.316  -1.133  24.404  0.00  0.00    +0.119 C 
BRANCH  21  23
ATOM     22  C   UNL     1       9.068  -1.291  21.860  0.00  0.00    +0.006 C 
ATOM     23  C   UNL     1       8.461  -0.804  23.168  0.00  0.00    +0.028 C 
ENDBRANCH  21  23
BRANCH  21  24
ATOM     24  C   UNL     1       9.890   0.129  25.071  0.00  0.00    +0.028 C 
ATOM     25  C   UNL     1      10.943   0.810  24.199  0.00  0.00    +0.006 C 
ENDBRANCH  21  24
ENDBRANCH  20  21
ENDBRANCH   1  20
TORSDOF 9
ENDMDL
MODEL 8
REMARK VINA RESULT:      -5.1      3.299      5.719
REMARK  Name = 
REMARK  13 active torsions:
REMARK  status: ('A' for Active; 'I' for Inactive)
REMARK    1  A    between atoms: C_1  and  C_2
REMARK    2  A    between atoms: C_2  and  C_3
REMARK    3  A    between atoms: C_3  and  C_4
REMARK    4  A    between atoms: C_3  and  O_6
REMARK    5  A    between atoms: C_4  and  C_5
REMARK    6  A    between atoms: O_6  and  C_7
REMARK    7  A    between atoms: C_10  and  C_21
REMARK    8  A    between atoms: C_12  and  N_20
REMARK    9  A    between atoms: C_14  and  N_16
REMARK   10  A    between atoms: C_17  and  C_19
REMARK   11  A    between atoms: C_21  and  O_23
REMARK   12  A    between atoms: O_23  and  C_24
REMARK   13  A    between atoms: C_24  and  C_25
REMARK                            x       y       z     vdW  Elec       q    Type
REMARK                         _______ _______ _______ _____ _____    ______ ____
ROOT
ATOM      1  C   UNL     1       8.085  -1.543  23.582  0.00  0.00    +0.164 C 
ATOM      2  C   UNL     1       6.549  -1.484  23.304  0.00  0.00    +0.122 C 
ATOM      3  C   UNL     1       5.814  -2.842  23.148  0.00  0.00    +0.078 C 
ATOM      4  C   UNL     1       6.413  -4.037  23.904  0.00  0.00    +0.062 C 
ATOM      5  C   UNL     1       7.861  -3.957  24.276  0.00  0.00    +0.037 C 
ATOM      6  C   UNL     1       8.602  -2.850  24.111  0.00  0.00    +0.016 C 
ENDROOT
BRANCH   2   7
ATOM      7  N   UNL     1       5.839  -0.557  24.201  0.00  0.00    -0.308 N 
ATOM      8  H   UNL     1       5.312   0.189  23.764  0.00  0.00    +0.149 HD
ATOM      9  C   UNL     1       5.762  -0.717  25.559  0.00  0.00    +0.210 C 
ATOM     10  C   UNL     1       4.968   0.351  26.260  0.00  0.00    +0.109 C 
ATOM     11  O   UNL     1       6.303  -1.637  26.163  0.00  0.00    -0.276 OA
ENDBRANCH   2   7
BRANCH   3  12
ATOM     12  N   UNL     1       5.651  -3.169  21.710  0.00  0.00    -0.325 NA
ATOM     13  H   UNL     1       4.784  -3.693  21.581  0.00  0.00    +0.119 HD
ATOM     14  H   UNL     1       5.533  -2.301  21.184  0.00  0.00    +0.119 HD
ENDBRANCH   3  12
BRANCH   5  15
ATOM     15  C   UNL     1       8.369  -5.197  24.934  0.00  0.00    +0.335 C 
ATOM     16  O   UNL     1       9.430  -5.720  24.616  0.00  0.00    -0.245 OA
BRANCH  15  17
ATOM     17  O   UNL     1       7.468  -5.715  25.804  0.00  0.00    -0.462 OA
BRANCH  17  18
ATOM     18  C   UNL     1       7.620  -5.270  27.160  0.00  0.00    +0.229 C 
ATOM     19  C   UNL     1       6.241  -4.910  27.683  0.00  0.00    +0.048 C 
ENDBRANCH  17  18
ENDBRANCH  15  17
ENDBRANCH   5  15
BRANCH   1  20
ATOM     20  O   UNL     1       8.899  -1.262  22.433  0.00  0.00    -0.367 OA
BRANCH  20  21
ATOM     21  C   UNL     1       9.640  -0.033  22.388  0.00  0.00    +0.119 C 
BRANCH  21  23
ATOM     22  C   UNL     1       8.092   1.922  21.801  0.00  0.00    +0.006 C 
ATOM     23  C   UNL     1       9.132   0.929  21.299  0.00  0.00    +0.028 C 
ENDBRANCH  21  23
BRANCH  21  24
ATOM     24  C   UNL     1       9.557   0.582  23.796  0.00  0.00    +0.028 C 
ATOM     25  C   UNL     1      10.930   0.685  24.459  0.00  0.00    +0.006 C 
ENDBRANCH  21  24
ENDBRANCH  20  21
ENDBRANCH   1  20
TORSDOF 9
ENDMDL
MODEL 9
REMARK VINA RESULT:      -5.0      3.522      7.666
REMARK  Name = 
REMARK  13 active torsions:
REMARK  status: ('A' for Active; 'I' for Inactive)
REMARK    1  A    between atoms: C_1  and  C_2
REMARK    2  A    between atoms: C_2  and  C_3
REMARK    3  A    between atoms: C_3  and  C_4
REMARK    4  A    between atoms: C_3  and  O_6
REMARK    5  A    between atoms: C_4  and  C_5
REMARK    6  A    between atoms: O_6  and  C_7
REMARK    7  A    between atoms: C_10  and  C_21
REMARK    8  A    between atoms: C_12  and  N_20
REMARK    9  A    between atoms: C_14  and  N_16
REMARK   10  A    between atoms: C_17  and  C_19
REMARK   11  A    between atoms: C_21  and  O_23
REMARK   12  A    between atoms: O_23  and  C_24
REMARK   13  A    between atoms: C_24  and  C_25
REMARK                            x       y       z     vdW  Elec       q    Type
REMARK                         _______ _______ _______ _____ _____    ______ ____
ROOT
ATOM      1  C   UNL     1       6.317  -2.794  23.889  0.00  0.00    +0.164 C 
ATOM      2  C   UNL     1       7.318  -3.427  24.907  0.00  0.00    +0.122 C 
ATOM      3  C   UNL     1       8.704  -2.742  25.045  0.00  0.00    +0.078 C 
ATOM      4  C   UNL     1       8.755  -1.235  24.753  0.00  0.00    +0.062 C 
ATOM      5  C   UNL     1       7.670  -0.666  23.892  0.00  0.00    +0.037 C 
ATOM      6  C   UNL     1       6.600  -1.372  23.496  0.00  0.00    +0.016 C 
ENDROOT
BRANCH   2   7
ATOM      7  N   UNL     1       6.701  -3.721  26.210  0.00  0.00    -0.308 N 
ATOM      8  H   UNL     1       6.146  -2.986  26.631  0.00  0.00    +0.149 HD
ATOM      9  C   UNL     1       6.744  -4.949  26.815  0.00  0.00    +0.210 C 
ATOM     10  C   UNL     1       6.028  -5.009  28.138  0.00  0.00    +0.109 C 
ATOM     11  O   UNL     1       7.326  -5.918  26.339  0.00  0.00    -0.276 OA
ENDBRANCH   2   7
BRANCH   3  12
ATOM     12  N   UNL     1       9.710  -3.461  24.226  0.00  0.00    -0.325 NA
ATOM     13  H   UNL     1       9.546  -4.466  24.299  0.00  0.00    +0.119 HD
ATOM     14  H   UNL     1       9.566  -3.226  23.243  0.00  0.00    +0.119 HD
ENDBRANCH   3  12
BRANCH   5  15
ATOM     15  C   UNL     1       7.852   0.787  23.600  0.00  0.00    +0.335 C 
ATOM     16  O   UNL     1       7.568   1.278  22.514  0.00  0.00    -0.245 OA
BRANCH  15  17
ATOM     17  O   UNL     1       8.472   1.435  24.616  0.00  0.00    -0.462 OA
BRANCH  17  18
ATOM     18  C   UNL     1       9.380   2.467  24.204  0.00  0.00    +0.229 C 
ATOM     19  C   UNL     1      10.733   1.822  23.966  0.00  0.00    +0.048 C 
ENDBRANCH  17  18
ENDBRANCH  15  17
ENDBRANCH   5  15
BRANCH   1  20
ATOM     20  O   UNL     1       6.216  -3.507  22.646  0.00  0.00    -0.367 OA
BRANCH  20  21
ATOM     21  C   UNL     1       5.247  -4.559  22.525  0.00  0.00    +0.119 C 
BRANCH  21  23
ATOM     22  C   UNL     1       7.262  -6.064  22.038  0.00  0.00    +0.006 C 
ATOM     23  C   UNL     1       5.872  -5.960  22.651  0.00  0.00    +0.028 C 
ENDBRANCH  21  23
BRANCH  21  24
ATOM     24  C   UNL     1       4.176  -4.298  23.598  0.00  0.00    +0.028 C 
ATOM     25  C   UNL     1       3.893  -5.540  24.441  0.00  0.00    +0.006 C 
ENDBRANCH  21  24
ENDBRANCH  20  21
ENDBRANCH   1  20
TORSDOF 9
ENDMDL
