MODEL 1
REMARK VINA RESULT:      -6.6      0.000      0.000
REMARK  Name = 
REMARK  5 active torsions:
REMARK  status: ('A' for Active; 'I' for Inactive)
REMARK    1  A    between atoms: C_1  and  C_2
REMARK    2  A    between atoms: N_4  and  C_10
REMARK    3  A    between atoms: C_13  and  N_20
REMARK    4  A    between atoms: C_15  and  C_18
REMARK    5  A    between atoms: C_18  and  O_19
REMARK                            x       y       z     vdW  Elec       q    Type
REMARK                         _______ _______ _______ _____ _____    ______ ____
ROOT
ATOM      1  C   UNL     1       8.324  -3.142  23.723  0.00  0.00    +0.226 C 
ATOM      2  O   UNL     1       7.771  -4.024  22.731  0.00  0.00    -0.349 OA
ATOM      3  C   UNL     1       7.146  -5.119  23.442  0.00  0.00    +0.177 C 
ATOM      4  C   UNL     1       6.977  -4.678  24.907  0.00  0.00    +0.226 C 
ATOM      5  C   UNL     1       7.340  -3.204  24.879  0.00  0.00    +0.091 C 
ENDROOT
BRANCH   1  14
ATOM      6  C   UNL     1       6.655   1.447  22.678  0.00  0.00    +0.051 C 
ATOM      7  C   UNL     1       7.701   0.380  22.686  0.00  0.00    +0.030 A 
ATOM      8  C   UNL     1       9.013   0.708  22.085  0.00  0.00    +0.257 A 
ATOM      9  O   UNL     1       9.251   1.809  21.601  0.00  0.00    -0.267 OA
ATOM     10  N   UNL     1       9.943  -0.289  22.102  0.00  0.00    -0.275 N 
ATOM     11  H   UNL     1      10.846  -0.079  21.708  0.00  0.00    +0.173 HD
ATOM     12  C   UNL     1       9.791  -1.525  22.669  0.00  0.00    +0.331 A 
ATOM     13  O   UNL     1      10.737  -2.308  22.705  0.00  0.00    -0.246 OA
ATOM     14  N   UNL     1       8.531  -1.804  23.180  0.00  0.00    -0.274 N 
ATOM     15  C   UNL     1       7.531  -0.850  23.190  0.00  0.00    +0.101 A 
ENDBRANCH   1  14
BRANCH   4  16
ATOM     16  N   UNL     1       7.949  -5.387  25.764  0.00  0.00    +0.082 NA
ATOM     17  N   UNL     1       7.555  -5.677  26.909  0.00  0.00    -0.014 NA
ATOM     18  N   UNL     1       7.179  -5.947  27.951  0.00  0.00    -0.328 NA
ENDBRANCH   4  16
BRANCH   3  19
ATOM     19  C   UNL     1       5.822  -5.442  22.755  0.00  0.00    +0.189 C 
BRANCH  19  20
ATOM     20  O   UNL     1       5.983  -6.528  21.844  0.00  0.00    -0.392 OA
ATOM     21  H   UNL     1       6.485  -7.208  22.328  0.00  0.00    +0.210 HD
ENDBRANCH  19  20
ENDBRANCH   3  19
TORSDOF 4
ENDMDL
MODEL 2
REMARK VINA RESULT:      -6.5      1.979      2.284
REMARK  Name = 
REMARK  5 active torsions:
REMARK  status: ('A' for Active; 'I' for Inactive)
REMARK    1  A    between atoms: C_1  and  C_2
REMARK    2  A    between atoms: N_4  and  C_10
REMARK    3  A    between atoms: C_13  and  N_20
REMARK    4  A    between atoms: C_15  and  C_18
REMARK    5  A    between atoms: C_18  and  O_19
REMARK                            x       y       z     vdW  Elec       q    Type
REMARK                         _______ _______ _______ _____ _____    ______ ____
ROOT
ATOM      1  C   UNL     1       8.952  -2.984  25.076  0.00  0.00    +0.226 C 
ATOM      2  O   UNL     1       9.007  -3.784  23.883  0.00  0.00    -0.349 OA
ATOM      3  C   UNL     1       8.330  -5.028  24.179  0.00  0.00    +0.177 C 
ATOM      4  C   UNL     1       7.504  -4.810  25.459  0.00  0.00    +0.226 C 
ATOM      5  C   UNL     1       7.604  -3.313  25.695  0.00  0.00    +0.091 C 
ENDROOT
BRANCH   1  14
ATOM      6  C   UNL     1       9.615   0.718  21.793  0.00  0.00    +0.051 C 
ATOM      7  C   UNL     1       9.470   0.177  23.178  0.00  0.00    +0.030 A 
ATOM      8  C   UNL     1       9.553   1.141  24.298  0.00  0.00    +0.257 A 
ATOM      9  O   UNL     1       9.725   2.340  24.114  0.00  0.00    -0.267 OA
ATOM     10  N   UNL     1       9.422   0.614  25.548  0.00  0.00    -0.275 N 
ATOM     11  H   UNL     1       9.463   1.258  26.323  0.00  0.00    +0.173 HD
ATOM     12  C   UNL     1       9.169  -0.696  25.850  0.00  0.00    +0.331 A 
ATOM     13  O   UNL     1       8.979  -1.036  27.016  0.00  0.00    -0.246 OA
ATOM     14  N   UNL     1       9.146  -1.571  24.772  0.00  0.00    -0.274 N 
ATOM     15  C   UNL     1       9.281  -1.116  23.474  0.00  0.00    +0.101 A 
ENDBRANCH   1  14
BRANCH   4  16
ATOM     16  N   UNL     1       8.138  -5.509  26.595  0.00  0.00    +0.082 NA
ATOM     17  N   UNL     1       7.393  -5.766  27.560  0.00  0.00    -0.014 NA
ATOM     18  N   UNL     1       6.699  -6.006  28.432  0.00  0.00    -0.328 NA
ENDBRANCH   4  16
BRANCH   3  19
ATOM     19  C   UNL     1       7.476  -5.408  22.971  0.00  0.00    +0.189 C 
BRANCH  19  20
ATOM     20  O   UNL     1       7.343  -4.298  22.084  0.00  0.00    -0.392 OA
ATOM     21  H   UNL     1       8.244  -3.953  21.954  0.00  0.00    +0.210 HD
ENDBRANCH  19  20
ENDBRANCH   3  19
TORSDOF 4
ENDMDL
MODEL 3
REMARK VINA RESULT:      -6.4      2.241      3.069
REMARK  Name = 
REMARK  5 active torsions:
REMARK  status: ('A' for Active; 'I' for Inactive)
REMARK    1  A    between atoms: C_1  and  C_2
REMARK    2  A    between atoms: N_4  and  C_10
REMARK    3  A    between atoms: C_13  and  N_20
REMARK    4  A    between atoms: C_15  and  C_18
REMARK    5  A    between atoms: C_18  and  O_19
REMARK                            x       y       z     vdW  Elec       q    Type
REMARK                         _______ _______ _______ _____ _____    ______ ____
ROOT
ATOM      1  C   UNL     1       7.182  -2.771  25.133  0.00  0.00    +0.226 C 
ATOM      2  O   UNL     1       8.459  -2.970  25.764  0.00  0.00    -0.349 OA
ATOM      3  C   UNL     1       8.512  -4.357  26.176  0.00  0.00    +0.177 C 
ATOM      4  C   UNL     1       7.399  -5.105  25.420  0.00  0.00    +0.226 C 
ATOM      5  C   UNL     1       6.903  -4.080  24.416  0.00  0.00    +0.091 C 
ENDROOT
BRANCH   1  14
ATOM      6  C   UNL     1       9.357  -0.014  21.583  0.00  0.00    +0.051 C 
ATOM      7  C   UNL     1       8.272  -0.300  22.570  0.00  0.00    +0.030 A 
ATOM      8  C   UNL     1       7.171   0.684  22.674  0.00  0.00    +0.257 A 
ATOM      9  O   UNL     1       7.131   1.694  21.981  0.00  0.00    -0.267 OA
ATOM     10  N   UNL     1       6.200   0.397  23.587  0.00  0.00    -0.275 N 
ATOM     11  H   UNL     1       5.435   1.049  23.663  0.00  0.00    +0.173 HD
ATOM     12  C   UNL     1       6.126  -0.729  24.361  0.00  0.00    +0.331 A 
ATOM     13  O   UNL     1       5.150  -0.920  25.082  0.00  0.00    -0.246 OA
ATOM     14  N   UNL     1       7.203  -1.600  24.263  0.00  0.00    -0.274 N 
ATOM     15  C   UNL     1       8.232  -1.374  23.368  0.00  0.00    +0.101 A 
ENDBRANCH   1  14
BRANCH   4  16
ATOM     16  N   UNL     1       6.294  -5.434  26.344  0.00  0.00    +0.082 NA
ATOM     17  N   UNL     1       6.628  -5.926  27.438  0.00  0.00    -0.014 NA
ATOM     18  N   UNL     1       6.946  -6.366  28.440  0.00  0.00    -0.328 NA
ENDBRANCH   4  16
BRANCH   3  19
ATOM     19  C   UNL     1       9.909  -4.893  25.873  0.00  0.00    +0.189 C 
BRANCH  19  20
ATOM     20  O   UNL     1       9.830  -6.078  25.083  0.00  0.00    -0.392 OA
ATOM     21  H   UNL     1       8.887  -6.194  24.872  0.00  0.00    +0.210 HD
ENDBRANCH  19  20
ENDBRANCH   3  19
TORSDOF 4
ENDMDL
MODEL 4
REMARK VINA RESULT:      -6.3      2.160      2.867
REMARK  Name = 
REMARK  5 active torsions:
REMARK  status: ('A' for Active; 'I' for Inactive)
REMARK    1  A    between atoms: C_1  and  C_2
REMARK    2  A    between atoms: N_4  and  C_10
REMARK    3  A    between atoms: C_13  and  N_20
REMARK    4  A    between atoms: C_15  and  C_18
REMARK    5  A    between atoms: C_18  and  O_19
REMARK                            x       y       z     vdW  Elec       q    Type
REMARK                         _______ _______ _______ _____ _____    ______ ____
ROOT
ATOM      1  C   UNL     1       8.425  -0.793  22.798  0.00  0.00    +0.226 C 
ATOM      2  O   UNL     1       7.536  -1.667  22.083  0.00  0.00    -0.349 OA
ATOM      3  C   UNL     1       7.631  -2.968  22.709  0.00  0.00    +0.177 C 
ATOM      4  C   UNL     1       8.297  -2.769  24.083  0.00  0.00    +0.226 C 
ATOM      5  C   UNL     1       8.341  -1.260  24.241  0.00  0.00    +0.091 C 
ENDROOT
BRANCH   1  14
ATOM      6  C   UNL     1       5.134   2.949  23.117  0.00  0.00    +0.051 C 
ATOM      7  C   UNL     1       6.464   2.373  22.755  0.00  0.00    +0.030 A 
ATOM      8  C   UNL     1       7.454   3.282  22.136  0.00  0.00    +0.257 A 
ATOM      9  O   UNL     1       7.212   4.466  21.928  0.00  0.00    -0.267 OA
ATOM     10  N   UNL     1       8.656   2.724  21.812  0.00  0.00    -0.275 N 
ATOM     11  H   UNL     1       9.347   3.332  21.401  0.00  0.00    +0.173 HD
ATOM     12  C   UNL     1       9.039   1.434  22.057  0.00  0.00    +0.331 A 
ATOM     13  O   UNL     1      10.185   1.071  21.803  0.00  0.00    -0.246 OA
ATOM     14  N   UNL     1       8.063   0.606  22.597  0.00  0.00    -0.274 N 
ATOM     15  C   UNL     1       6.817   1.094  22.942  0.00  0.00    +0.101 A 
ENDBRANCH   1  14
BRANCH   4  16
ATOM     16  N   UNL     1       9.682  -3.281  24.051  0.00  0.00    +0.082 NA
ATOM     17  N   UNL     1       9.884  -4.342  24.671  0.00  0.00    -0.014 NA
ATOM     18  N   UNL     1      10.054  -5.320  25.231  0.00  0.00    -0.328 NA
ENDBRANCH   4  16
BRANCH   3  19
ATOM     19  C   UNL     1       6.225  -3.557  22.803  0.00  0.00    +0.189 C 
BRANCH  19  20
ATOM     20  O   UNL     1       5.517  -3.359  21.581  0.00  0.00    -0.392 OA
ATOM     21  H   UNL     1       6.036  -3.817  20.896  0.00  0.00    +0.210 HD
ENDBRANCH  19  20
ENDBRANCH   3  19
TORSDOF 4
ENDMDL
MODEL 5
REMARK VINA RESULT:      -6.3      2.781      3.169
REMARK  Name = 
REMARK  5 active torsions:
REMARK  status: ('A' for Active; 'I' for Inactive)
REMARK    1  A    between atoms: C_1  and  C_2
REMARK    2  A    between atoms: N_4  and  C_10
REMARK    3  A    between atoms: C_13  and  N_20
REMARK    4  A    between atoms: C_15  and  C_18
REMARK    5  A    between atoms: C_18  and  O_19
REMARK                            x       y       z     vdW  Elec       q    Type
REMARK                         _______ _______ _______ _____ _____    ______ ____
ROOT
ATOM      1  C   UNL     1       7.060  -2.806  23.759  0.00  0.00    +0.226 C 
ATOM      2  O   UNL     1       7.617  -4.066  23.345  0.00  0.00    -0.349 OA
ATOM      3  C   UNL     1       6.532  -4.838  22.776  0.00  0.00    +0.177 C 
ATOM      4  C   UNL     1       5.378  -3.863  22.483  0.00  0.00    +0.226 C 
ATOM      5  C   UNL     1       5.998  -2.497  22.718  0.00  0.00    +0.091 C 
ENDROOT
BRANCH   1  14
ATOM      6  C   UNL     1       9.811   0.873  21.804  0.00  0.00    +0.051 C 
ATOM      7  C   UNL     1       9.403  -0.038  22.915  0.00  0.00    +0.030 A 
ATOM      8  C   UNL     1      10.117   0.099  24.204  0.00  0.00    +0.257 A 
ATOM      9  O   UNL     1      11.006   0.926  24.373  0.00  0.00    -0.267 OA
ATOM     10  N   UNL     1       9.725  -0.750  25.196  0.00  0.00    -0.275 N 
ATOM     11  H   UNL     1      10.191  -0.663  26.085  0.00  0.00    +0.173 HD
ATOM     12  C   UNL     1       8.707  -1.663  25.123  0.00  0.00    +0.331 A 
ATOM     13  O   UNL     1       8.385  -2.309  26.117  0.00  0.00    -0.246 OA
ATOM     14  N   UNL     1       8.097  -1.788  23.882  0.00  0.00    -0.274 N 
ATOM     15  C   UNL     1       8.446  -0.970  22.824  0.00  0.00    +0.101 A 
ENDBRANCH   1  14
BRANCH   4  16
ATOM     16  N   UNL     1       4.288  -4.061  23.461  0.00  0.00    +0.082 NA
ATOM     17  N   UNL     1       3.431  -4.911  23.156  0.00  0.00    -0.014 NA
ATOM     18  N   UNL     1       2.659  -5.701  22.871  0.00  0.00    -0.328 NA
ENDBRANCH   4  16
BRANCH   3  19
ATOM     19  C   UNL     1       7.053  -5.546  21.527  0.00  0.00    +0.189 C 
BRANCH  19  20
ATOM     20  O   UNL     1       6.041  -5.598  20.523  0.00  0.00    -0.392 OA
ATOM     21  H   UNL     1       6.248  -4.879  19.900  0.00  0.00    +0.210 HD
ENDBRANCH  19  20
ENDBRANCH   3  19
TORSDOF 4
ENDMDL
MODEL 6
REMARK VINA RESULT:      -6.2      1.674      1.963
REMARK  Name = 
REMARK  5 active torsions:
REMARK  status: ('A' for Active; 'I' for Inactive)
REMARK    1  A    between atoms: C_1  and  C_2
REMARK    2  A    between atoms: N_4  and  C_10
REMARK    3  A    between atoms: C_13  and  N_20
REMARK    4  A    between atoms: C_15  and  C_18
REMARK    5  A    between atoms: C_18  and  O_19
REMARK                            x       y       z     vdW  Elec       q    Type
REMARK                         _______ _______ _______ _____ _____    ______ ____
ROOT
ATOM      1  C   UNL     1       7.780  -3.928  25.323  0.00  0.00    +0.226 C 
ATOM      2  O   UNL     1       7.056  -4.938  24.599  0.00  0.00    -0.349 OA
ATOM      3  C   UNL     1       6.275  -5.674  25.571  0.00  0.00    +0.177 C 
ATOM      4  C   UNL     1       6.227  -4.829  26.857  0.00  0.00    +0.226 C 
ATOM      5  C   UNL     1       6.835  -3.504  26.434  0.00  0.00    +0.091 C 
ENDROOT
BRANCH   1  14
ATOM      6  C   UNL     1       6.854   0.373  22.962  0.00  0.00    +0.051 C 
ATOM      7  C   UNL     1       7.720  -0.792  23.318  0.00  0.00    +0.030 A 
ATOM      8  C   UNL     1       9.069  -0.845  22.713  0.00  0.00    +0.257 A 
ATOM      9  O   UNL     1       9.479   0.026  21.954  0.00  0.00    -0.267 OA
ATOM     10  N   UNL     1       9.833  -1.923  23.052  0.00  0.00    -0.275 N 
ATOM     11  H   UNL     1      10.759  -1.969  22.660  0.00  0.00    +0.173 HD
ATOM     12  C   UNL     1       9.487  -2.911  23.933  0.00  0.00    +0.331 A 
ATOM     13  O   UNL     1      10.299  -3.784  24.231  0.00  0.00    -0.246 OA
ATOM     14  N   UNL     1       8.196  -2.844  24.440  0.00  0.00    -0.274 N 
ATOM     15  C   UNL     1       7.358  -1.789  24.135  0.00  0.00    +0.101 A 
ENDBRANCH   1  14
BRANCH   4  16
ATOM     16  N   UNL     1       7.089  -5.435  27.892  0.00  0.00    +0.082 NA
ATOM     17  N   UNL     1       6.615  -6.421  28.486  0.00  0.00    -0.014 NA
ATOM     18  N   UNL     1       6.175  -7.330  29.015  0.00  0.00    -0.328 NA
ENDBRANCH   4  16
BRANCH   3  19
ATOM     19  C   UNL     1       4.895  -5.938  24.974  0.00  0.00    +0.189 C 
BRANCH  19  20
ATOM     20  O   UNL     1       4.900  -7.149  24.219  0.00  0.00    -0.392 OA
ATOM     21  H   UNL     1       5.837  -7.357  24.057  0.00  0.00    +0.210 HD
ENDBRANCH  19  20
ENDBRANCH   3  19
TORSDOF 4
ENDMDL
MODEL 7
REMARK VINA RESULT:      -6.1      2.589      6.403
REMARK  Name = 
REMARK  5 active torsions:
REMARK  status: ('A' for Active; 'I' for Inactive)
REMARK    1  A    between atoms: C_1  and  C_2
REMARK    2  A    between atoms: N_4  and  C_10
REMARK    3  A    between atoms: C_13  and  N_20
REMARK    4  A    between atoms: C_15  and  C_18
REMARK    5  A    between atoms: C_18  and  O_19
REMARK                            x       y       z     vdW  Elec       q    Type
REMARK                         _______ _______ _______ _____ _____    ______ ____
ROOT
ATOM      1  C   UNL     1       6.635  -2.896  23.079  0.00  0.00    +0.226 C 
ATOM      2  O   UNL     1       8.008  -3.103  22.705  0.00  0.00    -0.349 OA
ATOM      3  C   UNL     1       8.671  -1.821  22.814  0.00  0.00    +0.177 C 
ATOM      4  C   UNL     1       7.764  -0.904  23.653  0.00  0.00    +0.226 C 
ATOM      5  C   UNL     1       6.691  -1.845  24.173  0.00  0.00    +0.091 C 
ENDROOT
BRANCH   1  14
ATOM      6  C   UNL     1       5.233  -6.138  26.608  0.00  0.00    +0.051 C 
ATOM      7  C   UNL     1       5.355  -5.683  25.191  0.00  0.00    +0.030 A 
ATOM      8  C   UNL     1       4.820  -6.579  24.141  0.00  0.00    +0.257 A 
ATOM      9  O   UNL     1       4.288  -7.651  24.407  0.00  0.00    -0.267 OA
ATOM     10  N   UNL     1       4.951  -6.138  22.857  0.00  0.00    -0.275 N 
ATOM     11  H   UNL     1       4.581  -6.729  22.130  0.00  0.00    +0.173 HD
ATOM     12  C   UNL     1       5.474  -4.936  22.466  0.00  0.00    +0.331 A 
ATOM     13  O   UNL     1       5.454  -4.610  21.282  0.00  0.00    -0.246 OA
ATOM     14  N   UNL     1       6.005  -4.149  23.480  0.00  0.00    -0.274 N 
ATOM     15  C   UNL     1       5.920  -4.532  24.805  0.00  0.00    +0.101 A 
ENDBRANCH   1  14
BRANCH   4  16
ATOM     16  N   UNL     1       7.124   0.107  22.786  0.00  0.00    +0.082 NA
ATOM     17  N   UNL     1       7.893   0.920  22.240  0.00  0.00    -0.014 NA
ATOM     18  N   UNL     1       8.608   1.652  21.737  0.00  0.00    -0.328 NA
ENDBRANCH   4  16
BRANCH   3  19
ATOM     19  C   UNL     1      10.045  -2.044  23.440  0.00  0.00    +0.189 C 
BRANCH  19  20
ATOM     20  O   UNL     1      10.109  -3.326  24.063  0.00  0.00    -0.392 OA
ATOM     21  H   UNL     1      10.308  -3.958  23.349  0.00  0.00    +0.210 HD
ENDBRANCH  19  20
ENDBRANCH   3  19
TORSDOF 4
ENDMDL
MODEL 8
REMARK VINA RESULT:      -6.0      2.860      3.807
REMARK  Name = 
REMARK  5 active torsions:
REMARK  status: ('A' for Active; 'I' for Inactive)
REMARK    1  A    between atoms: C_1  and  C_2
REMARK    2  A    between atoms: N_4  and  C_10
REMARK    3  A    between atoms: C_13  and  N_20
REMARK    4  A    between atoms: C_15  and  C_18
REMARK    5  A    between atoms: C_18  and  O_19
REMARK                            x       y       z     vdW  Elec       q    Type
REMARK                         _______ _______ _______ _____ _____    ______ ____
ROOT
ATOM      1  C   UNL     1       7.360  -2.695  24.381  0.00  0.00    +0.226 C 
ATOM      2  O   UNL     1       7.822  -3.471  25.500  0.00  0.00    -0.349 OA
ATOM      3  C   UNL     1       7.825  -4.855  25.079  0.00  0.00    +0.177 C 
ATOM      4  C   UNL     1       7.739  -4.870  23.542  0.00  0.00    +0.226 C 
ATOM      5  C   UNL     1       7.920  -3.410  23.163  0.00  0.00    +0.091 C 
ENDROOT
BRANCH   1  14
ATOM      6  C   UNL     1      10.919   0.805  24.517  0.00  0.00    +0.051 C 
ATOM      7  C   UNL     1       9.498   0.348  24.571  0.00  0.00    +0.030 A 
ATOM      8  C   UNL     1       8.459   1.381  24.781  0.00  0.00    +0.257 A 
ATOM      9  O   UNL     1       8.735   2.569  24.901  0.00  0.00    -0.267 OA
ATOM     10  N   UNL     1       7.172   0.932  24.831  0.00  0.00    -0.275 N 
ATOM     11  H   UNL     1       6.451   1.623  24.961  0.00  0.00    +0.173 HD
ATOM     12  C   UNL     1       6.761  -0.360  24.649  0.00  0.00    +0.331 A 
ATOM     13  O   UNL     1       5.562  -0.629  24.624  0.00  0.00    -0.246 OA
ATOM     14  N   UNL     1       7.772  -1.301  24.501  0.00  0.00    -0.274 N 
ATOM     15  C   UNL     1       9.101  -0.925  24.451  0.00  0.00    +0.101 A 
ENDBRANCH   1  14
BRANCH   4  16
ATOM     16  N   UNL     1       6.393  -5.304  23.115  0.00  0.00    +0.082 NA
ATOM     17  N   UNL     1       6.195  -5.332  21.886  0.00  0.00    -0.014 NA
ATOM     18  N   UNL     1       6.029  -5.364  20.758  0.00  0.00    -0.328 NA
ENDBRANCH   4  16
BRANCH   3  19
ATOM     19  C   UNL     1       9.092  -5.516  25.615  0.00  0.00    +0.189 C 
BRANCH  19  20
ATOM     20  O   UNL     1      10.214  -5.182  24.800  0.00  0.00    -0.392 OA
ATOM     21  H   UNL     1      10.261  -5.874  24.116  0.00  0.00    +0.210 HD
ENDBRANCH  19  20
ENDBRANCH   3  19
TORSDOF 4
ENDMDL
MODEL 9
REMARK VINA RESULT:      -6.0      2.036      2.683
REMARK  Name = 
REMARK  5 active torsions:
REMARK  status: ('A' for Active; 'I' for Inactive)
REMARK    1  A    between atoms: C_1  and  C_2
REMARK    2  A    between atoms: N_4  and  C_10
REMARK    3  A    between atoms: C_13  and  N_20
REMARK    4  A    between atoms: C_15  and  C_18
REMARK    5  A    between atoms: C_18  and  O_19
REMARK                            x       y       z     vdW  Elec       q    Type
REMARK                         _______ _______ _______ _____ _____    ______ ____
ROOT
ATOM      1  C   UNL     1       7.661  -2.738  23.986  0.00  0.00    +0.226 C 
ATOM      2  O   UNL     1       8.355  -3.127  25.183  0.00  0.00    -0.349 OA
ATOM      3  C   UNL     1       8.022  -4.514  25.430  0.00  0.00    +0.177 C 
ATOM      4  C   UNL     1       7.429  -5.083  24.128  0.00  0.00    +0.226 C 
ATOM      5  C   UNL     1       7.677  -3.981  23.114  0.00  0.00    +0.091 C 
ENDROOT
BRANCH   1  14
ATOM      6  C   UNL     1       7.360   1.886  22.126  0.00  0.00    +0.051 C 
ATOM      7  C   UNL     1       8.103   0.641  22.485  0.00  0.00    +0.030 A 
ATOM      8  C   UNL     1       9.551   0.600  22.178  0.00  0.00    +0.257 A 
ATOM      9  O   UNL     1      10.133   1.544  21.656  0.00  0.00    -0.267 OA
ATOM     10  N   UNL     1      10.199  -0.551  22.512  0.00  0.00    -0.275 N 
ATOM     11  H   UNL     1      11.188  -0.592  22.322  0.00  0.00    +0.173 HD
ATOM     12  C   UNL     1       9.650  -1.631  23.149  0.00  0.00    +0.331 A 
ATOM     13  O   UNL     1      10.359  -2.577  23.483  0.00  0.00    -0.246 OA
ATOM     14  N   UNL     1       8.282  -1.567  23.376  0.00  0.00    -0.274 N 
ATOM     15  C   UNL     1       7.552  -0.438  23.055  0.00  0.00    +0.101 A 
ENDBRANCH   1  14
BRANCH   4  16
ATOM     16  N   UNL     1       5.971  -5.268  24.276  0.00  0.00    +0.082 NA
ATOM     17  N   UNL     1       5.339  -5.473  23.223  0.00  0.00    -0.014 NA
ATOM     18  N   UNL     1       4.773  -5.672  22.253  0.00  0.00    -0.328 NA
ENDBRANCH   4  16
BRANCH   3  19
ATOM     19  C   UNL     1       9.290  -5.237  25.878  0.00  0.00    +0.189 C 
BRANCH  19  20
ATOM     20  O   UNL     1      10.315  -5.109  24.894  0.00  0.00    -0.392 OA
ATOM     21  H   UNL     1      11.156  -5.223  25.371  0.00  0.00    +0.210 HD
ENDBRANCH  19  20
ENDBRANCH   3  19
TORSDOF 4
ENDMDL
