MODEL 1
REMARK VINA RESULT:      -6.6      0.000      0.000
REMARK  Name = 
REMARK  13 active torsions:
REMARK  status: ('A' for Active; 'I' for Inactive)
REMARK    1  A    between atoms: C_1  and  C_2
REMARK    2  A    between atoms: C_3  and  O_51
REMARK    3  A    between atoms: C_9  and  C_43
REMARK    4  A    between atoms: C_11  and  O_12
REMARK    5  A    between atoms: O_12  and  C_13
REMARK    6  A    between atoms: N_20  and  C_42
REMARK    7  A    between atoms: C_29  and  C_33
REMARK    8  A    between atoms: N_35  and  S_36
REMARK    9  A    between atoms: S_36  and  C_39
REMARK   10  A    between atoms: C_45  and  C_48
REMARK   11  A    between atoms: C_48  and  C_49
REMARK   12  A    between atoms: C_48  and  C_50
REMARK   13  A    between atoms: O_51  and  C_52
REMARK                            x       y       z     vdW  Elec       q    Type
REMARK                         _______ _______ _______ _____ _____    ______ ____
ROOT
ATOM      1  C   UNL     1       4.959  -4.019  23.160  0.00  0.00    +0.175 C 
ATOM      2  C   UNL     1       5.707  -4.449  21.874  0.00  0.00    +0.058 C 
ATOM      3  C   UNL     1       7.182  -4.119  22.261  0.00  0.00    +0.091 C 
ATOM      4  C   UNL     1       7.635  -5.230  23.266  0.00  0.00    +0.219 C 
ATOM      5  N   UNL     1       8.010  -4.882  24.559  0.00  0.00    -0.304 N 
ATOM      6  C   UNL     1       9.351  -5.360  24.877  0.00  0.00    +0.132 C 
ATOM      7  C   UNL     1       7.071  -5.229  25.649  0.00  0.00    +0.107 C 
ATOM      8  C   UNL     1       7.199  -4.306  26.864  0.00  0.00    +0.019 C 
ATOM      9  C   UNL     1       5.838  -3.984  27.516  0.00  0.00    +0.006 C 
ATOM     10  C   UNL     1       5.699  -2.511  27.916  0.00  0.00    +0.027 C 
ATOM     11  C   UNL     1       5.541  -1.543  26.758  0.00  0.00    -0.031 C 
ATOM     12  C   UNL     1       6.558  -0.748  26.378  0.00  0.00    -0.025 C 
ATOM     13  C   UNL     1       6.607   0.423  25.484  0.00  0.00    +0.046 C 
ATOM     14  C   UNL     1       7.137   0.655  24.054  0.00  0.00    +0.119 C 
ATOM     15  N   UNL     1       7.117  -0.423  23.108  0.00  0.00    -0.301 N 
ATOM     16  H   UNL     1       6.267  -0.417  22.543  0.00  0.00    +0.150 HD
ATOM     17  C   UNL     1       7.836  -1.614  23.128  0.00  0.00    +0.218 C 
ATOM     18  O   UNL     1       8.987  -1.770  23.487  0.00  0.00    -0.275 OA
ATOM     19  C   UNL     1       8.068   0.769  25.210  0.00  0.00    +0.046 C 
ATOM     20  O   UNL     1       7.664  -6.409  22.893  0.00  0.00    -0.275 OA
ATOM     21  C   UNL     1       6.893  -2.683  22.639  0.00  0.00    +0.090 C 
ATOM     22  C   UNL     1       5.713  -2.784  23.604  0.00  0.00    +0.058 C 
ENDROOT
BRANCH  14  23
ATOM     23  C   UNL     1       6.721   1.968  23.410  0.00  0.00    +0.256 C 
ATOM     24  N   UNL     1       7.480   3.074  23.799  0.00  0.00    -0.188 N 
ATOM     25  H   UNL     1       8.317   2.956  24.357  0.00  0.00    +0.176 HD
ATOM     26  O   UNL     1       5.796   2.004  22.612  0.00  0.00    -0.272 OA
BRANCH  24  27
ATOM     27  S   UNL     1       7.159   4.623  23.356  0.00  0.00    +0.048 S 
ATOM     28  O   UNL     1       5.858   4.972  23.854  0.00  0.00    -0.155 OA
ATOM     29  O   UNL     1       7.446   4.679  21.926  0.00  0.00    -0.155 OA
BRANCH  27  30
ATOM     30  C   UNL     1       8.354   5.707  24.201  0.00  0.00    +0.151 C 
ATOM     31  C   UNL     1       9.395   6.363  23.342  0.00  0.00    +0.030 C 
ATOM     32  C   UNL     1       9.767   5.179  24.192  0.00  0.00    +0.030 C 
ENDBRANCH  27  30
ENDBRANCH  24  27
ENDBRANCH  14  23
BRANCH   1  33
ATOM     33  O   UNL     1       3.573  -3.684  23.150  0.00  0.00    -0.488 OA
BRANCH  33  40
ATOM     34  C   UNL     1       1.392  -7.895  27.087  0.00  0.00    +0.050 C 
ATOM     35  C   UNL     1       1.812  -7.416  25.715  0.00  0.00    +0.017 A 
ATOM     36  C   UNL     1       2.087  -6.050  25.564  0.00  0.00    +0.082 A 
ATOM     37  N   UNL     1       1.930  -5.225  26.629  0.00  0.00    -0.244 NA
ATOM     38  C   UNL     1       2.230  -3.923  26.491  0.00  0.00    +0.100 A 
ATOM     39  C   UNL     1       2.716  -3.411  25.317  0.00  0.00    +0.076 A 
ATOM     40  C   UNL     1       2.911  -4.231  24.228  0.00  0.00    +0.132 A 
ATOM     41  C   UNL     1       2.554  -5.585  24.305  0.00  0.00    +0.043 A 
ATOM     42  C   UNL     1       2.628  -6.484  23.219  0.00  0.00    +0.017 A 
ATOM     43  C   UNL     1       2.321  -7.835  23.384  0.00  0.00    +0.047 A 
ATOM     44  C   UNL     1       1.946  -8.318  24.637  0.00  0.00    +0.125 A 
BRANCH  38  45
ATOM     45  C   UNL     1       2.184  -2.983  27.617  0.00  0.00    +0.127 A 
ATOM     46  S   UNL     1       2.186  -3.468  29.257  0.00  0.00    -0.074 S 
ATOM     47  C   UNL     1       2.380  -1.826  29.726  0.00  0.00    +0.070 A 
ATOM     48  C   UNL     1       2.404  -1.000  28.621  0.00  0.00    +0.052 A 
ATOM     49  N   UNL     1       2.262  -1.670  27.432  0.00  0.00    -0.242 NA
BRANCH  48  50
ATOM     50  C   UNL     1       2.555   0.500  28.589  0.00  0.00    +0.032 C 
ATOM     51  C   UNL     1       2.703   1.014  27.156  0.00  0.00    +0.014 C 
ATOM     52  C   UNL     1       3.740   0.980  29.437  0.00  0.00    +0.014 C 
ENDBRANCH  48  50
ENDBRANCH  38  45
BRANCH  44  53
ATOM     53  O   UNL     1       1.680  -9.631  24.921  0.00  0.00    -0.495 OA
ATOM     54  C   UNL     1       0.443 -10.180  24.486  0.00  0.00    +0.277 C 
ENDBRANCH  44  53
ENDBRANCH  33  40
ENDBRANCH   1  33
TORSDOF 8
ENDMDL
MODEL 2
REMARK VINA RESULT:      -6.5      2.516      9.915
REMARK  Name = 
REMARK  13 active torsions:
REMARK  status: ('A' for Active; 'I' for Inactive)
REMARK    1  A    between atoms: C_1  and  C_2
REMARK    2  A    between atoms: C_3  and  O_51
REMARK    3  A    between atoms: C_9  and  C_43
REMARK    4  A    between atoms: C_11  and  O_12
REMARK    5  A    between atoms: O_12  and  C_13
REMARK    6  A    between atoms: N_20  and  C_42
REMARK    7  A    between atoms: C_29  and  C_33
REMARK    8  A    between atoms: N_35  and  S_36
REMARK    9  A    between atoms: S_36  and  C_39
REMARK   10  A    between atoms: C_45  and  C_48
REMARK   11  A    between atoms: C_48  and  C_49
REMARK   12  A    between atoms: C_48  and  C_50
REMARK   13  A    between atoms: O_51  and  C_52
REMARK                            x       y       z     vdW  Elec       q    Type
REMARK                         _______ _______ _______ _____ _____    ______ ____
ROOT
ATOM      1  C   UNL     1       4.563   2.147  25.765  0.00  0.00    +0.175 C 
ATOM      2  C   UNL     1       3.482   3.012  26.460  0.00  0.00    +0.058 C 
ATOM      3  C   UNL     1       3.414   2.335  27.865  0.00  0.00    +0.091 C 
ATOM      4  C   UNL     1       4.703   2.777  28.633  0.00  0.00    +0.219 C 
ATOM      5  N   UNL     1       5.623   1.821  29.049  0.00  0.00    -0.304 N 
ATOM      6  C   UNL     1       5.871   1.901  30.485  0.00  0.00    +0.132 C 
ATOM      7  C   UNL     1       6.905   1.754  28.312  0.00  0.00    +0.107 C 
ATOM      8  C   UNL     1       7.549   0.366  28.360  0.00  0.00    +0.019 C 
ATOM      9  C   UNL     1       8.229  -0.024  27.030  0.00  0.00    +0.006 C 
ATOM     10  C   UNL     1       7.963  -1.478  26.626  0.00  0.00    +0.027 C 
ATOM     11  C   UNL     1       6.548  -1.767  26.159  0.00  0.00    -0.031 C 
ATOM     12  C   UNL     1       5.683  -2.431  26.947  0.00  0.00    -0.025 C 
ATOM     13  C   UNL     1       4.374  -3.050  26.664  0.00  0.00    +0.046 C 
ATOM     14  C   UNL     1       2.917  -2.667  26.995  0.00  0.00    +0.119 C 
ATOM     15  N   UNL     1       2.558  -1.283  27.110  0.00  0.00    -0.301 N 
ATOM     16  H   UNL     1       2.211  -0.906  26.228  0.00  0.00    +0.150 HD
ATOM     17  C   UNL     1       2.966  -0.352  28.060  0.00  0.00    +0.218 C 
ATOM     18  O   UNL     1       3.143  -0.545  29.248  0.00  0.00    -0.275 OA
ATOM     19  C   UNL     1       3.719  -3.434  27.988  0.00  0.00    +0.046 C 
ATOM     20  O   UNL     1       4.884   3.977  28.872  0.00  0.00    -0.275 OA
ATOM     21  C   UNL     1       3.172   0.944  27.320  0.00  0.00    +0.090 C 
ATOM     22  C   UNL     1       4.279   0.754  26.284  0.00  0.00    +0.058 C 
ENDROOT
BRANCH  14  23
ATOM     23  C   UNL     1       1.852  -3.458  26.255  0.00  0.00    +0.256 C 
ATOM     24  N   UNL     1       2.315  -4.621  25.635  0.00  0.00    -0.188 N 
ATOM     25  H   UNL     1       3.257  -4.954  25.798  0.00  0.00    +0.176 HD
ATOM     26  O   UNL     1       0.691  -3.075  26.238  0.00  0.00    -0.272 OA
BRANCH  24  27
ATOM     27  S   UNL     1       1.403  -5.583  24.665  0.00  0.00    +0.048 S 
ATOM     28  O   UNL     1       0.827  -4.765  23.633  0.00  0.00    -0.155 OA
ATOM     29  O   UNL     1       0.548  -6.341  25.574  0.00  0.00    -0.155 OA
BRANCH  27  30
ATOM     30  C   UNL     1       2.515  -6.764  23.840  0.00  0.00    +0.151 C 
ATOM     31  C   UNL     1       3.879  -6.942  24.442  0.00  0.00    +0.030 C 
ATOM     32  C   UNL     1       3.716  -6.119  23.193  0.00  0.00    +0.030 C 
ENDBRANCH  27  30
ENDBRANCH  24  27
ENDBRANCH  14  23
BRANCH   1  33
ATOM     33  O   UNL     1       4.658   2.056  24.346  0.00  0.00    -0.488 OA
BRANCH  33  40
ATOM     34  C   UNL     1      10.444   4.018  23.533  0.00  0.00    +0.050 C 
ATOM     35  C   UNL     1       8.957   4.230  23.713  0.00  0.00    +0.017 A 
ATOM     36  C   UNL     1       8.132   3.098  23.654  0.00  0.00    +0.082 A 
ATOM     37  N   UNL     1       8.691   1.889  23.405  0.00  0.00    -0.244 NA
ATOM     38  C   UNL     1       7.903   0.800  23.386  0.00  0.00    +0.100 A 
ATOM     39  C   UNL     1       6.558   0.875  23.639  0.00  0.00    +0.076 A 
ATOM     40  C   UNL     1       5.969   2.087  23.922  0.00  0.00    +0.132 A 
ATOM     41  C   UNL     1       6.740   3.258  23.892  0.00  0.00    +0.043 A 
ATOM     42  C   UNL     1       6.213   4.555  24.076  0.00  0.00    +0.017 A 
ATOM     43  C   UNL     1       7.049   5.672  24.102  0.00  0.00    +0.047 A 
ATOM     44  C   UNL     1       8.427   5.516  23.956  0.00  0.00    +0.125 A 
BRANCH  38  45
ATOM     45  C   UNL     1       8.439  -0.555  23.223  0.00  0.00    +0.127 A 
ATOM     46  S   UNL     1      10.053  -0.985  23.587  0.00  0.00    -0.074 S 
ATOM     47  C   UNL     1       9.647  -2.640  23.359  0.00  0.00    +0.070 A 
ATOM     48  C   UNL     1       8.323  -2.774  22.994  0.00  0.00    +0.052 A 
ATOM     49  N   UNL     1       7.659  -1.578  22.893  0.00  0.00    -0.242 NA
BRANCH  48  50
ATOM     50  C   UNL     1       7.568  -4.046  22.700  0.00  0.00    +0.032 C 
ATOM     51  C   UNL     1       6.277  -3.761  21.931  0.00  0.00    +0.014 C 
ATOM     52  C   UNL     1       7.248  -4.836  23.975  0.00  0.00    +0.014 C 
ENDBRANCH  48  50
ENDBRANCH  38  45
BRANCH  44  53
ATOM     53  O   UNL     1       9.341   6.534  24.023  0.00  0.00    -0.495 OA
ATOM     54  C   UNL     1       9.624   7.105  25.294  0.00  0.00    +0.277 C 
ENDBRANCH  44  53
ENDBRANCH  33  40
ENDBRANCH   1  33
TORSDOF 8
ENDMDL
MODEL 3
REMARK VINA RESULT:      -6.0      1.526      2.211
REMARK  Name = 
REMARK  13 active torsions:
REMARK  status: ('A' for Active; 'I' for Inactive)
REMARK    1  A    between atoms: C_1  and  C_2
REMARK    2  A    between atoms: C_3  and  O_51
REMARK    3  A    between atoms: C_9  and  C_43
REMARK    4  A    between atoms: C_11  and  O_12
REMARK    5  A    between atoms: O_12  and  C_13
REMARK    6  A    between atoms: N_20  and  C_42
REMARK    7  A    between atoms: C_29  and  C_33
REMARK    8  A    between atoms: N_35  and  S_36
REMARK    9  A    between atoms: S_36  and  C_39
REMARK   10  A    between atoms: C_45  and  C_48
REMARK   11  A    between atoms: C_48  and  C_49
REMARK   12  A    between atoms: C_48  and  C_50
REMARK   13  A    between atoms: O_51  and  C_52
REMARK                            x       y       z     vdW  Elec       q    Type
REMARK                         _______ _______ _______ _____ _____    ______ ____
ROOT
ATOM      1  C   UNL     1       4.703  -4.021  23.377  0.00  0.00    +0.175 C 
ATOM      2  C   UNL     1       5.489  -4.309  22.073  0.00  0.00    +0.058 C 
ATOM      3  C   UNL     1       6.945  -3.968  22.519  0.00  0.00    +0.091 C 
ATOM      4  C   UNL     1       7.417  -5.149  23.430  0.00  0.00    +0.219 C 
ATOM      5  N   UNL     1       7.757  -4.906  24.757  0.00  0.00    -0.304 N 
ATOM      6  C   UNL     1       9.108  -5.367  25.060  0.00  0.00    +0.132 C 
ATOM      7  C   UNL     1       6.810  -5.381  25.792  0.00  0.00    +0.107 C 
ATOM      8  C   UNL     1       6.885  -4.567  27.086  0.00  0.00    +0.019 C 
ATOM      9  C   UNL     1       5.502  -4.349  27.736  0.00  0.00    +0.006 C 
ATOM     10  C   UNL     1       5.305  -2.924  28.263  0.00  0.00    +0.027 C 
ATOM     11  C   UNL     1       5.135  -1.861  27.193  0.00  0.00    -0.031 C 
ATOM     12  C   UNL     1       6.130  -1.003  26.907  0.00  0.00    -0.025 C 
ATOM     13  C   UNL     1       6.155   0.245  26.122  0.00  0.00    +0.046 C 
ATOM     14  C   UNL     1       6.702   0.622  24.730  0.00  0.00    +0.119 C 
ATOM     15  N   UNL     1       6.737  -0.367  23.692  0.00  0.00    -0.301 N 
ATOM     16  H   UNL     1       5.897  -0.338  23.112  0.00  0.00    +0.150 HD
ATOM     17  C   UNL     1       7.496  -1.531  23.620  0.00  0.00    +0.218 C 
ATOM     18  O   UNL     1       8.645  -1.680  23.988  0.00  0.00    -0.275 OA
ATOM     19  C   UNL     1       7.608   0.662  25.911  0.00  0.00    +0.046 C 
ATOM     20  O   UNL     1       7.494  -6.288  22.954  0.00  0.00    -0.275 OA
ATOM     21  C   UNL     1       6.600  -2.582  23.018  0.00  0.00    +0.090 C 
ATOM     22  C   UNL     1       5.406  -2.807  23.945  0.00  0.00    +0.058 C 
ENDROOT
BRANCH  14  23
ATOM     23  C   UNL     1       6.253   1.973  24.197  0.00  0.00    +0.256 C 
ATOM     24  N   UNL     1       4.869   2.127  24.090  0.00  0.00    -0.188 N 
ATOM     25  H   UNL     1       4.241   1.430  24.473  0.00  0.00    +0.176 HD
ATOM     26  O   UNL     1       7.074   2.832  23.908  0.00  0.00    -0.272 OA
BRANCH  24  27
ATOM     27  S   UNL     1       4.128   3.432  23.424  0.00  0.00    +0.048 S 
ATOM     28  O   UNL     1       4.488   3.492  22.034  0.00  0.00    -0.155 OA
ATOM     29  O   UNL     1       4.435   4.544  24.319  0.00  0.00    -0.155 OA
BRANCH  27  30
ATOM     30  C   UNL     1       2.331   3.151  23.490  0.00  0.00    +0.151 C 
ATOM     31  C   UNL     1       1.619   3.015  22.174  0.00  0.00    +0.030 C 
ATOM     32  C   UNL     1       1.515   4.300  22.951  0.00  0.00    +0.030 C 
ENDBRANCH  27  30
ENDBRANCH  24  27
ENDBRANCH  14  23
BRANCH   1  33
ATOM     33  O   UNL     1       3.307  -3.733  23.368  0.00  0.00    -0.488 OA
BRANCH  33  40
ATOM     34  C   UNL     1       1.333  -8.057  27.292  0.00  0.00    +0.050 C 
ATOM     35  C   UNL     1       1.749  -7.559  25.925  0.00  0.00    +0.017 A 
ATOM     36  C   UNL     1       1.934  -6.178  25.769  0.00  0.00    +0.082 A 
ATOM     37  N   UNL     1       1.699  -5.360  26.824  0.00  0.00    -0.244 NA
ATOM     38  C   UNL     1       1.913  -4.041  26.683  0.00  0.00    +0.100 A 
ATOM     39  C   UNL     1       2.388  -3.505  25.514  0.00  0.00    +0.076 A 
ATOM     40  C   UNL     1       2.661  -4.316  24.436  0.00  0.00    +0.132 A 
ATOM     41  C   UNL     1       2.395  -5.691  24.516  0.00  0.00    +0.043 A 
ATOM     42  C   UNL     1       2.552  -6.589  23.438  0.00  0.00    +0.017 A 
ATOM     43  C   UNL     1       2.333  -7.957  23.607  0.00  0.00    +0.047 A 
ATOM     44  C   UNL     1       1.965  -8.457  24.856  0.00  0.00    +0.125 A 
BRANCH  38  45
ATOM     45  C   UNL     1       1.781  -3.099  27.800  0.00  0.00    +0.127 A 
ATOM     46  S   UNL     1       1.795  -3.571  29.443  0.00  0.00    -0.074 S 
ATOM     47  C   UNL     1       1.858  -1.916  29.902  0.00  0.00    +0.070 A 
ATOM     48  C   UNL     1       1.837  -1.098  28.791  0.00  0.00    +0.052 A 
ATOM     49  N   UNL     1       1.763  -1.786  27.605  0.00  0.00    -0.242 NA
BRANCH  48  50
ATOM     50  C   UNL     1       1.876   0.408  28.749  0.00  0.00    +0.032 C 
ATOM     51  C   UNL     1       0.467   1.002  28.745  0.00  0.00    +0.014 C 
ATOM     52  C   UNL     1       2.662   0.932  27.540  0.00  0.00    +0.014 C 
ENDBRANCH  48  50
ENDBRANCH  38  45
BRANCH  44  53
ATOM     53  O   UNL     1       1.783  -9.783  25.145  0.00  0.00    -0.495 OA
ATOM     54  C   UNL     1       0.560 -10.397  24.759  0.00  0.00    +0.277 C 
ENDBRANCH  44  53
ENDBRANCH  33  40
ENDBRANCH   1  33
TORSDOF 8
ENDMDL
MODEL 4
REMARK VINA RESULT:      -5.8      3.644     10.088
REMARK  Name = 
REMARK  13 active torsions:
REMARK  status: ('A' for Active; 'I' for Inactive)
REMARK    1  A    between atoms: C_1  and  C_2
REMARK    2  A    between atoms: C_3  and  O_51
REMARK    3  A    between atoms: C_9  and  C_43
REMARK    4  A    between atoms: C_11  and  O_12
REMARK    5  A    between atoms: O_12  and  C_13
REMARK    6  A    between atoms: N_20  and  C_42
REMARK    7  A    between atoms: C_29  and  C_33
REMARK    8  A    between atoms: N_35  and  S_36
REMARK    9  A    between atoms: S_36  and  C_39
REMARK   10  A    between atoms: C_45  and  C_48
REMARK   11  A    between atoms: C_48  and  C_49
REMARK   12  A    between atoms: C_48  and  C_50
REMARK   13  A    between atoms: O_51  and  C_52
REMARK                            x       y       z     vdW  Elec       q    Type
REMARK                         _______ _______ _______ _____ _____    ______ ____
ROOT
ATOM      1  C   UNL     1       5.807   0.896  24.475  0.00  0.00    +0.175 C 
ATOM      2  C   UNL     1       5.123   1.084  25.852  0.00  0.00    +0.058 C 
ATOM      3  C   UNL     1       5.802  -0.051  26.681  0.00  0.00    +0.091 C 
ATOM      4  C   UNL     1       7.256   0.436  26.990  0.00  0.00    +0.219 C 
ATOM      5  N   UNL     1       8.344  -0.290  26.517  0.00  0.00    -0.304 N 
ATOM      6  C   UNL     1       9.246  -0.676  27.598  0.00  0.00    +0.132 C 
ATOM      7  C   UNL     1       9.111   0.300  25.397  0.00  0.00    +0.107 C 
ATOM      8  C   UNL     1       9.820  -0.751  24.539  0.00  0.00    +0.019 C 
ATOM      9  C   UNL     1       9.805  -0.405  23.035  0.00  0.00    +0.006 C 
ATOM     10  C   UNL     1       9.508  -1.616  22.145  0.00  0.00    +0.027 C 
ATOM     11  C   UNL     1       8.076  -2.116  22.195  0.00  0.00    -0.031 C 
ATOM     12  C   UNL     1       7.761  -3.246  22.853  0.00  0.00    -0.025 C 
ATOM     13  C   UNL     1       6.540  -4.073  22.856  0.00  0.00    +0.046 C 
ATOM     14  C   UNL     1       5.396  -4.286  23.868  0.00  0.00    +0.119 C 
ATOM     15  N   UNL     1       5.015  -3.214  24.742  0.00  0.00    -0.301 N 
ATOM     16  H   UNL     1       4.253  -2.659  24.352  0.00  0.00    +0.150 HD
ATOM     17  C   UNL     1       5.746  -2.624  25.768  0.00  0.00    +0.218 C 
ATOM     18  O   UNL     1       6.490  -3.180  26.552  0.00  0.00    -0.275 OA
ATOM     19  C   UNL     1       6.642  -5.093  23.987  0.00  0.00    +0.046 C 
ATOM     20  O   UNL     1       7.422   1.458  27.665  0.00  0.00    -0.275 OA
ATOM     21  C   UNL     1       5.452  -1.148  25.699  0.00  0.00    +0.090 C 
ATOM     22  C   UNL     1       5.934  -0.608  24.353  0.00  0.00    +0.058 C 
ENDROOT
BRANCH  14  23
ATOM     23  C   UNL     1       4.181  -5.025  23.331  0.00  0.00    +0.256 C 
ATOM     24  N   UNL     1       3.015  -4.851  24.080  0.00  0.00    -0.188 N 
ATOM     25  H   UNL     1       2.981  -4.175  24.833  0.00  0.00    +0.176 HD
ATOM     26  O   UNL     1       4.261  -5.699  22.314  0.00  0.00    -0.272 OA
BRANCH  24  27
ATOM     27  S   UNL     1       1.602  -5.639  23.796  0.00  0.00    +0.048 S 
ATOM     28  O   UNL     1       1.193  -5.355  22.448  0.00  0.00    -0.155 OA
ATOM     29  O   UNL     1       0.739  -5.294  24.922  0.00  0.00    -0.155 OA
BRANCH  27  30
ATOM     30  C   UNL     1       1.930  -7.428  23.880  0.00  0.00    +0.151 C 
ATOM     31  C   UNL     1       1.377  -8.269  22.766  0.00  0.00    +0.030 C 
ATOM     32  C   UNL     1       0.694  -8.263  24.106  0.00  0.00    +0.030 C 
ENDBRANCH  27  30
ENDBRANCH  24  27
ENDBRANCH  14  23
BRANCH   1  33
ATOM     33  O   UNL     1       5.213   1.367  23.268  0.00  0.00    -0.488 OA
BRANCH  33  40
ATOM     34  C   UNL     1       7.392   7.105  22.715  0.00  0.00    +0.050 C 
ATOM     35  C   UNL     1       7.483   5.661  23.155  0.00  0.00    +0.017 A 
ATOM     36  C   UNL     1       6.322   4.882  23.060  0.00  0.00    +0.082 A 
ATOM     37  N   UNL     1       5.177   5.460  22.622  0.00  0.00    -0.244 NA
ATOM     38  C   UNL     1       4.073   4.703  22.496  0.00  0.00    +0.100 A 
ATOM     39  C   UNL     1       4.081   3.360  22.771  0.00  0.00    +0.076 A 
ATOM     40  C   UNL     1       5.237   2.742  23.192  0.00  0.00    +0.132 A 
ATOM     41  C   UNL     1       6.397   3.504  23.396  0.00  0.00    +0.043 A 
ATOM     42  C   UNL     1       7.603   2.981  23.914  0.00  0.00    +0.017 A 
ATOM     43  C   UNL     1       8.740   3.782  24.028  0.00  0.00    +0.047 A 
ATOM     44  C   UNL     1       8.701   5.115  23.618  0.00  0.00    +0.125 A 
BRANCH  38  45
ATOM     45  C   UNL     1       2.822   5.224  21.935  0.00  0.00    +0.127 A 
ATOM     46  S   UNL     1       1.903   6.468  22.663  0.00  0.00    -0.074 S 
ATOM     47  C   UNL     1       0.912   6.535  21.261  0.00  0.00    +0.070 A 
ATOM     48  C   UNL     1       1.312   5.596  20.332  0.00  0.00    +0.052 A 
ATOM     49  N   UNL     1       2.380   4.839  20.743  0.00  0.00    -0.242 NA
BRANCH  48  50
ATOM     50  C   UNL     1       0.715   5.323  18.975  0.00  0.00    +0.032 C 
ATOM     51  C   UNL     1       1.606   4.390  18.152  0.00  0.00    +0.014 C 
ATOM     52  C   UNL     1       0.451   6.614  18.189  0.00  0.00    +0.014 C 
ENDBRANCH  48  50
ENDBRANCH  38  45
BRANCH  44  53
ATOM     53  O   UNL     1       9.771   5.969  23.632  0.00  0.00    -0.495 OA
ATOM     54  C   UNL     1      11.073   5.424  23.468  0.00  0.00    +0.277 C 
ENDBRANCH  44  53
ENDBRANCH  33  40
ENDBRANCH   1  33
TORSDOF 8
ENDMDL
MODEL 5
REMARK VINA RESULT:      -5.7      3.281      4.586
REMARK  Name = 
REMARK  13 active torsions:
REMARK  status: ('A' for Active; 'I' for Inactive)
REMARK    1  A    between atoms: C_1  and  C_2
REMARK    2  A    between atoms: C_3  and  O_51
REMARK    3  A    between atoms: C_9  and  C_43
REMARK    4  A    between atoms: C_11  and  O_12
REMARK    5  A    between atoms: O_12  and  C_13
REMARK    6  A    between atoms: N_20  and  C_42
REMARK    7  A    between atoms: C_29  and  C_33
REMARK    8  A    between atoms: N_35  and  S_36
REMARK    9  A    between atoms: S_36  and  C_39
REMARK   10  A    between atoms: C_45  and  C_48
REMARK   11  A    between atoms: C_48  and  C_49
REMARK   12  A    between atoms: C_48  and  C_50
REMARK   13  A    between atoms: O_51  and  C_52
REMARK                            x       y       z     vdW  Elec       q    Type
REMARK                         _______ _______ _______ _____ _____    ______ ____
ROOT
ATOM      1  C   UNL     1       6.145  -1.908  23.864  0.00  0.00    +0.175 C 
ATOM      2  C   UNL     1       7.076  -2.096  22.641  0.00  0.00    +0.058 C 
ATOM      3  C   UNL     1       8.004  -0.849  22.776  0.00  0.00    +0.091 C 
ATOM      4  C   UNL     1       8.983  -1.151  23.958  0.00  0.00    +0.219 C 
ATOM      5  N   UNL     1       8.982  -0.334  25.084  0.00  0.00    -0.304 N 
ATOM      6  C   UNL     1      10.308   0.209  25.357  0.00  0.00    +0.132 C 
ATOM      7  C   UNL     1       8.393  -0.894  26.321  0.00  0.00    +0.107 C 
ATOM      8  C   UNL     1       7.847   0.183  27.262  0.00  0.00    +0.019 C 
ATOM      9  C   UNL     1       6.541  -0.244  27.966  0.00  0.00    +0.006 C 
ATOM     10  C   UNL     1       5.497   0.876  28.020  0.00  0.00    +0.027 C 
ATOM     11  C   UNL     1       4.845   1.213  26.691  0.00  0.00    -0.031 C 
ATOM     12  C   UNL     1       5.174   2.335  26.025  0.00  0.00    -0.025 C 
ATOM     13  C   UNL     1       4.543   3.017  24.880  0.00  0.00    +0.046 C 
ATOM     14  C   UNL     1       4.904   3.155  23.387  0.00  0.00    +0.119 C 
ATOM     15  N   UNL     1       5.614   2.095  22.730  0.00  0.00    -0.301 N 
ATOM     16  H   UNL     1       4.979   1.437  22.276  0.00  0.00    +0.150 HD
ATOM     17  C   UNL     1       6.912   1.648  22.951  0.00  0.00    +0.218 C 
ATOM     18  O   UNL     1       7.888   2.326  23.208  0.00  0.00    -0.275 OA
ATOM     19  C   UNL     1       5.491   4.102  24.374  0.00  0.00    +0.046 C 
ATOM     20  O   UNL     1       9.758  -2.110  23.873  0.00  0.00    -0.275 OA
ATOM     21  C   UNL     1       6.866   0.146  22.834  0.00  0.00    +0.090 C 
ATOM     22  C   UNL     1       5.944  -0.408  23.919  0.00  0.00    +0.058 C 
ENDROOT
BRANCH  14  23
ATOM     23  C   UNL     1       3.806   3.722  22.501  0.00  0.00    +0.256 C 
ATOM     24  N   UNL     1       2.863   2.786  22.070  0.00  0.00    -0.188 N 
ATOM     25  H   UNL     1       2.860   1.845  22.445  0.00  0.00    +0.176 HD
ATOM     26  O   UNL     1       3.783   4.912  22.223  0.00  0.00    -0.272 OA
BRANCH  24  27
ATOM     27  S   UNL     1       1.656   3.107  21.004  0.00  0.00    +0.048 S 
ATOM     28  O   UNL     1       0.670   3.911  21.670  0.00  0.00    -0.155 OA
ATOM     29  O   UNL     1       1.296   1.812  20.433  0.00  0.00    -0.155 OA
BRANCH  27  30
ATOM     30  C   UNL     1       2.348   4.127  19.664  0.00  0.00    +0.151 C 
ATOM     31  C   UNL     1       1.549   5.329  19.249  0.00  0.00    +0.030 C 
ATOM     32  C   UNL     1       1.537   4.092  18.392  0.00  0.00    +0.030 C 
ENDBRANCH  27  30
ENDBRANCH  24  27
ENDBRANCH  14  23
BRANCH   1  33
ATOM     33  O   UNL     1       4.853  -2.507  23.928  0.00  0.00    -0.488 OA
BRANCH  33  40
ATOM     34  C   UNL     1       5.214  -4.645  29.697  0.00  0.00    +0.050 C 
ATOM     35  C   UNL     1       5.528  -4.686  28.217  0.00  0.00    +0.017 A 
ATOM     36  C   UNL     1       4.825  -3.805  27.384  0.00  0.00    +0.082 A 
ATOM     37  N   UNL     1       3.883  -2.995  27.927  0.00  0.00    -0.244 NA
ATOM     38  C   UNL     1       3.238  -2.125  27.132  0.00  0.00    +0.100 A 
ATOM     39  C   UNL     1       3.524  -2.015  25.797  0.00  0.00    +0.076 A 
ATOM     40  C   UNL     1       4.495  -2.805  25.224  0.00  0.00    +0.132 A 
ATOM     41  C   UNL     1       5.152  -3.770  26.002  0.00  0.00    +0.043 A 
ATOM     42  C   UNL     1       6.093  -4.689  25.488  0.00  0.00    +0.017 A 
ATOM     43  C   UNL     1       6.759  -5.579  26.332  0.00  0.00    +0.047 A 
ATOM     44  C   UNL     1       6.510  -5.561  27.704  0.00  0.00    +0.125 A 
BRANCH  38  45
ATOM     45  C   UNL     1       2.278  -1.146  27.655  0.00  0.00    +0.127 A 
ATOM     46  S   UNL     1       1.565  -1.253  29.205  0.00  0.00    -0.074 S 
ATOM     47  C   UNL     1       0.904   0.319  28.992  0.00  0.00    +0.070 A 
ATOM     48  C   UNL     1       1.234   0.826  27.752  0.00  0.00    +0.052 A 
ATOM     49  N   UNL     1       1.991  -0.031  26.993  0.00  0.00    -0.242 NA
BRANCH  48  50
ATOM     50  C   UNL     1       0.857   2.164  27.167  0.00  0.00    +0.032 C 
ATOM     51  C   UNL     1       0.887   2.132  25.638  0.00  0.00    +0.014 C 
ATOM     52  C   UNL     1       1.759   3.293  27.680  0.00  0.00    +0.014 C 
ENDBRANCH  48  50
ENDBRANCH  38  45
BRANCH  44  53
ATOM     53  O   UNL     1       7.149  -6.348  28.625  0.00  0.00    -0.495 OA
ATOM     54  C   UNL     1       6.384  -7.315  29.334  0.00  0.00    +0.277 C 
ENDBRANCH  44  53
ENDBRANCH  33  40
ENDBRANCH   1  33
TORSDOF 8
ENDMDL
MODEL 6
REMARK VINA RESULT:      -5.7      2.771      9.479
REMARK  Name = 
REMARK  13 active torsions:
REMARK  status: ('A' for Active; 'I' for Inactive)
REMARK    1  A    between atoms: C_1  and  C_2
REMARK    2  A    between atoms: C_3  and  O_51
REMARK    3  A    between atoms: C_9  and  C_43
REMARK    4  A    between atoms: C_11  and  O_12
REMARK    5  A    between atoms: O_12  and  C_13
REMARK    6  A    between atoms: N_20  and  C_42
REMARK    7  A    between atoms: C_29  and  C_33
REMARK    8  A    between atoms: N_35  and  S_36
REMARK    9  A    between atoms: S_36  and  C_39
REMARK   10  A    between atoms: C_45  and  C_48
REMARK   11  A    between atoms: C_48  and  C_49
REMARK   12  A    between atoms: C_48  and  C_50
REMARK   13  A    between atoms: O_51  and  C_52
REMARK                            x       y       z     vdW  Elec       q    Type
REMARK                         _______ _______ _______ _____ _____    ______ ____
ROOT
ATOM      1  C   UNL     1       6.368  -0.064  25.212  0.00  0.00    +0.175 C 
ATOM      2  C   UNL     1       7.490   0.485  26.128  0.00  0.00    +0.058 C 
ATOM      3  C   UNL     1       8.492  -0.711  26.125  0.00  0.00    +0.091 C 
ATOM      4  C   UNL     1       9.198  -0.694  24.729  0.00  0.00    +0.219 C 
ATOM      5  N   UNL     1       9.064  -1.781  23.872  0.00  0.00    -0.304 N 
ATOM      6  C   UNL     1      10.362  -2.319  23.478  0.00  0.00    +0.132 C 
ATOM      7  C   UNL     1       8.203  -1.599  22.682  0.00  0.00    +0.107 C 
ATOM      8  C   UNL     1       7.596  -2.910  22.178  0.00  0.00    +0.019 C 
ATOM      9  C   UNL     1       6.147  -2.744  21.675  0.00  0.00    +0.006 C 
ATOM     10  C   UNL     1       5.224  -3.883  22.122  0.00  0.00    +0.027 C 
ATOM     11  C   UNL     1       4.869  -3.880  23.598  0.00  0.00    -0.031 C 
ATOM     12  C   UNL     1       5.423  -4.768  24.443  0.00  0.00    -0.025 C 
ATOM     13  C   UNL     1       5.087  -5.146  25.828  0.00  0.00    +0.046 C 
ATOM     14  C   UNL     1       5.733  -4.864  27.200  0.00  0.00    +0.119 C 
ATOM     15  N   UNL     1       6.448  -3.638  27.407  0.00  0.00    -0.301 N 
ATOM     16  H   UNL     1       5.849  -2.910  27.800  0.00  0.00    +0.150 HD
ATOM     17  C   UNL     1       7.632  -3.209  26.817  0.00  0.00    +0.218 C 
ATOM     18  O   UNL     1       8.604  -3.888  26.544  0.00  0.00    -0.275 OA
ATOM     19  C   UNL     1       6.213  -6.014  26.385  0.00  0.00    +0.046 C 
ATOM     20  O   UNL     1       9.879   0.287  24.407  0.00  0.00    -0.275 OA
ATOM     21  C   UNL     1       7.464  -1.734  26.556  0.00  0.00    +0.090 C 
ATOM     22  C   UNL     1       6.306  -1.531  25.581  0.00  0.00    +0.058 C 
ENDROOT
BRANCH  14  23
ATOM     23  C   UNL     1       4.880  -5.221  28.407  0.00  0.00    +0.256 C 
ATOM     24  N   UNL     1       3.805  -6.069  28.131  0.00  0.00    -0.188 N 
ATOM     25  H   UNL     1       3.710  -6.503  27.221  0.00  0.00    +0.176 HD
ATOM     26  O   UNL     1       5.157  -4.785  29.515  0.00  0.00    -0.272 OA
BRANCH  24  27
ATOM     27  S   UNL     1       2.659  -6.501  29.225  0.00  0.00    +0.048 S 
ATOM     28  O   UNL     1       2.079  -5.303  29.765  0.00  0.00    -0.155 OA
ATOM     29  O   UNL     1       3.311  -7.470  30.100  0.00  0.00    -0.155 OA
BRANCH  27  30
ATOM     30  C   UNL     1       1.331  -7.371  28.332  0.00  0.00    +0.151 C 
ATOM     31  C   UNL     1       1.545  -7.605  26.865  0.00  0.00    +0.030 C 
ATOM     32  C   UNL     1       0.616  -6.512  27.319  0.00  0.00    +0.030 C 
ENDBRANCH  27  30
ENDBRANCH  24  27
ENDBRANCH  14  23
BRANCH   1  33
ATOM     33  O   UNL     1       5.036   0.440  25.267  0.00  0.00    -0.488 OA
BRANCH  33  40
ATOM     34  C   UNL     1       4.535   5.609  28.585  0.00  0.00    +0.050 C 
ATOM     35  C   UNL     1       4.183   4.175  28.253  0.00  0.00    +0.017 A 
ATOM     36  C   UNL     1       4.673   3.652  27.048  0.00  0.00    +0.082 A 
ATOM     37  N   UNL     1       5.397   4.454  26.229  0.00  0.00    -0.244 NA
ATOM     38  C   UNL     1       5.897   3.940  25.093  0.00  0.00    +0.100 A 
ATOM     39  C   UNL     1       5.719   2.624  24.754  0.00  0.00    +0.076 A 
ATOM     40  C   UNL     1       5.012   1.781  25.581  0.00  0.00    +0.132 A 
ATOM     41  C   UNL     1       4.420   2.288  26.747  0.00  0.00    +0.043 A 
ATOM     42  C   UNL     1       3.599   1.527  27.609  0.00  0.00    +0.017 A 
ATOM     43  C   UNL     1       3.097   2.077  28.789  0.00  0.00    +0.047 A 
ATOM     44  C   UNL     1       3.413   3.390  29.138  0.00  0.00    +0.125 A 
BRANCH  38  45
ATOM     45  C   UNL     1       6.773   4.708  24.201  0.00  0.00    +0.127 A 
ATOM     46  S   UNL     1       6.241   5.442  22.752  0.00  0.00    -0.074 S 
ATOM     47  C   UNL     1       7.759   6.235  22.614  0.00  0.00    +0.070 A 
ATOM     48  C   UNL     1       8.594   5.880  23.655  0.00  0.00    +0.052 A 
ATOM     49  N   UNL     1       8.028   4.989  24.531  0.00  0.00    -0.242 NA
BRANCH  48  50
ATOM     50  C   UNL     1      10.005   6.345  23.910  0.00  0.00    +0.032 C 
ATOM     51  C   UNL     1      11.014   5.220  23.669  0.00  0.00    +0.014 C 
ATOM     52  C   UNL     1      10.182   6.905  25.327  0.00  0.00    +0.014 C 
ENDBRANCH  48  50
ENDBRANCH  38  45
BRANCH  44  53
ATOM     53  O   UNL     1       3.022   4.006  30.297  0.00  0.00    -0.495 OA
ATOM     54  C   UNL     1       1.640   4.280  30.485  0.00  0.00    +0.277 C 
ENDBRANCH  44  53
ENDBRANCH  33  40
ENDBRANCH   1  33
TORSDOF 8
ENDMDL
MODEL 7
REMARK VINA RESULT:      -5.5      2.746      7.388
REMARK  Name = 
REMARK  13 active torsions:
REMARK  status: ('A' for Active; 'I' for Inactive)
REMARK    1  A    between atoms: C_1  and  C_2
REMARK    2  A    between atoms: C_3  and  O_51
REMARK    3  A    between atoms: C_9  and  C_43
REMARK    4  A    between atoms: C_11  and  O_12
REMARK    5  A    between atoms: O_12  and  C_13
REMARK    6  A    between atoms: N_20  and  C_42
REMARK    7  A    between atoms: C_29  and  C_33
REMARK    8  A    between atoms: N_35  and  S_36
REMARK    9  A    between atoms: S_36  and  C_39
REMARK   10  A    between atoms: C_45  and  C_48
REMARK   11  A    between atoms: C_48  and  C_49
REMARK   12  A    between atoms: C_48  and  C_50
REMARK   13  A    between atoms: O_51  and  C_52
REMARK                            x       y       z     vdW  Elec       q    Type
REMARK                         _______ _______ _______ _____ _____    ______ ____
ROOT
ATOM      1  C   UNL     1       3.669  -2.449  27.597  0.00  0.00    +0.175 C 
ATOM      2  C   UNL     1       2.400  -2.034  26.812  0.00  0.00    +0.058 C 
ATOM      3  C   UNL     1       2.230  -3.252  25.851  0.00  0.00    +0.091 C 
ATOM      4  C   UNL     1       1.682  -4.431  26.722  0.00  0.00    +0.219 C 
ATOM      5  N   UNL     1       2.427  -5.598  26.854  0.00  0.00    -0.304 N 
ATOM      6  C   UNL     1       1.659  -6.774  26.455  0.00  0.00    +0.132 C 
ATOM      7  C   UNL     1       3.083  -5.835  28.159  0.00  0.00    +0.107 C 
ATOM      8  C   UNL     1       4.332  -6.712  28.049  0.00  0.00    +0.019 C 
ATOM      9  C   UNL     1       5.463  -6.265  28.999  0.00  0.00    +0.006 C 
ATOM     10  C   UNL     1       6.846  -6.295  28.341  0.00  0.00    +0.027 C 
ATOM     11  C   UNL     1       7.088  -5.213  27.304  0.00  0.00    -0.031 C 
ATOM     12  C   UNL     1       7.090  -5.503  25.990  0.00  0.00    -0.025 C 
ATOM     13  C   UNL     1       7.531  -4.729  24.815  0.00  0.00    +0.046 C 
ATOM     14  C   UNL     1       6.790  -3.984  23.686  0.00  0.00    +0.119 C 
ATOM     15  N   UNL     1       5.508  -3.396  23.948  0.00  0.00    -0.301 N 
ATOM     16  H   UNL     1       5.588  -2.417  24.223  0.00  0.00    +0.150 HD
ATOM     17  C   UNL     1       4.305  -4.026  24.255  0.00  0.00    +0.218 C 
ATOM     18  O   UNL     1       3.884  -5.068  23.791  0.00  0.00    -0.275 OA
ATOM     19  C   UNL     1       7.057  -5.443  23.552  0.00  0.00    +0.046 C 
ATOM     20  O   UNL     1       0.583  -4.314  27.277  0.00  0.00    -0.275 OA
ATOM     21  C   UNL     1       3.637  -3.172  25.300  0.00  0.00    +0.090 C 
ATOM     22  C   UNL     1       4.521  -3.126  26.545  0.00  0.00    +0.058 C 
ENDROOT
BRANCH  14  23
ATOM     23  C   UNL     1       7.654  -3.075  22.828  0.00  0.00    +0.256 C 
ATOM     24  N   UNL     1       8.640  -2.376  23.529  0.00  0.00    -0.188 N 
ATOM     25  H   UNL     1       8.827  -2.585  24.502  0.00  0.00    +0.176 HD
ATOM     26  O   UNL     1       7.472  -2.999  21.622  0.00  0.00    -0.272 OA
BRANCH  24  27
ATOM     27  S   UNL     1       9.617  -1.235  22.868  0.00  0.00    +0.048 S 
ATOM     28  O   UNL     1       8.948  -0.675  21.727  0.00  0.00    -0.155 OA
ATOM     29  O   UNL     1      10.917  -1.883  22.722  0.00  0.00    -0.155 OA
BRANCH  27  30
ATOM     30  C   UNL     1       9.806   0.112  24.079  0.00  0.00    +0.151 C 
ATOM     31  C   UNL     1      10.386   1.401  23.571  0.00  0.00    +0.030 C 
ATOM     32  C   UNL     1      11.242   0.464  24.379  0.00  0.00    +0.030 C 
ENDBRANCH  27  30
ENDBRANCH  24  27
ENDBRANCH  14  23
BRANCH   1  33
ATOM     33  O   UNL     1       4.495  -1.492  28.254  0.00  0.00    -0.488 OA
BRANCH  33  40
ATOM     34  C   UNL     1       3.148   4.521  28.145  0.00  0.00    +0.050 C 
ATOM     35  C   UNL     1       2.999   3.111  28.673  0.00  0.00    +0.017 A 
ATOM     36  C   UNL     1       3.624   2.083  27.954  0.00  0.00    +0.082 A 
ATOM     37  N   UNL     1       4.293   2.389  26.815  0.00  0.00    -0.244 NA
ATOM     38  C   UNL     1       4.923   1.407  26.149  0.00  0.00    +0.100 A 
ATOM     39  C   UNL     1       4.933   0.114  26.602  0.00  0.00    +0.076 A 
ATOM     40  C   UNL     1       4.285  -0.219  27.770  0.00  0.00    +0.132 A 
ATOM     41  C   UNL     1       3.562   0.760  28.467  0.00  0.00    +0.043 A 
ATOM     42  C   UNL     1       2.790   0.498  29.620  0.00  0.00    +0.017 A 
ATOM     43  C   UNL     1       2.150   1.533  30.304  0.00  0.00    +0.047 A 
ATOM     44  C   UNL     1       2.277   2.849  29.858  0.00  0.00    +0.125 A 
BRANCH  38  45
ATOM     45  C   UNL     1       5.752   1.667  24.966  0.00  0.00    +0.127 A 
ATOM     46  S   UNL     1       6.142   0.477  23.802  0.00  0.00    -0.074 S 
ATOM     47  C   UNL     1       6.820   1.699  22.803  0.00  0.00    +0.070 A 
ATOM     48  C   UNL     1       6.741   2.933  23.414  0.00  0.00    +0.052 A 
ATOM     49  N   UNL     1       6.157   2.893  24.656  0.00  0.00    -0.242 NA
BRANCH  48  50
ATOM     50  C   UNL     1       7.217   4.262  22.884  0.00  0.00    +0.032 C 
ATOM     51  C   UNL     1       8.368   4.816  23.724  0.00  0.00    +0.014 C 
ATOM     52  C   UNL     1       6.084   5.295  22.812  0.00  0.00    +0.014 C 
ENDBRANCH  48  50
ENDBRANCH  38  45
BRANCH  44  53
ATOM     53  O   UNL     1       1.741   3.942  30.485  0.00  0.00    -0.495 OA
ATOM     54  C   UNL     1       0.443   4.374  30.097  0.00  0.00    +0.277 C 
ENDBRANCH  44  53
ENDBRANCH  33  40
ENDBRANCH   1  33
TORSDOF 8
ENDMDL
MODEL 8
REMARK VINA RESULT:      -5.4      4.449      7.563
REMARK  Name = 
REMARK  13 active torsions:
REMARK  status: ('A' for Active; 'I' for Inactive)
REMARK    1  A    between atoms: C_1  and  C_2
REMARK    2  A    between atoms: C_3  and  O_51
REMARK    3  A    between atoms: C_9  and  C_43
REMARK    4  A    between atoms: C_11  and  O_12
REMARK    5  A    between atoms: O_12  and  C_13
REMARK    6  A    between atoms: N_20  and  C_42
REMARK    7  A    between atoms: C_29  and  C_33
REMARK    8  A    between atoms: N_35  and  S_36
REMARK    9  A    between atoms: S_36  and  C_39
REMARK   10  A    between atoms: C_45  and  C_48
REMARK   11  A    between atoms: C_48  and  C_49
REMARK   12  A    between atoms: C_48  and  C_50
REMARK   13  A    between atoms: O_51  and  C_52
REMARK                            x       y       z     vdW  Elec       q    Type
REMARK                         _______ _______ _______ _____ _____    ______ ____
ROOT
ATOM      1  C   UNL     1       7.522  -0.396  26.864  0.00  0.00    +0.175 C 
ATOM      2  C   UNL     1       6.482  -1.542  26.800  0.00  0.00    +0.058 C 
ATOM      3  C   UNL     1       6.446  -1.830  25.266  0.00  0.00    +0.091 C 
ATOM      4  C   UNL     1       7.769  -2.595  24.929  0.00  0.00    +0.219 C 
ATOM      5  N   UNL     1       8.683  -2.039  24.040  0.00  0.00    -0.304 N 
ATOM      6  C   UNL     1       8.979  -2.944  22.935  0.00  0.00    +0.132 C 
ATOM      7  C   UNL     1       9.938  -1.503  24.614  0.00  0.00    +0.107 C 
ATOM      8  C   UNL     1      10.557  -0.391  23.763  0.00  0.00    +0.019 C 
ATOM      9  C   UNL     1      11.184   0.733  24.613  0.00  0.00    +0.006 C 
ATOM     10  C   UNL     1      10.877   2.134  24.074  0.00  0.00    +0.027 C 
ATOM     11  C   UNL     1       9.442   2.594  24.258  0.00  0.00    -0.031 C 
ATOM     12  C   UNL     1       8.590   2.632  23.217  0.00  0.00    -0.025 C 
ATOM     13  C   UNL     1       7.261   3.251  23.059  0.00  0.00    +0.046 C 
ATOM     14  C   UNL     1       5.824   2.696  22.998  0.00  0.00    +0.119 C 
ATOM     15  N   UNL     1       5.496   1.500  23.719  0.00  0.00    -0.301 N 
ATOM     16  H   UNL     1       5.127   1.706  24.648  0.00  0.00    +0.150 HD
ATOM     17  C   UNL     1       5.953   0.203  23.511  0.00  0.00    +0.218 C 
ATOM     18  O   UNL     1       6.165  -0.338  22.443  0.00  0.00    -0.275 OA
ATOM     19  C   UNL     1       6.642   2.754  21.755  0.00  0.00    +0.046 C 
ATOM     20  O   UNL     1       7.981  -3.697  25.449  0.00  0.00    -0.275 OA
ATOM     21  C   UNL     1       6.160  -0.396  24.878  0.00  0.00    +0.090 C 
ATOM     22  C   UNL     1       7.228   0.409  25.616  0.00  0.00    +0.058 C 
ENDROOT
BRANCH  14  23
ATOM     23  C   UNL     1       4.719   3.734  23.109  0.00  0.00    +0.256 C 
ATOM     24  N   UNL     1       3.676   3.576  22.194  0.00  0.00    -0.188 N 
ATOM     25  H   UNL     1       3.621   2.750  21.611  0.00  0.00    +0.176 HD
ATOM     26  O   UNL     1       4.776   4.614  23.956  0.00  0.00    -0.272 OA
BRANCH  24  27
ATOM     27  S   UNL     1       2.430   4.631  22.015  0.00  0.00    +0.048 S 
ATOM     28  O   UNL     1       2.953   5.857  21.480  0.00  0.00    -0.155 OA
ATOM     29  O   UNL     1       1.731   4.619  23.296  0.00  0.00    -0.155 OA
BRANCH  27  30
ATOM     30  C   UNL     1       1.297   3.952  20.762  0.00  0.00    +0.151 C 
ATOM     31  C   UNL     1       1.568   2.552  20.292  0.00  0.00    +0.030 C 
ATOM     32  C   UNL     1       1.943   3.719  19.419  0.00  0.00    +0.030 C 
ENDBRANCH  27  30
ENDBRANCH  24  27
ENDBRANCH  14  23
BRANCH   1  33
ATOM     33  O   UNL     1       7.570   0.520  27.954  0.00  0.00    -0.488 OA
BRANCH  33  40
ATOM     34  C   UNL     1       2.597   4.104  28.598  0.00  0.00    +0.050 C 
ATOM     35  C   UNL     1       3.308   2.769  28.571  0.00  0.00    +0.017 A 
ATOM     36  C   UNL     1       4.632   2.750  28.114  0.00  0.00    +0.082 A 
ATOM     37  N   UNL     1       5.196   3.906  27.686  0.00  0.00    -0.244 NA
ATOM     38  C   UNL     1       6.478   3.893  27.282  0.00  0.00    +0.100 A 
ATOM     39  C   UNL     1       7.237   2.753  27.318  0.00  0.00    +0.076 A 
ATOM     40  C   UNL     1       6.697   1.571  27.773  0.00  0.00    +0.132 A 
ATOM     41  C   UNL     1       5.346   1.523  28.147  0.00  0.00    +0.043 A 
ATOM     42  C   UNL     1       4.678   0.342  28.537  0.00  0.00    +0.017 A 
ATOM     43  C   UNL     1       3.348   0.378  28.962  0.00  0.00    +0.047 A 
ATOM     44  C   UNL     1       2.665   1.592  29.016  0.00  0.00    +0.125 A 
BRANCH  38  45
ATOM     45  C   UNL     1       7.194   5.116  26.900  0.00  0.00    +0.127 A 
ATOM     46  S   UNL     1       7.606   6.356  28.002  0.00  0.00    -0.074 S 
ATOM     47  C   UNL     1       8.551   7.107  26.779  0.00  0.00    +0.070 A 
ATOM     48  C   UNL     1       8.480   6.396  25.599  0.00  0.00    +0.052 A 
ATOM     49  N   UNL     1       7.681   5.283  25.676  0.00  0.00    -0.242 NA
BRANCH  48  50
ATOM     50  C   UNL     1       9.155   6.708  24.287  0.00  0.00    +0.032 C 
ATOM     51  C   UNL     1       8.230   6.424  23.103  0.00  0.00    +0.014 C 
ATOM     52  C   UNL     1      10.470   5.936  24.115  0.00  0.00    +0.014 C 
ENDBRANCH  48  50
ENDBRANCH  38  45
BRANCH  44  53
ATOM     53  O   UNL     1       1.382   1.748  29.470  0.00  0.00    -0.495 OA
ATOM     54  C   UNL     1       0.464   0.679  29.282  0.00  0.00    +0.277 C 
ENDBRANCH  44  53
ENDBRANCH  33  40
ENDBRANCH   1  33
TORSDOF 8
ENDMDL
MODEL 9
REMARK VINA RESULT:      -5.4      3.635      9.468
REMARK  Name = 
REMARK  13 active torsions:
REMARK  status: ('A' for Active; 'I' for Inactive)
REMARK    1  A    between atoms: C_1  and  C_2
REMARK    2  A    between atoms: C_3  and  O_51
REMARK    3  A    between atoms: C_9  and  C_43
REMARK    4  A    between atoms: C_11  and  O_12
REMARK    5  A    between atoms: O_12  and  C_13
REMARK    6  A    between atoms: N_20  and  C_42
REMARK    7  A    between atoms: C_29  and  C_33
REMARK    8  A    between atoms: N_35  and  S_36
REMARK    9  A    between atoms: S_36  and  C_39
REMARK   10  A    between atoms: C_45  and  C_48
REMARK   11  A    between atoms: C_48  and  C_49
REMARK   12  A    between atoms: C_48  and  C_50
REMARK   13  A    between atoms: O_51  and  C_52
REMARK                            x       y       z     vdW  Elec       q    Type
REMARK                         _______ _______ _______ _____ _____    ______ ____
ROOT
ATOM      1  C   UNL     1       4.930   4.297  26.879  0.00  0.00    +0.175 C 
ATOM      2  C   UNL     1       3.490   4.523  26.354  0.00  0.00    +0.058 C 
ATOM      3  C   UNL     1       2.780   3.228  26.859  0.00  0.00    +0.091 C 
ATOM      4  C   UNL     1       2.577   3.407  28.400  0.00  0.00    +0.219 C 
ATOM      5  N   UNL     1       3.179   2.519  29.285  0.00  0.00    -0.304 N 
ATOM      6  C   UNL     1       2.202   1.900  30.174  0.00  0.00    +0.132 C 
ATOM      7  C   UNL     1       4.332   3.023  30.064  0.00  0.00    +0.107 C 
ATOM      8  C   UNL     1       5.299   1.913  30.485  0.00  0.00    +0.019 C 
ATOM      9  C   UNL     1       6.777   2.352  30.422  0.00  0.00    +0.006 C 
ATOM     10  C   UNL     1       7.695   1.280  29.827  0.00  0.00    +0.027 C 
ATOM     11  C   UNL     1       7.543   1.060  28.332  0.00  0.00    -0.031 C 
ATOM     12  C   UNL     1       6.915  -0.029  27.855  0.00  0.00    -0.025 C 
ATOM     13  C   UNL     1       6.845  -0.606  26.499  0.00  0.00    +0.046 C 
ATOM     14  C   UNL     1       5.747  -0.661  25.417  0.00  0.00    +0.119 C 
ATOM     15  N   UNL     1       4.793   0.405  25.321  0.00  0.00    -0.301 N 
ATOM     16  H   UNL     1       5.087   1.120  24.655  0.00  0.00    +0.150 HD
ATOM     17  C   UNL     1       3.808   0.778  26.231  0.00  0.00    +0.218 C 
ATOM     18  O   UNL     1       3.120   0.041  26.910  0.00  0.00    -0.275 OA
ATOM     19  C   UNL     1       5.777  -1.697  26.486  0.00  0.00    +0.046 C 
ATOM     20  O   UNL     1       1.871   4.334  28.814  0.00  0.00    -0.275 OA
ATOM     21  C   UNL     1       3.780   2.285  26.227  0.00  0.00    +0.090 C 
ATOM     22  C   UNL     1       5.135   2.808  26.700  0.00  0.00    +0.058 C 
ENDROOT
BRANCH  14  23
ATOM     23  C   UNL     1       6.210  -1.118  24.043  0.00  0.00    +0.256 C 
ATOM     24  N   UNL     1       6.157  -2.499  23.840  0.00  0.00    -0.188 N 
ATOM     25  H   UNL     1       5.714  -3.105  24.519  0.00  0.00    +0.176 HD
ATOM     26  O   UNL     1       6.581  -0.306  23.209  0.00  0.00    -0.272 OA
BRANCH  24  27
ATOM     27  S   UNL     1       6.720  -3.263  22.499  0.00  0.00    +0.048 S 
ATOM     28  O   UNL     1       8.040  -2.768  22.220  0.00  0.00    -0.155 OA
ATOM     29  O   UNL     1       5.655  -3.133  21.510  0.00  0.00    -0.155 OA
BRANCH  27  30
ATOM     30  C   UNL     1       6.894  -5.032  22.893  0.00  0.00    +0.151 C 
ATOM     31  C   UNL     1       6.996  -5.976  21.730  0.00  0.00    +0.030 C 
ATOM     32  C   UNL     1       5.702  -5.865  22.490  0.00  0.00    +0.030 C 
ENDBRANCH  27  30
ENDBRANCH  24  27
ENDBRANCH  14  23
BRANCH   1  33
ATOM     33  O   UNL     1       6.056   4.949  26.298  0.00  0.00    -0.488 OA
BRANCH  33  40
ATOM     34  C   UNL     1       7.846   2.173  21.095  0.00  0.00    +0.050 C 
ATOM     35  C   UNL     1       8.057   2.651  22.515  0.00  0.00    +0.017 A 
ATOM     36  C   UNL     1       7.083   3.496  23.064  0.00  0.00    +0.082 A 
ATOM     37  N   UNL     1       6.031   3.872  22.297  0.00  0.00    -0.244 NA
ATOM     38  C   UNL     1       5.079   4.652  22.837  0.00  0.00    +0.100 A 
ATOM     39  C   UNL     1       5.128   5.053  24.146  0.00  0.00    +0.076 A 
ATOM     40  C   UNL     1       6.172   4.664  24.955  0.00  0.00    +0.132 A 
ATOM     41  C   UNL     1       7.219   3.901  24.419  0.00  0.00    +0.043 A 
ATOM     42  C   UNL     1       8.376   3.531  25.140  0.00  0.00    +0.017 A 
ATOM     43  C   UNL     1       9.349   2.713  24.564  0.00  0.00    +0.047 A 
ATOM     44  C   UNL     1       9.182   2.239  23.263  0.00  0.00    +0.125 A 
BRANCH  38  45
ATOM     45  C   UNL     1       3.859   5.021  22.110  0.00  0.00    +0.127 A 
ATOM     46  S   UNL     1       3.395   6.636  21.797  0.00  0.00    -0.074 S 
ATOM     47  C   UNL     1       2.141   6.061  20.773  0.00  0.00    +0.070 A 
ATOM     48  C   UNL     1       2.124   4.682  20.745  0.00  0.00    +0.052 A 
ATOM     49  N   UNL     1       3.089   4.106  21.533  0.00  0.00    -0.242 NA
BRANCH  48  50
ATOM     50  C   UNL     1       1.190   3.782  19.977  0.00  0.00    +0.032 C 
ATOM     51  C   UNL     1       1.404   2.313  20.344  0.00  0.00    +0.014 C 
ATOM     52  C   UNL     1       1.330   3.963  18.460  0.00  0.00    +0.014 C 
ENDBRANCH  48  50
ENDBRANCH  38  45
BRANCH  44  53
ATOM     53  O   UNL     1      10.043   1.386  22.625  0.00  0.00    -0.495 OA
ATOM     54  C   UNL     1      10.069   0.024  23.029  0.00  0.00    +0.277 C 
ENDBRANCH  44  53
ENDBRANCH  33  40
ENDBRANCH   1  33
TORSDOF 8
ENDMDL
