MODEL 1
REMARK VINA RESULT:      -4.8      0.000      0.000
REMARK  Name = 
REMARK  3 active torsions:
REMARK  status: ('A' for Active; 'I' for Inactive)
REMARK    1  A    between atoms: C_1  and  C_2
REMARK    2  A    between atoms: C_9  and  C_10
REMARK    3  A    between atoms: C_9  and  C_11
REMARK                            x       y       z     vdW  Elec       q    Type
REMARK                         _______ _______ _______ _____ _____    ______ ____
ROOT
ATOM      1  C   UNL     1       9.846  -2.461  23.740  0.00  0.00    +0.010 C 
ATOM      2  C   UNL     1      10.169  -0.981  23.488  0.00  0.00    +0.015 C 
ATOM      3  C   UNL     1       9.321  -0.079  24.416  0.00  0.00    +0.122 C 
ATOM      4  O   UNL     1      10.074   1.128  24.716  0.00  0.00    -0.370 OA
ATOM      5  C   UNL     1       9.570   2.203  23.890  0.00  0.00    +0.067 C 
ATOM      6  C   UNL     1      10.740   3.040  23.368  0.00  0.00    +0.041 C 
ATOM      7  C   UNL     1       8.707   3.134  24.766  0.00  0.00    +0.041 C 
ATOM      8  C   UNL     1       8.728   1.478  22.817  0.00  0.00    +0.023 C 
ATOM      9  C   UNL     1       9.593   0.806  21.719  0.00  0.00    +0.007 C 
ATOM     10  C   UNL     1       8.079   0.398  23.678  0.00  0.00    +0.038 C 
ATOM     11  C   UNL     1       9.917  -0.665  21.997  0.00  0.00    +0.006 C 
ENDROOT
TORSDOF 0
ENDMDL
MODEL 2
REMARK VINA RESULT:      -4.7      1.271      3.743
REMARK  Name = 
REMARK  3 active torsions:
REMARK  status: ('A' for Active; 'I' for Inactive)
REMARK    1  A    between atoms: C_1  and  C_2
REMARK    2  A    between atoms: C_9  and  C_10
REMARK    3  A    between atoms: C_9  and  C_11
REMARK                            x       y       z     vdW  Elec       q    Type
REMARK                         _______ _______ _______ _____ _____    ______ ____
ROOT
ATOM      1  C   UNL     1       8.968   2.976  24.049  0.00  0.00    +0.010 C 
ATOM      2  C   UNL     1       8.661   1.606  23.427  0.00  0.00    +0.015 C 
ATOM      3  C   UNL     1       9.284   0.475  24.279  0.00  0.00    +0.122 C 
ATOM      4  O   UNL     1       8.454  -0.712  24.165  0.00  0.00    -0.370 OA
ATOM      5  C   UNL     1       9.080  -1.626  23.234  0.00  0.00    +0.067 C 
ATOM      6  C   UNL     1       8.014  -2.253  22.335  0.00  0.00    +0.041 C 
ATOM      7  C   UNL     1       9.728  -2.775  24.033  0.00  0.00    +0.041 C 
ATOM      8  C   UNL     1      10.137  -0.754  22.520  0.00  0.00    +0.023 C 
ATOM      9  C   UNL     1       9.524   0.189  21.453  0.00  0.00    +0.007 C 
ATOM     10  C   UNL     1      10.633   0.077  23.701  0.00  0.00    +0.038 C 
ATOM     11  C   UNL     1       9.193   1.590  21.977  0.00  0.00    +0.006 C 
ENDROOT
TORSDOF 0
ENDMDL
MODEL 3
REMARK VINA RESULT:      -4.5      1.361      2.192
REMARK  Name = 
REMARK  3 active torsions:
REMARK  status: ('A' for Active; 'I' for Inactive)
REMARK    1  A    between atoms: C_1  and  C_2
REMARK    2  A    between atoms: C_9  and  C_10
REMARK    3  A    between atoms: C_9  and  C_11
REMARK                            x       y       z     vdW  Elec       q    Type
REMARK                         _______ _______ _______ _____ _____    ______ ____
ROOT
ATOM      1  C   UNL     1       9.832  -2.243  23.697  0.00  0.00    +0.010 C 
ATOM      2  C   UNL     1       9.448  -0.783  23.976  0.00  0.00    +0.015 C 
ATOM      3  C   UNL     1       8.737  -0.169  22.747  0.00  0.00    +0.122 C 
ATOM      4  O   UNL     1       7.786   0.831  23.204  0.00  0.00    -0.370 OA
ATOM      5  C   UNL     1       8.366   2.142  23.011  0.00  0.00    +0.067 C 
ATOM      6  C   UNL     1       8.052   3.025  24.220  0.00  0.00    +0.041 C 
ATOM      7  C   UNL     1       7.697   2.801  21.787  0.00  0.00    +0.041 C 
ATOM      8  C   UNL     1       9.862   1.848  22.760  0.00  0.00    +0.023 C 
ATOM      9  C   UNL     1      10.638   1.504  24.058  0.00  0.00    +0.007 C 
ATOM     10  C   UNL     1       9.742   0.595  21.898  0.00  0.00    +0.038 C 
ATOM     11  C   UNL     1      10.723   0.003  24.352  0.00  0.00    +0.006 C 
ENDROOT
TORSDOF 0
ENDMDL
MODEL 4
REMARK VINA RESULT:      -4.5      4.134      5.611
REMARK  Name = 
REMARK  3 active torsions:
REMARK  status: ('A' for Active; 'I' for Inactive)
REMARK    1  A    between atoms: C_1  and  C_2
REMARK    2  A    between atoms: C_9  and  C_10
REMARK    3  A    between atoms: C_9  and  C_11
REMARK                            x       y       z     vdW  Elec       q    Type
REMARK                         _______ _______ _______ _____ _____    ______ ____
ROOT
ATOM      1  C   UNL     1       6.182  -5.971  21.261  0.00  0.00    +0.010 C 
ATOM      2  C   UNL     1       7.058  -4.899  21.926  0.00  0.00    +0.015 C 
ATOM      3  C   UNL     1       7.389  -5.301  23.383  0.00  0.00    +0.122 C 
ATOM      4  O   UNL     1       8.693  -4.762  23.735  0.00  0.00    -0.370 OA
ATOM      5  C   UNL     1       8.499  -3.575  24.539  0.00  0.00    +0.067 C 
ATOM      6  C   UNL     1       9.499  -2.498  24.113  0.00  0.00    +0.041 C 
ATOM      7  C   UNL     1       8.809  -3.921  26.010  0.00  0.00    +0.041 C 
ATOM      8  C   UNL     1       7.007  -3.230  24.331  0.00  0.00    +0.023 C 
ATOM      9  C   UNL     1       6.725  -2.560  22.961  0.00  0.00    +0.007 C 
ATOM     10  C   UNL     1       6.410  -4.635  24.337  0.00  0.00    +0.038 C 
ATOM     11  C   UNL     1       6.319  -3.544  21.860  0.00  0.00    +0.006 C 
ENDROOT
TORSDOF 0
ENDMDL
MODEL 5
REMARK VINA RESULT:      -4.5      1.372      2.218
REMARK  Name = 
REMARK  3 active torsions:
REMARK  status: ('A' for Active; 'I' for Inactive)
REMARK    1  A    between atoms: C_1  and  C_2
REMARK    2  A    between atoms: C_9  and  C_10
REMARK    3  A    between atoms: C_9  and  C_11
REMARK                            x       y       z     vdW  Elec       q    Type
REMARK                         _______ _______ _______ _____ _____    ______ ____
ROOT
ATOM      1  C   UNL     1       9.863  -2.503  23.781  0.00  0.00    +0.010 C 
ATOM      2  C   UNL     1       9.348  -1.088  23.483  0.00  0.00    +0.015 C 
ATOM      3  C   UNL     1      10.527  -0.089  23.411  0.00  0.00    +0.122 C 
ATOM      4  O   UNL     1      10.190   0.971  22.475  0.00  0.00    -0.370 OA
ATOM      5  C   UNL     1       9.782   2.138  23.227  0.00  0.00    +0.067 C 
ATOM      6  C   UNL     1       8.576   2.790  22.549  0.00  0.00    +0.041 C 
ATOM      7  C   UNL     1      10.928   3.169  23.196  0.00  0.00    +0.041 C 
ATOM      8  C   UNL     1       9.540   1.590  24.652  0.00  0.00    +0.023 C 
ATOM      9  C   UNL     1       8.200   0.820  24.785  0.00  0.00    +0.007 C 
ATOM     10  C   UNL     1      10.699   0.604  24.754  0.00  0.00    +0.038 C 
ATOM     11  C   UNL     1       8.328  -0.691  24.574  0.00  0.00    +0.006 C 
ENDROOT
TORSDOF 0
ENDMDL
MODEL 6
REMARK VINA RESULT:      -4.5      1.467      3.510
REMARK  Name = 
REMARK  3 active torsions:
REMARK  status: ('A' for Active; 'I' for Inactive)
REMARK    1  A    between atoms: C_1  and  C_2
REMARK    2  A    between atoms: C_9  and  C_10
REMARK    3  A    between atoms: C_9  and  C_11
REMARK                            x       y       z     vdW  Elec       q    Type
REMARK                         _______ _______ _______ _____ _____    ______ ____
ROOT
ATOM      1  C   UNL     1       7.308   1.593  26.392  0.00  0.00    +0.010 C 
ATOM      2  C   UNL     1       7.890   1.407  24.984  0.00  0.00    +0.015 C 
ATOM      3  C   UNL     1       8.531   0.007  24.844  0.00  0.00    +0.122 C 
ATOM      4  O   UNL     1       8.407  -0.434  23.464  0.00  0.00    -0.370 OA
ATOM      5  C   UNL     1       9.677  -0.236  22.801  0.00  0.00    +0.067 C 
ATOM      6  C   UNL     1       9.441   0.310  21.392  0.00  0.00    +0.041 C 
ATOM      7  C   UNL     1      10.368  -1.606  22.642  0.00  0.00    +0.041 C 
ATOM      8  C   UNL     1      10.453   0.691  23.763  0.00  0.00    +0.023 C 
ATOM      9  C   UNL     1       9.987   2.169  23.688  0.00  0.00    +0.007 C 
ATOM     10  C   UNL     1      10.027   0.096  25.102  0.00  0.00    +0.038 C 
ATOM     11  C   UNL     1       8.913   2.534  24.718  0.00  0.00    +0.006 C 
ENDROOT
TORSDOF 0
ENDMDL
MODEL 7
REMARK VINA RESULT:      -4.4      1.854      3.144
REMARK  Name = 
REMARK  3 active torsions:
REMARK  status: ('A' for Active; 'I' for Inactive)
REMARK    1  A    between atoms: C_1  and  C_2
REMARK    2  A    between atoms: C_9  and  C_10
REMARK    3  A    between atoms: C_9  and  C_11
REMARK                            x       y       z     vdW  Elec       q    Type
REMARK                         _______ _______ _______ _____ _____    ______ ____
ROOT
ATOM      1  C   UNL     1       6.223  -3.038  22.818  0.00  0.00    +0.010 C 
ATOM      2  C   UNL     1       7.363  -2.283  23.514  0.00  0.00    +0.015 C 
ATOM      3  C   UNL     1       7.809  -1.072  22.661  0.00  0.00    +0.122 C 
ATOM      4  O   UNL     1       8.285  -0.021  23.546  0.00  0.00    -0.370 OA
ATOM      5  C   UNL     1       9.731  -0.035  23.543  0.00  0.00    +0.067 C 
ATOM      6  C   UNL     1      10.250   0.180  24.965  0.00  0.00    +0.041 C 
ATOM      7  C   UNL     1      10.233   1.152  22.695  0.00  0.00    +0.041 C 
ATOM      8  C   UNL     1      10.083  -1.394  22.895  0.00  0.00    +0.023 C 
ATOM      9  C   UNL     1       9.900  -2.592  23.863  0.00  0.00    +0.007 C 
ATOM     10  C   UNL     1       9.011  -1.453  21.811  0.00  0.00    +0.038 C 
ATOM     11  C   UNL     1       8.528  -3.266  23.765  0.00  0.00    +0.006 C 
ENDROOT
TORSDOF 0
ENDMDL
MODEL 8
REMARK VINA RESULT:      -4.4      1.549      2.117
REMARK  Name = 
REMARK  3 active torsions:
REMARK  status: ('A' for Active; 'I' for Inactive)
REMARK    1  A    between atoms: C_1  and  C_2
REMARK    2  A    between atoms: C_9  and  C_10
REMARK    3  A    between atoms: C_9  and  C_11
REMARK                            x       y       z     vdW  Elec       q    Type
REMARK                         _______ _______ _______ _____ _____    ______ ____
ROOT
ATOM      1  C   UNL     1       8.634  -2.312  25.665  0.00  0.00    +0.010 C 
ATOM      2  C   UNL     1       9.218  -1.287  24.684  0.00  0.00    +0.015 C 
ATOM      3  C   UNL     1       8.091  -0.420  24.074  0.00  0.00    +0.122 C 
ATOM      4  O   UNL     1       8.620   0.902  23.780  0.00  0.00    -0.370 OA
ATOM      5  C   UNL     1       8.893   0.985  22.362  0.00  0.00    +0.067 C 
ATOM      6  C   UNL     1      10.217   1.716  22.136  0.00  0.00    +0.041 C 
ATOM      7  C   UNL     1       7.790   1.835  21.698  0.00  0.00    +0.041 C 
ATOM      8  C   UNL     1       8.846  -0.486  21.892  0.00  0.00    +0.023 C 
ATOM      9  C   UNL     1      10.122  -1.284  22.268  0.00  0.00    +0.007 C 
ATOM     10  C   UNL     1       7.673  -0.991  22.728  0.00  0.00    +0.038 C 
ATOM     11  C   UNL     1      10.014  -2.041  23.595  0.00  0.00    +0.006 C 
ENDROOT
TORSDOF 0
ENDMDL
MODEL 9
REMARK VINA RESULT:      -4.4      1.601      2.826
REMARK  Name = 
REMARK  3 active torsions:
REMARK  status: ('A' for Active; 'I' for Inactive)
REMARK    1  A    between atoms: C_1  and  C_2
REMARK    2  A    between atoms: C_9  and  C_10
REMARK    3  A    between atoms: C_9  and  C_11
REMARK                            x       y       z     vdW  Elec       q    Type
REMARK                         _______ _______ _______ _____ _____    ______ ____
ROOT
ATOM      1  C   UNL     1       7.879  -3.658  23.231  0.00  0.00    +0.010 C 
ATOM      2  C   UNL     1       8.068  -2.181  23.604  0.00  0.00    +0.015 C 
ATOM      3  C   UNL     1       8.711  -1.406  22.430  0.00  0.00    +0.122 C 
ATOM      4  O   UNL     1       8.240  -0.031  22.460  0.00  0.00    -0.370 OA
ATOM      5  C   UNL     1       9.275   0.799  23.037  0.00  0.00    +0.067 C 
ATOM      6  C   UNL     1       8.644   1.823  23.982  0.00  0.00    +0.041 C 
ATOM      7  C   UNL     1       9.959   1.593  21.905  0.00  0.00    +0.041 C 
ATOM      8  C   UNL     1      10.238  -0.218  23.690  0.00  0.00    +0.023 C 
ATOM      9  C   UNL     1       9.703  -0.786  25.030  0.00  0.00    +0.007 C 
ATOM     10  C   UNL     1      10.216  -1.317  22.632  0.00  0.00    +0.038 C 
ATOM     11  C   UNL     1       8.930  -2.100  24.884  0.00  0.00    +0.006 C 
ENDROOT
TORSDOF 0
ENDMDL
