MODEL 1
REMARK VINA RESULT:      -6.6      0.000      0.000
REMARK  Name = 
REMARK  11 active torsions:
REMARK  status: ('A' for Active; 'I' for Inactive)
REMARK    1  A    between atoms: C_1  and  C_2
REMARK    2  A    between atoms: N_4  and  C_5
REMARK    3  A    between atoms: C_6  and  C_19
REMARK    4  A    between atoms: C_8  and  C_16
REMARK    5  A    between atoms: C_10  and  N_12
REMARK    6  A    between atoms: C_16  and  O_18
REMARK    7  A    between atoms: C_19  and  C_21
REMARK    8  A    between atoms: C_19  and  O_26
REMARK    9  A    between atoms: C_21  and  C_23
REMARK   10  A    between atoms: C_21  and  O_25
REMARK   11  A    between atoms: C_23  and  O_24
REMARK                            x       y       z     vdW  Elec       q    Type
REMARK                         _______ _______ _______ _____ _____    ______ ____
ROOT
ATOM      1  C   UNL     1       8.201  -2.638  24.080  0.00  0.00    +0.096 C 
ATOM      2  C   UNL     1       8.165  -4.183  24.038  0.00  0.00    +0.262 C 
ATOM      3  C   UNL     1       7.326  -4.701  22.906  0.00  0.00    +0.076 C 
ATOM      4  C   UNL     1       6.911  -3.910  21.915  0.00  0.00    +0.211 C 
ATOM      5  O   UNL     1       7.240  -2.572  21.859  0.00  0.00    -0.449 OA
ATOM      6  C   UNL     1       7.806  -1.943  22.973  0.00  0.00    +0.158 C 
ENDROOT
BRANCH   2   7
ATOM      7  N   UNL     1       7.630  -4.778  25.261  0.00  0.00    -0.100 NA
ATOM      8  C   UNL     1       8.457  -5.441  25.988  0.00  0.00    +0.377 C 
ATOM      9  N   UNL     1       8.085  -5.859  27.218  0.00  0.00    -0.289 N 
ATOM     10  H   UNL     1       8.830  -5.717  27.891  0.00  0.00    +0.255 HD
ATOM     11  H   UNL     1       7.273  -5.318  27.501  0.00  0.00    +0.255 HD
ATOM     12  N   UNL     1       9.745  -5.809  25.768  0.00  0.00    -0.289 N 
ATOM     13  H   UNL     1       9.994  -6.682  26.219  0.00  0.00    +0.255 HD
ATOM     14  H   UNL     1      10.049  -5.806  24.803  0.00  0.00    +0.255 HD
ENDBRANCH   2   7
BRANCH   1  17
ATOM     15  C   UNL     1       8.936  -0.717  27.245  0.00  0.00    +0.109 C 
ATOM     16  C   UNL     1       8.014  -1.454  26.299  0.00  0.00    +0.214 C 
ATOM     17  N   UNL     1       8.695  -1.953  25.194  0.00  0.00    -0.283 N 
ATOM     18  H   UNL     1       9.686  -1.759  25.209  0.00  0.00    +0.155 HD
ATOM     19  O   UNL     1       6.831  -1.587  26.579  0.00  0.00    -0.276 OA
ENDBRANCH   1  17
BRANCH   4  20
ATOM     20  C   UNL     1       6.074  -4.494  20.831  0.00  0.00    +0.372 C 
ATOM     21  O   UNL     1       5.755  -3.914  19.805  0.00  0.00    -0.242 OA
BRANCH  20  22
ATOM     22  O   UNL     1       5.703  -5.757  21.113  0.00  0.00    -0.475 OA
ATOM     23  H   UNL     1       5.526  -6.290  20.307  0.00  0.00    +0.296 HD
ENDBRANCH  20  22
ENDBRANCH   4  20
BRANCH   6  24
ATOM     24  C   UNL     1       7.963  -0.445  22.743  0.00  0.00    +0.212 C 
BRANCH  24  25
ATOM     25  O   UNL     1       6.671   0.128  22.493  0.00  0.00    -0.381 OA
ATOM     26  H   UNL     1       6.775   1.095  22.515  0.00  0.00    +0.210 HD
ENDBRANCH  24  25
BRANCH  24  27
ATOM     27  C   UNL     1       8.923  -0.110  21.565  0.00  0.00    +0.176 C 
BRANCH  27  28
ATOM     28  O   UNL     1       9.874  -1.176  21.343  0.00  0.00    -0.387 OA
ATOM     29  H   UNL     1       9.992  -1.658  22.179  0.00  0.00    +0.210 HD
ENDBRANCH  27  28
BRANCH  27  30
ATOM     30  C   UNL     1       9.746   1.166  21.778  0.00  0.00    +0.190 C 
BRANCH  30  31
ATOM     31  O   UNL     1       8.914   2.303  21.529  0.00  0.00    -0.392 OA
ATOM     32  H   UNL     1       9.537   3.024  21.311  0.00  0.00    +0.210 HD
ENDBRANCH  30  31
ENDBRANCH  27  30
ENDBRANCH  24  27
ENDBRANCH   6  24
TORSDOF 10
ENDMDL
MODEL 2
REMARK VINA RESULT:      -6.2      3.627      6.188
REMARK  Name = 
REMARK  11 active torsions:
REMARK  status: ('A' for Active; 'I' for Inactive)
REMARK    1  A    between atoms: C_1  and  C_2
REMARK    2  A    between atoms: N_4  and  C_5
REMARK    3  A    between atoms: C_6  and  C_19
REMARK    4  A    between atoms: C_8  and  C_16
REMARK    5  A    between atoms: C_10  and  N_12
REMARK    6  A    between atoms: C_16  and  O_18
REMARK    7  A    between atoms: C_19  and  C_21
REMARK    8  A    between atoms: C_19  and  O_26
REMARK    9  A    between atoms: C_21  and  C_23
REMARK   10  A    between atoms: C_21  and  O_25
REMARK   11  A    between atoms: C_23  and  O_24
REMARK                            x       y       z     vdW  Elec       q    Type
REMARK                         _______ _______ _______ _____ _____    ______ ____
ROOT
ATOM      1  C   UNL     1       6.303  -5.818  24.587  0.00  0.00    +0.096 C 
ATOM      2  C   UNL     1       4.926  -6.043  25.253  0.00  0.00    +0.262 C 
ATOM      3  C   UNL     1       5.042  -6.273  26.731  0.00  0.00    +0.076 C 
ATOM      4  C   UNL     1       6.170  -6.028  27.398  0.00  0.00    +0.211 C 
ATOM      5  O   UNL     1       7.297  -5.532  26.776  0.00  0.00    -0.449 OA
ATOM      6  C   UNL     1       7.372  -5.512  25.379  0.00  0.00    +0.158 C 
ENDROOT
BRANCH   2   7
ATOM      7  N   UNL     1       4.205  -7.191  24.705  0.00  0.00    -0.100 NA
ATOM      8  C   UNL     1       3.113  -6.939  24.077  0.00  0.00    +0.377 C 
ATOM      9  N   UNL     1       2.492  -7.921  23.387  0.00  0.00    -0.289 N 
ATOM     10  H   UNL     1       2.161  -7.582  22.491  0.00  0.00    +0.255 HD
ATOM     11  H   UNL     1       3.162  -8.668  23.233  0.00  0.00    +0.255 HD
ATOM     12  N   UNL     1       2.416  -5.784  23.924  0.00  0.00    -0.289 N 
ATOM     13  H   UNL     1       1.417  -5.929  23.831  0.00  0.00    +0.255 HD
ATOM     14  H   UNL     1       2.610  -5.056  24.599  0.00  0.00    +0.255 HD
ENDBRANCH   2   7
BRANCH   1  17
ATOM     15  C   UNL     1       6.174  -5.582  20.821  0.00  0.00    +0.109 C 
ATOM     16  C   UNL     1       5.707  -5.212  22.212  0.00  0.00    +0.214 C 
ATOM     17  N   UNL     1       6.452  -5.852  23.197  0.00  0.00    -0.283 N 
ATOM     18  H   UNL     1       7.184  -6.441  22.829  0.00  0.00    +0.155 HD
ATOM     19  O   UNL     1       4.805  -4.399  22.358  0.00  0.00    -0.276 OA
ENDBRANCH   1  17
BRANCH   4  20
ATOM     20  C   UNL     1       6.211  -6.290  28.863  0.00  0.00    +0.372 C 
ATOM     21  O   UNL     1       6.053  -5.443  29.728  0.00  0.00    -0.242 OA
BRANCH  20  22
ATOM     22  O   UNL     1       6.443  -7.589  29.132  0.00  0.00    -0.475 OA
ATOM     23  H   UNL     1       6.303  -8.169  28.352  0.00  0.00    +0.296 HD
ENDBRANCH  20  22
ENDBRANCH   4  20
BRANCH   6  24
ATOM     24  C   UNL     1       8.747  -5.055  24.905  0.00  0.00    +0.212 C 
BRANCH  24  25
ATOM     25  O   UNL     1       9.754  -5.803  25.603  0.00  0.00    -0.381 OA
ATOM     26  H   UNL     1       9.720  -6.715  25.266  0.00  0.00    +0.210 HD
ENDBRANCH  24  25
BRANCH  24  27
ATOM     27  C   UNL     1       8.984  -3.531  25.115  0.00  0.00    +0.176 C 
BRANCH  27  28
ATOM     28  O   UNL     1       7.846  -2.904  25.749  0.00  0.00    -0.387 OA
ATOM     29  H   UNL     1       7.382  -2.370  25.083  0.00  0.00    +0.210 HD
ENDBRANCH  27  28
BRANCH  27  30
ATOM     30  C   UNL     1       9.234  -2.757  23.816  0.00  0.00    +0.190 C 
BRANCH  30  31
ATOM     31  O   UNL     1       8.227  -3.110  22.863  0.00  0.00    -0.392 OA
ATOM     32  H   UNL     1       7.540  -2.421  22.961  0.00  0.00    +0.210 HD
ENDBRANCH  30  31
ENDBRANCH  27  30
ENDBRANCH  24  27
ENDBRANCH   6  24
TORSDOF 10
ENDMDL
MODEL 3
REMARK VINA RESULT:      -6.2      2.602      5.571
REMARK  Name = 
REMARK  11 active torsions:
REMARK  status: ('A' for Active; 'I' for Inactive)
REMARK    1  A    between atoms: C_1  and  C_2
REMARK    2  A    between atoms: N_4  and  C_5
REMARK    3  A    between atoms: C_6  and  C_19
REMARK    4  A    between atoms: C_8  and  C_16
REMARK    5  A    between atoms: C_10  and  N_12
REMARK    6  A    between atoms: C_16  and  O_18
REMARK    7  A    between atoms: C_19  and  C_21
REMARK    8  A    between atoms: C_19  and  O_26
REMARK    9  A    between atoms: C_21  and  C_23
REMARK   10  A    between atoms: C_21  and  O_25
REMARK   11  A    between atoms: C_23  and  O_24
REMARK                            x       y       z     vdW  Elec       q    Type
REMARK                         _______ _______ _______ _____ _____    ______ ____
ROOT
ATOM      1  C   UNL     1       8.159  -2.120  24.020  0.00  0.00    +0.096 C 
ATOM      2  C   UNL     1       8.551  -1.691  25.453  0.00  0.00    +0.262 C 
ATOM      3  C   UNL     1       8.019  -2.634  26.493  0.00  0.00    +0.076 C 
ATOM      4  C   UNL     1       7.519  -3.828  26.174  0.00  0.00    +0.211 C 
ATOM      5  O   UNL     1       7.475  -4.280  24.872  0.00  0.00    -0.449 OA
ATOM      6  C   UNL     1       7.718  -3.395  23.815  0.00  0.00    +0.158 C 
ENDROOT
BRANCH   2   7
ATOM      7  N   UNL     1       8.063  -0.359  25.807  0.00  0.00    -0.100 NA
ATOM      8  C   UNL     1       8.875   0.619  25.621  0.00  0.00    +0.377 C 
ATOM      9  N   UNL     1       8.436   1.891  25.747  0.00  0.00    -0.289 N 
ATOM     10  H   UNL     1       8.804   2.477  25.006  0.00  0.00    +0.255 HD
ATOM     11  H   UNL     1       7.422   1.880  25.689  0.00  0.00    +0.255 HD
ATOM     12  N   UNL     1      10.185   0.639  25.261  0.00  0.00    -0.289 N 
ATOM     13  H   UNL     1      10.693   1.427  25.646  0.00  0.00    +0.255 HD
ATOM     14  H   UNL     1      10.697  -0.221  25.405  0.00  0.00    +0.255 HD
ENDBRANCH   2   7
BRANCH   1  17
ATOM     15  C   UNL     1       9.186   0.043  21.102  0.00  0.00    +0.109 C 
ATOM     16  C   UNL     1       9.431  -1.042  22.127  0.00  0.00    +0.214 C 
ATOM     17  N   UNL     1       8.318  -1.253  22.935  0.00  0.00    -0.283 N 
ATOM     18  H   UNL     1       7.532  -0.665  22.700  0.00  0.00    +0.155 HD
ATOM     19  O   UNL     1      10.495  -1.644  22.138  0.00  0.00    -0.276 OA
ENDBRANCH   1  17
BRANCH   4  20
ATOM     20  C   UNL     1       7.002  -4.705  27.260  0.00  0.00    +0.372 C 
ATOM     21  O   UNL     1       5.979  -4.502  27.894  0.00  0.00    -0.242 OA
BRANCH  20  22
ATOM     22  O   UNL     1       7.802  -5.769  27.466  0.00  0.00    -0.475 OA
ATOM     23  H   UNL     1       8.090  -5.852  28.401  0.00  0.00    +0.296 HD
ENDBRANCH  20  22
ENDBRANCH   4  20
BRANCH   6  24
ATOM     24  C   UNL     1       7.485  -4.065  22.467  0.00  0.00    +0.212 C 
BRANCH  24  25
ATOM     25  O   UNL     1       6.435  -3.373  21.775  0.00  0.00    -0.381 OA
ATOM     26  H   UNL     1       5.791  -4.042  21.486  0.00  0.00    +0.210 HD
ENDBRANCH  24  25
BRANCH  24  27
ATOM     27  C   UNL     1       7.124  -5.574  22.594  0.00  0.00    +0.176 C 
BRANCH  27  28
ATOM     28  O   UNL     1       8.313  -6.393  22.679  0.00  0.00    -0.387 OA
ATOM     29  H   UNL     1       8.773  -6.177  23.507  0.00  0.00    +0.210 HD
ENDBRANCH  27  28
BRANCH  27  30
ATOM     30  C   UNL     1       6.307  -6.119  21.417  0.00  0.00    +0.190 C 
BRANCH  30  31
ATOM     31  O   UNL     1       4.918  -6.074  21.756  0.00  0.00    -0.392 OA
ATOM     32  H   UNL     1       4.455  -6.015  20.897  0.00  0.00    +0.210 HD
ENDBRANCH  30  31
ENDBRANCH  27  30
ENDBRANCH  24  27
ENDBRANCH   6  24
TORSDOF 10
ENDMDL
MODEL 4
REMARK VINA RESULT:      -6.2      1.149      1.244
REMARK  Name = 
REMARK  11 active torsions:
REMARK  status: ('A' for Active; 'I' for Inactive)
REMARK    1  A    between atoms: C_1  and  C_2
REMARK    2  A    between atoms: N_4  and  C_5
REMARK    3  A    between atoms: C_6  and  C_19
REMARK    4  A    between atoms: C_8  and  C_16
REMARK    5  A    between atoms: C_10  and  N_12
REMARK    6  A    between atoms: C_16  and  O_18
REMARK    7  A    between atoms: C_19  and  C_21
REMARK    8  A    between atoms: C_19  and  O_26
REMARK    9  A    between atoms: C_21  and  C_23
REMARK   10  A    between atoms: C_21  and  O_25
REMARK   11  A    between atoms: C_23  and  O_24
REMARK                            x       y       z     vdW  Elec       q    Type
REMARK                         _______ _______ _______ _____ _____    ______ ____
ROOT
ATOM      1  C   UNL     1       7.538  -2.679  24.768  0.00  0.00    +0.096 C 
ATOM      2  C   UNL     1       7.368  -4.190  25.049  0.00  0.00    +0.262 C 
ATOM      3  C   UNL     1       6.842  -4.934  23.856  0.00  0.00    +0.076 C 
ATOM      4  C   UNL     1       6.804  -4.384  22.642  0.00  0.00    +0.211 C 
ATOM      5  O   UNL     1       7.262  -3.106  22.401  0.00  0.00    -0.449 OA
ATOM      6  C   UNL     1       7.544  -2.250  23.472  0.00  0.00    +0.158 C 
ENDROOT
BRANCH   2   7
ATOM      7  N   UNL     1       6.452  -4.468  26.154  0.00  0.00    -0.100 NA
ATOM      8  C   UNL     1       6.896  -5.223  27.094  0.00  0.00    +0.377 C 
ATOM      9  N   UNL     1       6.181  -5.373  28.231  0.00  0.00    -0.289 N 
ATOM     10  H   UNL     1       6.783  -5.342  29.046  0.00  0.00    +0.255 HD
ATOM     11  H   UNL     1       5.511  -4.611  28.283  0.00  0.00    +0.255 HD
ATOM     12  N   UNL     1       8.049  -5.933  27.202  0.00  0.00    -0.289 N 
ATOM     13  H   UNL     1       7.949  -6.776  27.755  0.00  0.00    +0.255 HD
ATOM     14  H   UNL     1       8.531  -6.130  26.335  0.00  0.00    +0.255 HD
ENDBRANCH   2   7
BRANCH   1  17
ATOM     15  C   UNL     1       7.544  -0.034  27.461  0.00  0.00    +0.109 C 
ATOM     16  C   UNL     1       6.865  -0.896  26.420  0.00  0.00    +0.214 C 
ATOM     17  N   UNL     1       7.757  -1.768  25.806  0.00  0.00    -0.283 N 
ATOM     18  H   UNL     1       8.700  -1.696  26.160  0.00  0.00    +0.155 HD
ATOM     19  O   UNL     1       5.658  -0.803  26.242  0.00  0.00    -0.276 OA
ENDBRANCH   1  17
BRANCH   4  20
ATOM     20  C   UNL     1       6.259  -5.181  21.508  0.00  0.00    +0.372 C 
ATOM     21  O   UNL     1       5.903  -4.718  20.436  0.00  0.00    -0.242 OA
BRANCH  20  22
ATOM     22  O   UNL     1       6.205  -6.494  21.802  0.00  0.00    -0.475 OA
ATOM     23  H   UNL     1       6.891  -6.767  22.451  0.00  0.00    +0.296 HD
ENDBRANCH  20  22
ENDBRANCH   4  20
BRANCH   6  24
ATOM     24  C   UNL     1       7.902  -0.852  22.984  0.00  0.00    +0.212 C 
BRANCH  24  25
ATOM     25  O   UNL     1       6.696  -0.147  22.659  0.00  0.00    -0.381 OA
ATOM     26  H   UNL     1       6.310  -0.580  21.878  0.00  0.00    +0.210 HD
ENDBRANCH  24  25
BRANCH  24  27
ATOM     27  C   UNL     1       8.852  -0.865  21.752  0.00  0.00    +0.176 C 
BRANCH  27  28
ATOM     28  O   UNL     1       9.866  -1.888  21.880  0.00  0.00    -0.387 OA
ATOM     29  H   UNL     1      10.717  -1.511  21.603  0.00  0.00    +0.210 HD
ENDBRANCH  27  28
BRANCH  27  30
ATOM     30  C   UNL     1       9.598   0.455  21.527  0.00  0.00    +0.190 C 
BRANCH  30  31
ATOM     31  O   UNL     1       8.691   1.413  20.973  0.00  0.00    -0.392 OA
ATOM     32  H   UNL     1       8.187   0.916  20.298  0.00  0.00    +0.210 HD
ENDBRANCH  30  31
ENDBRANCH  27  30
ENDBRANCH  24  27
ENDBRANCH   6  24
TORSDOF 10
ENDMDL
MODEL 5
REMARK VINA RESULT:      -6.1      2.786      6.759
REMARK  Name = 
REMARK  11 active torsions:
REMARK  status: ('A' for Active; 'I' for Inactive)
REMARK    1  A    between atoms: C_1  and  C_2
REMARK    2  A    between atoms: N_4  and  C_5
REMARK    3  A    between atoms: C_6  and  C_19
REMARK    4  A    between atoms: C_8  and  C_16
REMARK    5  A    between atoms: C_10  and  N_12
REMARK    6  A    between atoms: C_16  and  O_18
REMARK    7  A    between atoms: C_19  and  C_21
REMARK    8  A    between atoms: C_19  and  O_26
REMARK    9  A    between atoms: C_21  and  C_23
REMARK   10  A    between atoms: C_21  and  O_25
REMARK   11  A    between atoms: C_23  and  O_24
REMARK                            x       y       z     vdW  Elec       q    Type
REMARK                         _______ _______ _______ _____ _____    ______ ____
ROOT
ATOM      1  C   UNL     1       7.692  -3.827  24.008  0.00  0.00    +0.096 C 
ATOM      2  C   UNL     1       8.682  -2.657  23.805  0.00  0.00    +0.262 C 
ATOM      3  C   UNL     1       8.623  -1.662  24.927  0.00  0.00    +0.076 C 
ATOM      4  C   UNL     1       7.993  -1.926  26.073  0.00  0.00    +0.211 C 
ATOM      5  O   UNL     1       7.372  -3.135  26.306  0.00  0.00    -0.449 OA
ATOM      6  C   UNL     1       7.162  -4.029  25.250  0.00  0.00    +0.158 C 
ENDROOT
BRANCH   2   7
ATOM      7  N   UNL     1       8.441  -1.911  22.571  0.00  0.00    -0.100 NA
ATOM      8  C   UNL     1       9.473  -1.410  21.991  0.00  0.00    +0.377 C 
ATOM      9  N   UNL     1       9.356  -0.870  20.758  0.00  0.00    -0.289 N 
ATOM     10  H   UNL     1      10.134  -1.141  20.167  0.00  0.00    +0.255 HD
ATOM     11  H   UNL     1       8.492  -1.213  20.347  0.00  0.00    +0.255 HD
ATOM     12  N   UNL     1      10.772  -1.336  22.383  0.00  0.00    -0.289 N 
ATOM     13  H   UNL     1      11.251  -0.518  22.024  0.00  0.00    +0.255 HD
ATOM     14  H   UNL     1      10.943  -1.444  23.374  0.00  0.00    +0.255 HD
ENDBRANCH   2   7
BRANCH   1  17
ATOM     15  C   UNL     1       6.366  -5.881  21.132  0.00  0.00    +0.109 C 
ATOM     16  C   UNL     1       6.352  -4.676  22.047  0.00  0.00    +0.214 C 
ATOM     17  N   UNL     1       7.392  -4.714  22.969  0.00  0.00    -0.283 N 
ATOM     18  H   UNL     1       7.990  -5.521  22.871  0.00  0.00    +0.155 HD
ATOM     19  O   UNL     1       5.516  -3.798  21.889  0.00  0.00    -0.276 OA
ENDBRANCH   1  17
BRANCH   4  20
ATOM     20  C   UNL     1       7.970  -0.886  27.138  0.00  0.00    +0.372 C 
ATOM     21  O   UNL     1       6.960  -0.370  27.588  0.00  0.00    -0.242 OA
BRANCH  20  22
ATOM     22  O   UNL     1       9.211  -0.574  27.558  0.00  0.00    -0.475 OA
ATOM     23  H   UNL     1       9.910  -1.075  27.083  0.00  0.00    +0.296 HD
ENDBRANCH  20  22
ENDBRANCH   4  20
BRANCH   6  24
ATOM     24  C   UNL     1       6.344  -5.234  25.699  0.00  0.00    +0.212 C 
BRANCH  24  25
ATOM     25  O   UNL     1       5.009  -5.110  25.187  0.00  0.00    -0.381 OA
ATOM     26  H   UNL     1       4.846  -4.163  25.034  0.00  0.00    +0.210 HD
ENDBRANCH  24  25
BRANCH  24  27
ATOM     27  C   UNL     1       6.300  -5.394  27.246  0.00  0.00    +0.176 C 
BRANCH  27  28
ATOM     28  O   UNL     1       7.509  -6.012  27.745  0.00  0.00    -0.387 OA
ATOM     29  H   UNL     1       7.540  -6.927  27.418  0.00  0.00    +0.210 HD
ENDBRANCH  27  28
BRANCH  27  30
ATOM     30  C   UNL     1       5.136  -6.255  27.749  0.00  0.00    +0.190 C 
BRANCH  30  31
ATOM     31  O   UNL     1       5.656  -7.489  28.255  0.00  0.00    -0.392 OA
ATOM     32  H   UNL     1       5.104  -8.180  27.838  0.00  0.00    +0.210 HD
ENDBRANCH  30  31
ENDBRANCH  27  30
ENDBRANCH  24  27
ENDBRANCH   6  24
TORSDOF 10
ENDMDL
MODEL 6
REMARK VINA RESULT:      -6.0      3.778      5.110
REMARK  Name = 
REMARK  11 active torsions:
REMARK  status: ('A' for Active; 'I' for Inactive)
REMARK    1  A    between atoms: C_1  and  C_2
REMARK    2  A    between atoms: N_4  and  C_5
REMARK    3  A    between atoms: C_6  and  C_19
REMARK    4  A    between atoms: C_8  and  C_16
REMARK    5  A    between atoms: C_10  and  N_12
REMARK    6  A    between atoms: C_16  and  O_18
REMARK    7  A    between atoms: C_19  and  C_21
REMARK    8  A    between atoms: C_19  and  O_26
REMARK    9  A    between atoms: C_21  and  C_23
REMARK   10  A    between atoms: C_21  and  O_25
REMARK   11  A    between atoms: C_23  and  O_24
REMARK                            x       y       z     vdW  Elec       q    Type
REMARK                         _______ _______ _______ _____ _____    ______ ____
ROOT
ATOM      1  C   UNL     1       5.724  -5.562  26.320  0.00  0.00    +0.096 C 
ATOM      2  C   UNL     1       4.475  -6.133  25.608  0.00  0.00    +0.262 C 
ATOM      3  C   UNL     1       4.527  -5.930  24.122  0.00  0.00    +0.076 C 
ATOM      4  C   UNL     1       5.646  -5.557  23.499  0.00  0.00    +0.211 C 
ATOM      5  O   UNL     1       6.829  -5.351  24.176  0.00  0.00    -0.449 OA
ATOM      6  C   UNL     1       6.831  -5.278  25.574  0.00  0.00    +0.158 C 
ENDROOT
BRANCH   2   7
ATOM      7  N   UNL     1       3.226  -5.529  26.069  0.00  0.00    -0.100 NA
ATOM      8  C   UNL     1       2.483  -6.254  26.828  0.00  0.00    +0.377 C 
ATOM      9  N   UNL     1       1.412  -5.705  27.442  0.00  0.00    -0.289 N 
ATOM     10  H   UNL     1       1.342  -6.022  28.402  0.00  0.00    +0.255 HD
ATOM     11  H   UNL     1       1.528  -4.696  27.433  0.00  0.00    +0.255 HD
ATOM     12  N   UNL     1       2.581  -7.557  27.196  0.00  0.00    -0.289 N 
ATOM     13  H   UNL     1       1.683  -7.994  27.364  0.00  0.00    +0.255 HD
ATOM     14  H   UNL     1       3.157  -8.142  26.604  0.00  0.00    +0.255 HD
ENDBRANCH   2   7
BRANCH   1  17
ATOM     15  C   UNL     1       5.675  -5.744  30.090  0.00  0.00    +0.109 C 
ATOM     16  C   UNL     1       5.654  -6.364  28.711  0.00  0.00    +0.214 C 
ATOM     17  N   UNL     1       5.759  -5.405  27.709  0.00  0.00    -0.283 N 
ATOM     18  H   UNL     1       5.846  -4.463  28.060  0.00  0.00    +0.155 HD
ATOM     19  O   UNL     1       5.598  -7.579  28.588  0.00  0.00    -0.276 OA
ENDBRANCH   1  17
BRANCH   4  20
ATOM     20  C   UNL     1       5.618  -5.367  22.022  0.00  0.00    +0.372 C 
ATOM     21  O   UNL     1       5.592  -4.285  21.458  0.00  0.00    -0.242 OA
BRANCH  20  22
ATOM     22  O   UNL     1       5.627  -6.544  21.367  0.00  0.00    -0.475 OA
ATOM     23  H   UNL     1       5.494  -6.441  20.400  0.00  0.00    +0.296 HD
ENDBRANCH  20  22
ENDBRANCH   4  20
BRANCH   6  24
ATOM     24  C   UNL     1       8.211  -4.912  26.107  0.00  0.00    +0.212 C 
BRANCH  24  25
ATOM     25  O   UNL     1       8.143  -3.622  26.734  0.00  0.00    -0.381 OA
ATOM     26  H   UNL     1       8.322  -3.753  27.681  0.00  0.00    +0.210 HD
ENDBRANCH  24  25
BRANCH  24  27
ATOM     27  C   UNL     1       9.305  -4.901  25.001  0.00  0.00    +0.176 C 
BRANCH  27  28
ATOM     28  O   UNL     1      10.527  -5.517  25.464  0.00  0.00    -0.387 OA
ATOM     29  H   UNL     1      10.929  -5.996  24.720  0.00  0.00    +0.210 HD
ENDBRANCH  27  28
BRANCH  27  30
ATOM     30  C   UNL     1       9.685  -3.497  24.517  0.00  0.00    +0.190 C 
BRANCH  30  31
ATOM     31  O   UNL     1       8.608  -2.964  23.740  0.00  0.00    -0.392 OA
ATOM     32  H   UNL     1       8.560  -3.542  22.953  0.00  0.00    +0.210 HD
ENDBRANCH  30  31
ENDBRANCH  27  30
ENDBRANCH  24  27
ENDBRANCH   6  24
TORSDOF 10
ENDMDL
MODEL 7
REMARK VINA RESULT:      -6.0      2.463      5.359
REMARK  Name = 
REMARK  11 active torsions:
REMARK  status: ('A' for Active; 'I' for Inactive)
REMARK    1  A    between atoms: C_1  and  C_2
REMARK    2  A    between atoms: N_4  and  C_5
REMARK    3  A    between atoms: C_6  and  C_19
REMARK    4  A    between atoms: C_8  and  C_16
REMARK    5  A    between atoms: C_10  and  N_12
REMARK    6  A    between atoms: C_16  and  O_18
REMARK    7  A    between atoms: C_19  and  C_21
REMARK    8  A    between atoms: C_19  and  O_26
REMARK    9  A    between atoms: C_21  and  C_23
REMARK   10  A    between atoms: C_21  and  O_25
REMARK   11  A    between atoms: C_23  and  O_24
REMARK                            x       y       z     vdW  Elec       q    Type
REMARK                         _______ _______ _______ _____ _____    ______ ____
ROOT
ATOM      1  C   UNL     1       7.680  -3.126  24.548  0.00  0.00    +0.096 C 
ATOM      2  C   UNL     1       7.432  -2.541  23.138  0.00  0.00    +0.262 C 
ATOM      3  C   UNL     1       7.032  -3.595  22.148  0.00  0.00    +0.076 C 
ATOM      4  C   UNL     1       6.672  -4.822  22.529  0.00  0.00    +0.211 C 
ATOM      5  O   UNL     1       6.626  -5.193  23.856  0.00  0.00    -0.449 OA
ATOM      6  C   UNL     1       7.204  -4.374  24.832  0.00  0.00    +0.158 C 
ENDROOT
BRANCH   2   7
ATOM      7  N   UNL     1       8.605  -1.868  22.583  0.00  0.00    -0.100 NA
ATOM      8  C   UNL     1       8.547  -0.587  22.499  0.00  0.00    +0.377 C 
ATOM      9  N   UNL     1       9.654   0.117  22.173  0.00  0.00    -0.289 N 
ATOM     10  H   UNL     1       9.740   0.946  22.748  0.00  0.00    +0.255 HD
ATOM     11  H   UNL     1      10.462  -0.480  22.327  0.00  0.00    +0.255 HD
ATOM     12  N   UNL     1       7.525   0.280  22.722  0.00  0.00    -0.289 N 
ATOM     13  H   UNL     1       7.574   1.112  22.146  0.00  0.00    +0.255 HD
ATOM     14  H   UNL     1       6.595  -0.117  22.698  0.00  0.00    +0.255 HD
ENDBRANCH   2   7
BRANCH   1  17
ATOM     15  C   UNL     1       8.976  -0.657  27.092  0.00  0.00    +0.109 C 
ATOM     16  C   UNL     1       7.971  -1.134  26.067  0.00  0.00    +0.214 C 
ATOM     17  N   UNL     1       8.312  -2.377  25.544  0.00  0.00    -0.283 N 
ATOM     18  H   UNL     1       9.158  -2.762  25.939  0.00  0.00    +0.155 HD
ATOM     19  O   UNL     1       6.978  -0.462  25.826  0.00  0.00    -0.276 OA
ENDBRANCH   1  17
BRANCH   4  20
ATOM     20  C   UNL     1       6.296  -5.817  21.487  0.00  0.00    +0.372 C 
ATOM     21  O   UNL     1       5.963  -5.542  20.346  0.00  0.00    -0.242 OA
BRANCH  20  22
ATOM     22  O   UNL     1       6.370  -7.079  21.953  0.00  0.00    -0.475 OA
ATOM     23  H   UNL     1       6.163  -7.142  22.911  0.00  0.00    +0.296 HD
ENDBRANCH  20  22
ENDBRANCH   4  20
BRANCH   6  24
ATOM     24  C   UNL     1       7.162  -5.034  26.205  0.00  0.00    +0.212 C 
BRANCH  24  25
ATOM     25  O   UNL     1       8.326  -5.859  26.363  0.00  0.00    -0.381 OA
ATOM     26  H   UNL     1       8.352  -6.469  25.605  0.00  0.00    +0.210 HD
ENDBRANCH  24  25
BRANCH  24  27
ATOM     27  C   UNL     1       5.880  -5.887  26.428  0.00  0.00    +0.176 C 
BRANCH  27  28
ATOM     28  O   UNL     1       4.698  -5.187  25.977  0.00  0.00    -0.387 OA
ATOM     29  H   UNL     1       4.814  -4.966  25.038  0.00  0.00    +0.210 HD
ENDBRANCH  27  28
BRANCH  27  30
ATOM     30  C   UNL     1       5.628  -6.259  27.893  0.00  0.00    +0.190 C 
BRANCH  30  31
ATOM     31  O   UNL     1       6.864  -6.182  28.611  0.00  0.00    -0.392 OA
ATOM     32  H   UNL     1       7.526  -6.573  28.008  0.00  0.00    +0.210 HD
ENDBRANCH  30  31
ENDBRANCH  27  30
ENDBRANCH  24  27
ENDBRANCH   6  24
TORSDOF 10
ENDMDL
MODEL 8
REMARK VINA RESULT:      -5.9      2.694      4.821
REMARK  Name = 
REMARK  11 active torsions:
REMARK  status: ('A' for Active; 'I' for Inactive)
REMARK    1  A    between atoms: C_1  and  C_2
REMARK    2  A    between atoms: N_4  and  C_5
REMARK    3  A    between atoms: C_6  and  C_19
REMARK    4  A    between atoms: C_8  and  C_16
REMARK    5  A    between atoms: C_10  and  N_12
REMARK    6  A    between atoms: C_16  and  O_18
REMARK    7  A    between atoms: C_19  and  C_21
REMARK    8  A    between atoms: C_19  and  O_26
REMARK    9  A    between atoms: C_21  and  C_23
REMARK   10  A    between atoms: C_21  and  O_25
REMARK   11  A    between atoms: C_23  and  O_24
REMARK                            x       y       z     vdW  Elec       q    Type
REMARK                         _______ _______ _______ _____ _____    ______ ____
ROOT
ATOM      1  C   UNL     1       7.036  -2.764  24.522  0.00  0.00    +0.096 C 
ATOM      2  C   UNL     1       6.650  -2.131  23.165  0.00  0.00    +0.262 C 
ATOM      3  C   UNL     1       6.408  -3.165  22.104  0.00  0.00    +0.076 C 
ATOM      4  C   UNL     1       6.274  -4.460  22.398  0.00  0.00    +0.211 C 
ATOM      5  O   UNL     1       6.333  -4.928  23.693  0.00  0.00    -0.449 OA
ATOM      6  C   UNL     1       6.790  -4.092  24.719  0.00  0.00    +0.158 C 
ENDROOT
BRANCH   2   7
ATOM      7  N   UNL     1       7.673  -1.227  22.642  0.00  0.00    -0.100 NA
ATOM      8  C   UNL     1       7.410   0.030  22.692  0.00  0.00    +0.377 C 
ATOM      9  N   UNL     1       8.374   0.931  22.403  0.00  0.00    -0.289 N 
ATOM     10  H   UNL     1       8.356   1.705  23.057  0.00  0.00    +0.255 HD
ATOM     11  H   UNL     1       9.272   0.461  22.468  0.00  0.00    +0.255 HD
ATOM     12  N   UNL     1       6.276   0.694  23.037  0.00  0.00    -0.289 N 
ATOM     13  H   UNL     1       6.164   1.574  22.548  0.00  0.00    +0.255 HD
ATOM     14  H   UNL     1       5.420   0.156  23.004  0.00  0.00    +0.255 HD
ENDBRANCH   2   7
BRANCH   1  17
ATOM     15  C   UNL     1       7.959  -0.300  27.228  0.00  0.00    +0.109 C 
ATOM     16  C   UNL     1       7.019  -0.873  26.191  0.00  0.00    +0.214 C 
ATOM     17  N   UNL     1       7.559  -1.989  25.561  0.00  0.00    -0.283 N 
ATOM     18  H   UNL     1       8.474  -2.242  25.904  0.00  0.00    +0.155 HD
ATOM     19  O   UNL     1       5.913  -0.377  26.027  0.00  0.00    -0.276 OA
ENDBRANCH   1  17
BRANCH   4  20
ATOM     20  C   UNL     1       6.045  -5.428  21.290  0.00  0.00    +0.372 C 
ATOM     21  O   UNL     1       5.915  -5.127  20.115  0.00  0.00    -0.242 OA
BRANCH  20  22
ATOM     22  O   UNL     1       5.999  -6.697  21.739  0.00  0.00    -0.475 OA
ATOM     23  H   UNL     1       6.127  -7.358  21.023  0.00  0.00    +0.296 HD
ENDBRANCH  20  22
ENDBRANCH   4  20
BRANCH   6  24
ATOM     24  C   UNL     1       6.902  -4.846  26.038  0.00  0.00    +0.212 C 
BRANCH  24  25
ATOM     25  O   UNL     1       6.373  -4.027  27.092  0.00  0.00    -0.381 OA
ATOM     26  H   UNL     1       6.886  -3.201  27.099  0.00  0.00    +0.210 HD
ENDBRANCH  24  25
BRANCH  24  27
ATOM     27  C   UNL     1       8.364  -5.260  26.377  0.00  0.00    +0.176 C 
BRANCH  27  28
ATOM     28  O   UNL     1       9.060  -4.203  27.077  0.00  0.00    -0.387 OA
ATOM     29  H   UNL     1       9.573  -4.602  27.799  0.00  0.00    +0.210 HD
ENDBRANCH  27  28
BRANCH  27  30
ATOM     30  C   UNL     1       9.215  -5.597  25.148  0.00  0.00    +0.190 C 
BRANCH  30  31
ATOM     31  O   UNL     1      10.599  -5.495  25.499  0.00  0.00    -0.392 OA
ATOM     32  H   UNL     1      11.067  -5.430  24.643  0.00  0.00    +0.210 HD
ENDBRANCH  30  31
ENDBRANCH  27  30
ENDBRANCH  24  27
ENDBRANCH   6  24
TORSDOF 10
ENDMDL
MODEL 9
REMARK VINA RESULT:      -5.9      2.698      5.205
REMARK  Name = 
REMARK  11 active torsions:
REMARK  status: ('A' for Active; 'I' for Inactive)
REMARK    1  A    between atoms: C_1  and  C_2
REMARK    2  A    between atoms: N_4  and  C_5
REMARK    3  A    between atoms: C_6  and  C_19
REMARK    4  A    between atoms: C_8  and  C_16
REMARK    5  A    between atoms: C_10  and  N_12
REMARK    6  A    between atoms: C_16  and  O_18
REMARK    7  A    between atoms: C_19  and  C_21
REMARK    8  A    between atoms: C_19  and  O_26
REMARK    9  A    between atoms: C_21  and  C_23
REMARK   10  A    between atoms: C_21  and  O_25
REMARK   11  A    between atoms: C_23  and  O_24
REMARK                            x       y       z     vdW  Elec       q    Type
REMARK                         _______ _______ _______ _____ _____    ______ ____
ROOT
ATOM      1  C   UNL     1       8.011  -1.985  23.993  0.00  0.00    +0.096 C 
ATOM      2  C   UNL     1       6.716  -1.477  23.317  0.00  0.00    +0.262 C 
ATOM      3  C   UNL     1       6.023  -2.554  22.536  0.00  0.00    +0.076 C 
ATOM      4  C   UNL     1       6.353  -3.841  22.660  0.00  0.00    +0.211 C 
ATOM      5  O   UNL     1       7.339  -4.264  23.526  0.00  0.00    -0.449 OA
ATOM      6  C   UNL     1       8.202  -3.331  24.114  0.00  0.00    +0.158 C 
ENDROOT
BRANCH   2   7
ATOM      7  N   UNL     1       6.950  -0.371  22.389  0.00  0.00    -0.100 NA
ATOM      8  C   UNL     1       6.593   0.798  22.786  0.00  0.00    +0.377 C 
ATOM      9  N   UNL     1       6.943   1.888  22.068  0.00  0.00    -0.289 N 
ATOM     10  H   UNL     1       7.249   2.639  22.674  0.00  0.00    +0.255 HD
ATOM     11  H   UNL     1       7.707   1.625  21.452  0.00  0.00    +0.255 HD
ATOM     12  N   UNL     1       5.907   1.198  23.887  0.00  0.00    -0.289 N 
ATOM     13  H   UNL     1       5.353   2.032  23.732  0.00  0.00    +0.255 HD
ATOM     14  H   UNL     1       5.357   0.486  24.350  0.00  0.00    +0.255 HD
ENDBRANCH   2   7
BRANCH   1  17
ATOM     15  C   UNL     1      10.815   0.366  24.920  0.00  0.00    +0.109 C 
ATOM     16  C   UNL     1      10.025  -0.468  23.936  0.00  0.00    +0.214 C 
ATOM     17  N   UNL     1       8.941  -1.097  24.540  0.00  0.00    -0.283 N 
ATOM     18  H   UNL     1       8.849  -0.885  25.523  0.00  0.00    +0.155 HD
ATOM     19  O   UNL     1      10.348  -0.490  22.756  0.00  0.00    -0.276 OA
ENDBRANCH   1  17
BRANCH   4  20
ATOM     20  C   UNL     1       5.626  -4.852  21.845  0.00  0.00    +0.372 C 
ATOM     21  O   UNL     1       6.028  -5.321  20.792  0.00  0.00    -0.242 OA
BRANCH  20  22
ATOM     22  O   UNL     1       4.455  -5.201  22.412  0.00  0.00    -0.475 OA
ATOM     23  H   UNL     1       3.694  -5.115  21.796  0.00  0.00    +0.296 HD
ENDBRANCH  20  22
ENDBRANCH   4  20
BRANCH   6  24
ATOM     24  C   UNL     1       9.294  -4.021  24.922  0.00  0.00    +0.212 C 
BRANCH  24  25
ATOM     25  O   UNL     1       9.471  -5.356  24.426  0.00  0.00    -0.381 OA
ATOM     26  H   UNL     1      10.206  -5.332  23.790  0.00  0.00    +0.210 HD
ENDBRANCH  24  25
BRANCH  24  27
ATOM     27  C   UNL     1       8.985  -4.063  26.447  0.00  0.00    +0.176 C 
BRANCH  27  28
ATOM     28  O   UNL     1       9.850  -4.997  27.133  0.00  0.00    -0.387 OA
ATOM     29  H   UNL     1      10.747  -4.625  27.152  0.00  0.00    +0.210 HD
ENDBRANCH  27  28
BRANCH  27  30
ATOM     30  C   UNL     1       7.548  -4.481  26.778  0.00  0.00    +0.190 C 
BRANCH  30  31
ATOM     31  O   UNL     1       7.349  -5.833  26.355  0.00  0.00    -0.392 OA
ATOM     32  H   UNL     1       8.112  -6.323  26.720  0.00  0.00    +0.210 HD
ENDBRANCH  30  31
ENDBRANCH  27  30
ENDBRANCH  24  27
ENDBRANCH   6  24
TORSDOF 10
ENDMDL
