MODEL 1
REMARK VINA RESULT:      -5.4      0.000      0.000
REMARK  Name = 
REMARK  8 active torsions:
REMARK  status: ('A' for Active; 'I' for Inactive)
REMARK    1  A    between atoms: C_2  and  C_6
REMARK    2  A    between atoms: C_6  and  C_7
REMARK    3  A    between atoms: C_7  and  N_8
REMARK    4  A    between atoms: C_9  and  C_11
REMARK    5  A    between atoms: C_11  and  C_12
REMARK    6  A    between atoms: C_12  and  C_13
REMARK    7  A    between atoms: C_13  and  C_14
REMARK    8  A    between atoms: C_14  and  O_16
REMARK                            x       y       z     vdW  Elec       q    Type
REMARK                         _______ _______ _______ _____ _____    ______ ____
ROOT
ATOM      1  N   UNL     1       9.222   2.783  22.247  0.00  0.00    -0.315 N 
ATOM      2  H   UNL     1       9.883   3.264  21.648  0.00  0.00    +0.149 HD
ATOM      3  C   UNL     1       8.960   3.268  23.506  0.00  0.00    +0.213 C 
ATOM      4  O   UNL     1       8.118   2.774  24.251  0.00  0.00    -0.276 OA
ENDROOT
BRANCH   1   5
ATOM      5  C   UNL     1       8.545   1.607  21.733  0.00  0.00    +0.110 C 
BRANCH   5   6
ATOM      6  C   UNL     1       9.513   0.458  21.438  0.00  0.00    +0.073 C 
BRANCH   6  12
ATOM      7  C   UNL     1      10.106  -1.773  22.678  0.00  0.00    +0.133 A 
ATOM      8  N   UNL     1       9.888  -2.287  23.929  0.00  0.00    -0.244 NA
ATOM      9  C   UNL     1       9.197  -1.370  24.567  0.00  0.00    +0.196 A 
ATOM     10  N   UNL     1       8.962  -0.281  23.778  0.00  0.00    -0.348 N 
ATOM     11  H   UNL     1       8.454   0.550  24.050  0.00  0.00    +0.166 HD
ATOM     12  C   UNL     1       9.547  -0.520  22.558  0.00  0.00    +0.037 A 
ENDBRANCH   6  12
ENDBRANCH   5   6
ENDBRANCH   1   5
BRANCH   3  13
ATOM     13  C   UNL     1       9.811   4.461  23.896  0.00  0.00    +0.096 C 
BRANCH  13  14
ATOM     14  C   UNL     1      11.284   4.268  23.521  0.00  0.00    +0.020 C 
BRANCH  14  15
ATOM     15  C   UNL     1      12.057   5.582  23.365  0.00  0.00    +0.121 C 
BRANCH  15  16
ATOM     16  C   UNL     1      13.335   5.411  22.578  0.00  0.00    +0.305 C 
ATOM     17  O   UNL     1      13.443   5.611  21.378  0.00  0.00    -0.251 OA
BRANCH  16  18
ATOM     18  O   UNL     1      14.380   5.017  23.340  0.00  0.00    -0.481 OA
ATOM     19  H   UNL     1      14.950   4.344  22.921  0.00  0.00    +0.295 HD
ENDBRANCH  16  18
ENDBRANCH  15  16
ENDBRANCH  14  15
ENDBRANCH  13  14
ENDBRANCH   3  13
TORSDOF 8
ENDMDL
MODEL 2
REMARK VINA RESULT:      -5.2      3.333      4.985
REMARK  Name = 
REMARK  8 active torsions:
REMARK  status: ('A' for Active; 'I' for Inactive)
REMARK    1  A    between atoms: C_2  and  C_6
REMARK    2  A    between atoms: C_6  and  C_7
REMARK    3  A    between atoms: C_7  and  N_8
REMARK    4  A    between atoms: C_9  and  C_11
REMARK    5  A    between atoms: C_11  and  C_12
REMARK    6  A    between atoms: C_12  and  C_13
REMARK    7  A    between atoms: C_13  and  C_14
REMARK    8  A    between atoms: C_14  and  O_16
REMARK                            x       y       z     vdW  Elec       q    Type
REMARK                         _______ _______ _______ _____ _____    ______ ____
ROOT
ATOM      1  N   UNL     1       9.370  -1.735  24.475  0.00  0.00    -0.315 N 
ATOM      2  H   UNL     1       9.140  -1.671  25.459  0.00  0.00    +0.149 HD
ATOM      3  C   UNL     1      10.120  -0.748  23.881  0.00  0.00    +0.213 C 
ATOM      4  O   UNL     1      10.494  -0.805  22.713  0.00  0.00    -0.276 OA
ENDROOT
BRANCH   1   5
ATOM      5  C   UNL     1       8.924  -2.899  23.731  0.00  0.00    +0.110 C 
BRANCH   5   6
ATOM      6  C   UNL     1       7.400  -3.042  23.730  0.00  0.00    +0.073 C 
BRANCH   6  12
ATOM      7  C   UNL     1       6.052  -3.937  21.668  0.00  0.00    +0.133 A 
ATOM      8  N   UNL     1       5.986  -5.119  20.979  0.00  0.00    -0.244 NA
ATOM      9  C   UNL     1       6.821  -5.927  21.591  0.00  0.00    +0.196 A 
ATOM     10  N   UNL     1       7.429  -5.312  22.647  0.00  0.00    -0.348 N 
ATOM     11  H   UNL     1       8.111  -5.731  23.266  0.00  0.00    +0.166 HD
ATOM     12  C   UNL     1       6.950  -4.026  22.709  0.00  0.00    +0.037 A 
ENDBRANCH   6  12
ENDBRANCH   5   6
ENDBRANCH   1   5
BRANCH   3  13
ATOM     13  C   UNL     1      10.436   0.420  24.795  0.00  0.00    +0.096 C 
BRANCH  13  14
ATOM     14  C   UNL     1      10.501   1.748  24.033  0.00  0.00    +0.020 C 
BRANCH  14  15
ATOM     15  C   UNL     1       9.126   2.344  23.713  0.00  0.00    +0.121 C 
BRANCH  15  16
ATOM     16  C   UNL     1       8.803   2.292  22.238  0.00  0.00    +0.305 C 
ATOM     17  O   UNL     1       7.700   2.511  21.762  0.00  0.00    -0.251 OA
BRANCH  16  18
ATOM     18  O   UNL     1       9.871   1.984  21.470  0.00  0.00    -0.481 OA
ATOM     19  H   UNL     1      10.083   2.654  20.792  0.00  0.00    +0.295 HD
ENDBRANCH  16  18
ENDBRANCH  15  16
ENDBRANCH  14  15
ENDBRANCH  13  14
ENDBRANCH   3  13
TORSDOF 8
ENDMDL
MODEL 3
REMARK VINA RESULT:      -5.2      5.123      8.621
REMARK  Name = 
REMARK  8 active torsions:
REMARK  status: ('A' for Active; 'I' for Inactive)
REMARK    1  A    between atoms: C_2  and  C_6
REMARK    2  A    between atoms: C_6  and  C_7
REMARK    3  A    between atoms: C_7  and  N_8
REMARK    4  A    between atoms: C_9  and  C_11
REMARK    5  A    between atoms: C_11  and  C_12
REMARK    6  A    between atoms: C_12  and  C_13
REMARK    7  A    between atoms: C_13  and  C_14
REMARK    8  A    between atoms: C_14  and  O_16
REMARK                            x       y       z     vdW  Elec       q    Type
REMARK                         _______ _______ _______ _____ _____    ______ ____
ROOT
ATOM      1  N   UNL     1       8.491  -3.117  23.821  0.00  0.00    -0.315 N 
ATOM      2  H   UNL     1       7.693  -2.623  23.441  0.00  0.00    +0.149 HD
ATOM      3  C   UNL     1       8.390  -4.454  24.124  0.00  0.00    +0.213 C 
ATOM      4  O   UNL     1       9.340  -5.125  24.516  0.00  0.00    -0.276 OA
ENDROOT
BRANCH   1   5
ATOM      5  C   UNL     1       9.736  -2.393  23.999  0.00  0.00    +0.110 C 
BRANCH   5   6
ATOM      6  C   UNL     1      10.208  -1.717  22.709  0.00  0.00    +0.073 C 
BRANCH   6  12
ATOM      7  C   UNL     1      10.591   0.585  23.902  0.00  0.00    +0.133 A 
ATOM      8  N   UNL     1      10.469   1.903  23.549  0.00  0.00    -0.244 NA
ATOM      9  C   UNL     1      10.038   1.894  22.309  0.00  0.00    +0.196 A 
ATOM     10  N   UNL     1       9.878   0.621  21.843  0.00  0.00    -0.348 N 
ATOM     11  H   UNL     1       9.559   0.363  20.919  0.00  0.00    +0.166 HD
ATOM     12  C   UNL     1      10.237  -0.237  22.855  0.00  0.00    +0.037 A 
ENDBRANCH   6  12
ENDBRANCH   5   6
ENDBRANCH   1   5
BRANCH   3  13
ATOM     13  C   UNL     1       6.997  -5.023  23.937  0.00  0.00    +0.096 C 
BRANCH  13  14
ATOM     14  C   UNL     1       6.082  -4.714  25.127  0.00  0.00    +0.020 C 
BRANCH  14  15
ATOM     15  C   UNL     1       6.042  -5.827  26.180  0.00  0.00    +0.121 C 
BRANCH  15  16
ATOM     16  C   UNL     1       6.852  -5.491  27.409  0.00  0.00    +0.305 C 
ATOM     17  O   UNL     1       6.394  -5.001  28.429  0.00  0.00    -0.251 OA
BRANCH  16  18
ATOM     18  O   UNL     1       8.162  -5.800  27.283  0.00  0.00    -0.481 OA
ATOM     19  H   UNL     1       8.765  -5.175  27.729  0.00  0.00    +0.295 HD
ENDBRANCH  16  18
ENDBRANCH  15  16
ENDBRANCH  14  15
ENDBRANCH  13  14
ENDBRANCH   3  13
TORSDOF 8
ENDMDL
MODEL 4
REMARK VINA RESULT:      -5.1      5.229      9.215
REMARK  Name = 
REMARK  8 active torsions:
REMARK  status: ('A' for Active; 'I' for Inactive)
REMARK    1  A    between atoms: C_2  and  C_6
REMARK    2  A    between atoms: C_6  and  C_7
REMARK    3  A    between atoms: C_7  and  N_8
REMARK    4  A    between atoms: C_9  and  C_11
REMARK    5  A    between atoms: C_11  and  C_12
REMARK    6  A    between atoms: C_12  and  C_13
REMARK    7  A    between atoms: C_13  and  C_14
REMARK    8  A    between atoms: C_14  and  O_16
REMARK                            x       y       z     vdW  Elec       q    Type
REMARK                         _______ _______ _______ _____ _____    ______ ____
ROOT
ATOM      1  N   UNL     1       8.224  -4.219  23.840  0.00  0.00    -0.315 N 
ATOM      2  H   UNL     1       8.413  -5.068  24.359  0.00  0.00    +0.149 HD
ATOM      3  C   UNL     1       7.492  -4.275  22.678  0.00  0.00    +0.213 C 
ATOM      4  O   UNL     1       7.167  -3.275  22.044  0.00  0.00    -0.276 OA
ENDROOT
BRANCH   1   5
ATOM      5  C   UNL     1       8.709  -2.958  24.370  0.00  0.00    +0.110 C 
BRANCH   5   6
ATOM      6  C   UNL     1      10.051  -2.546  23.758  0.00  0.00    +0.073 C 
BRANCH   6  12
ATOM      7  C   UNL     1      10.201   0.023  23.263  0.00  0.00    +0.133 A 
ATOM      8  N   UNL     1       9.932   0.831  22.190  0.00  0.00    -0.244 NA
ATOM      9  C   UNL     1       9.486   0.028  21.252  0.00  0.00    +0.196 A 
ATOM     10  N   UNL     1       9.458  -1.269  21.674  0.00  0.00    -0.348 N 
ATOM     11  H   UNL     1       9.155  -2.065  21.128  0.00  0.00    +0.166 HD
ATOM     12  C   UNL     1       9.922  -1.293  22.967  0.00  0.00    +0.037 A 
ENDBRANCH   6  12
ENDBRANCH   5   6
ENDBRANCH   1   5
BRANCH   3  13
ATOM     13  C   UNL     1       7.130  -5.682  22.245  0.00  0.00    +0.096 C 
BRANCH  13  14
ATOM     14  C   UNL     1       5.643  -5.816  21.900  0.00  0.00    +0.020 C 
BRANCH  14  15
ATOM     15  C   UNL     1       4.707  -5.483  23.067  0.00  0.00    +0.121 C 
BRANCH  15  16
ATOM     16  C   UNL     1       4.829  -6.467  24.205  0.00  0.00    +0.305 C 
ATOM     17  O   UNL     1       5.361  -6.225  25.278  0.00  0.00    -0.251 OA
BRANCH  16  18
ATOM     18  O   UNL     1       4.274  -7.669  23.932  0.00  0.00    -0.481 OA
ATOM     19  H   UNL     1       4.328  -8.311  24.666  0.00  0.00    +0.295 HD
ENDBRANCH  16  18
ENDBRANCH  15  16
ENDBRANCH  14  15
ENDBRANCH  13  14
ENDBRANCH   3  13
TORSDOF 8
ENDMDL
MODEL 5
REMARK VINA RESULT:      -5.1      4.465      8.158
REMARK  Name = 
REMARK  8 active torsions:
REMARK  status: ('A' for Active; 'I' for Inactive)
REMARK    1  A    between atoms: C_2  and  C_6
REMARK    2  A    between atoms: C_6  and  C_7
REMARK    3  A    between atoms: C_7  and  N_8
REMARK    4  A    between atoms: C_9  and  C_11
REMARK    5  A    between atoms: C_11  and  C_12
REMARK    6  A    between atoms: C_12  and  C_13
REMARK    7  A    between atoms: C_13  and  C_14
REMARK    8  A    between atoms: C_14  and  O_16
REMARK                            x       y       z     vdW  Elec       q    Type
REMARK                         _______ _______ _______ _____ _____    ______ ____
ROOT
ATOM      1  N   UNL     1       8.668  -2.141  22.741  0.00  0.00    -0.315 N 
ATOM      2  H   UNL     1       7.718  -1.917  22.467  0.00  0.00    +0.149 HD
ATOM      3  C   UNL     1       8.894  -3.019  23.774  0.00  0.00    +0.213 C 
ATOM      4  O   UNL     1      10.018  -3.388  24.103  0.00  0.00    -0.276 OA
ENDROOT
BRANCH   1   5
ATOM      5  C   UNL     1       9.764  -1.545  21.999  0.00  0.00    +0.110 C 
BRANCH   5   6
ATOM      6  C   UNL     1       9.403  -0.172  21.426  0.00  0.00    +0.073 C 
BRANCH   6  12
ATOM      7  C   UNL     1      10.182   0.971  23.652  0.00  0.00    +0.133 A 
ATOM      8  N   UNL     1      10.617   2.219  24.012  0.00  0.00    -0.244 NA
ATOM      9  C   UNL     1      10.579   2.933  22.911  0.00  0.00    +0.196 A 
ATOM     10  N   UNL     1      10.140   2.195  21.850  0.00  0.00    -0.348 N 
ATOM     11  H   UNL     1      10.029   2.527  20.901  0.00  0.00    +0.166 HD
ATOM     12  C   UNL     1       9.885   0.924  22.307  0.00  0.00    +0.037 A 
ENDBRANCH   6  12
ENDBRANCH   5   6
ENDBRANCH   1   5
BRANCH   3  13
ATOM     13  C   UNL     1       7.633  -3.485  24.473  0.00  0.00    +0.096 C 
BRANCH  13  14
ATOM     14  C   UNL     1       7.455  -5.005  24.393  0.00  0.00    +0.020 C 
BRANCH  14  15
ATOM     15  C   UNL     1       6.133  -5.438  23.748  0.00  0.00    +0.121 C 
BRANCH  15  16
ATOM     16  C   UNL     1       6.289  -5.786  22.287  0.00  0.00    +0.305 C 
ATOM     17  O   UNL     1       7.350  -5.776  21.681  0.00  0.00    -0.251 OA
BRANCH  16  18
ATOM     18  O   UNL     1       5.124  -6.129  21.695  0.00  0.00    -0.481 OA
ATOM     19  H   UNL     1       4.739  -5.429  21.134  0.00  0.00    +0.295 HD
ENDBRANCH  16  18
ENDBRANCH  15  16
ENDBRANCH  14  15
ENDBRANCH  13  14
ENDBRANCH   3  13
TORSDOF 8
ENDMDL
MODEL 6
REMARK VINA RESULT:      -5.1      3.786      5.624
REMARK  Name = 
REMARK  8 active torsions:
REMARK  status: ('A' for Active; 'I' for Inactive)
REMARK    1  A    between atoms: C_2  and  C_6
REMARK    2  A    between atoms: C_6  and  C_7
REMARK    3  A    between atoms: C_7  and  N_8
REMARK    4  A    between atoms: C_9  and  C_11
REMARK    5  A    between atoms: C_11  and  C_12
REMARK    6  A    between atoms: C_12  and  C_13
REMARK    7  A    between atoms: C_13  and  C_14
REMARK    8  A    between atoms: C_14  and  O_16
REMARK                            x       y       z     vdW  Elec       q    Type
REMARK                         _______ _______ _______ _____ _____    ______ ____
ROOT
ATOM      1  N   UNL     1       8.182  -2.688  24.191  0.00  0.00    -0.315 N 
ATOM      2  H   UNL     1       7.481  -2.318  24.823  0.00  0.00    +0.149 HD
ATOM      3  C   UNL     1       9.416  -2.088  24.109  0.00  0.00    +0.213 C 
ATOM      4  O   UNL     1      10.330  -2.532  23.419  0.00  0.00    -0.276 OA
ENDROOT
BRANCH   1   5
ATOM      5  C   UNL     1       7.862  -3.872  23.416  0.00  0.00    +0.110 C 
BRANCH   5   6
ATOM      6  C   UNL     1       8.231  -5.166  24.148  0.00  0.00    +0.073 C 
BRANCH   6  12
ATOM      7  C   UNL     1       8.116  -5.111  26.765  0.00  0.00    +0.133 A 
ATOM      8  N   UNL     1       7.125  -5.215  27.705  0.00  0.00    -0.244 NA
ATOM      9  C   UNL     1       6.017  -5.400  27.024  0.00  0.00    +0.196 A 
ATOM     10  N   UNL     1       6.252  -5.416  25.680  0.00  0.00    -0.348 N 
ATOM     11  H   UNL     1       5.556  -5.541  24.957  0.00  0.00    +0.166 HD
ATOM     12  C   UNL     1       7.600  -5.224  25.493  0.00  0.00    +0.037 A 
ENDBRANCH   6  12
ENDBRANCH   5   6
ENDBRANCH   1   5
BRANCH   3  13
ATOM     13  C   UNL     1       9.543  -0.825  24.938  0.00  0.00    +0.096 C 
BRANCH  13  14
ATOM     14  C   UNL     1      10.560   0.156  24.344  0.00  0.00    +0.020 C 
BRANCH  14  15
ATOM     15  C   UNL     1       9.918   1.360  23.645  0.00  0.00    +0.121 C 
BRANCH  15  16
ATOM     16  C   UNL     1       9.969   1.250  22.140  0.00  0.00    +0.305 C 
ATOM     17  O   UNL     1       9.710   0.237  21.509  0.00  0.00    -0.251 OA
BRANCH  16  18
ATOM     18  O   UNL     1      10.325   2.405  21.535  0.00  0.00    -0.481 OA
ATOM     19  H   UNL     1      11.285   2.496  21.380  0.00  0.00    +0.295 HD
ENDBRANCH  16  18
ENDBRANCH  15  16
ENDBRANCH  14  15
ENDBRANCH  13  14
ENDBRANCH   3  13
TORSDOF 8
ENDMDL
MODEL 7
REMARK VINA RESULT:      -5.1      4.023      5.817
REMARK  Name = 
REMARK  8 active torsions:
REMARK  status: ('A' for Active; 'I' for Inactive)
REMARK    1  A    between atoms: C_2  and  C_6
REMARK    2  A    between atoms: C_6  and  C_7
REMARK    3  A    between atoms: C_7  and  N_8
REMARK    4  A    between atoms: C_9  and  C_11
REMARK    5  A    between atoms: C_11  and  C_12
REMARK    6  A    between atoms: C_12  and  C_13
REMARK    7  A    between atoms: C_13  and  C_14
REMARK    8  A    between atoms: C_14  and  O_16
REMARK                            x       y       z     vdW  Elec       q    Type
REMARK                         _______ _______ _______ _____ _____    ______ ____
ROOT
ATOM      1  N   UNL     1       8.308  -2.285  22.476  0.00  0.00    -0.315 N 
ATOM      2  H   UNL     1       7.809  -1.570  21.959  0.00  0.00    +0.149 HD
ATOM      3  C   UNL     1       9.557  -2.018  22.982  0.00  0.00    +0.213 C 
ATOM      4  O   UNL     1      10.180  -2.815  23.679  0.00  0.00    -0.276 OA
ENDROOT
BRANCH   1   5
ATOM      5  C   UNL     1       7.660  -3.565  22.693  0.00  0.00    +0.110 C 
BRANCH   5   6
ATOM      6  C   UNL     1       6.620  -3.509  23.816  0.00  0.00    +0.073 C 
BRANCH   6  12
ATOM      7  C   UNL     1       6.499  -5.370  25.657  0.00  0.00    +0.133 A 
ATOM      8  N   UNL     1       7.296  -5.773  26.697  0.00  0.00    -0.244 NA
ATOM      9  C   UNL     1       8.324  -4.956  26.685  0.00  0.00    +0.196 A 
ATOM     10  N   UNL     1       8.227  -4.043  25.676  0.00  0.00    -0.348 N 
ATOM     11  H   UNL     1       8.898  -3.315  25.467  0.00  0.00    +0.166 HD
ATOM     12  C   UNL     1       7.059  -4.298  24.998  0.00  0.00    +0.037 A 
ENDBRANCH   6  12
ENDBRANCH   5   6
ENDBRANCH   1   5
BRANCH   3  13
ATOM     13  C   UNL     1      10.100  -0.656  22.597  0.00  0.00    +0.096 C 
BRANCH  13  14
ATOM     14  C   UNL     1       9.356  -0.055  21.399  0.00  0.00    +0.020 C 
BRANCH  14  15
ATOM     15  C   UNL     1       8.732   1.315  21.686  0.00  0.00    +0.121 C 
BRANCH  15  16
ATOM     16  C   UNL     1       7.715   1.265  22.802  0.00  0.00    +0.305 C 
ATOM     17  O   UNL     1       7.756   1.955  23.809  0.00  0.00    -0.251 OA
BRANCH  16  18
ATOM     18  O   UNL     1       6.723   0.376  22.578  0.00  0.00    -0.481 OA
ATOM     19  H   UNL     1       6.724  -0.387  23.187  0.00  0.00    +0.295 HD
ENDBRANCH  16  18
ENDBRANCH  15  16
ENDBRANCH  14  15
ENDBRANCH  13  14
ENDBRANCH   3  13
TORSDOF 8
ENDMDL
MODEL 8
REMARK VINA RESULT:      -5.0      3.408      5.673
REMARK  Name = 
REMARK  8 active torsions:
REMARK  status: ('A' for Active; 'I' for Inactive)
REMARK    1  A    between atoms: C_2  and  C_6
REMARK    2  A    between atoms: C_6  and  C_7
REMARK    3  A    between atoms: C_7  and  N_8
REMARK    4  A    between atoms: C_9  and  C_11
REMARK    5  A    between atoms: C_11  and  C_12
REMARK    6  A    between atoms: C_12  and  C_13
REMARK    7  A    between atoms: C_13  and  C_14
REMARK    8  A    between atoms: C_14  and  O_16
REMARK                            x       y       z     vdW  Elec       q    Type
REMARK                         _______ _______ _______ _____ _____    ______ ____
ROOT
ATOM      1  N   UNL     1       9.384  -2.908  23.760  0.00  0.00    -0.315 N 
ATOM      2  H   UNL     1      10.352  -3.199  23.689  0.00  0.00    +0.149 HD
ATOM      3  C   UNL     1       8.931  -1.849  23.010  0.00  0.00    +0.213 C 
ATOM      4  O   UNL     1       7.755  -1.496  22.995  0.00  0.00    -0.276 OA
ENDROOT
BRANCH   1   5
ATOM      5  C   UNL     1       8.497  -3.651  24.636  0.00  0.00    +0.110 C 
BRANCH   5   6
ATOM      6  C   UNL     1       8.277  -5.089  24.160  0.00  0.00    +0.073 C 
BRANCH   6  12
ATOM      7  C   UNL     1       5.984  -4.562  23.006  0.00  0.00    +0.133 A 
ATOM      8  N   UNL     1       5.372  -4.918  21.833  0.00  0.00    -0.244 NA
ATOM      9  C   UNL     1       6.214  -5.728  21.233  0.00  0.00    +0.196 A 
ATOM     10  N   UNL     1       7.349  -5.907  21.970  0.00  0.00    -0.348 N 
ATOM     11  H   UNL     1       8.139  -6.484  21.713  0.00  0.00    +0.166 HD
ATOM     12  C   UNL     1       7.222  -5.157  23.114  0.00  0.00    +0.037 A 
ENDBRANCH   6  12
ENDBRANCH   5   6
ENDBRANCH   1   5
BRANCH   3  13
ATOM     13  C   UNL     1      10.013  -1.154  22.208  0.00  0.00    +0.096 C 
BRANCH  13  14
ATOM     14  C   UNL     1       9.472   0.047  21.425  0.00  0.00    +0.020 C 
BRANCH  14  15
ATOM     15  C   UNL     1       9.934   1.400  21.975  0.00  0.00    +0.121 C 
BRANCH  15  16
ATOM     16  C   UNL     1       9.478   1.634  23.396  0.00  0.00    +0.305 C 
ATOM     17  O   UNL     1      10.223   1.876  24.333  0.00  0.00    -0.251 OA
BRANCH  16  18
ATOM     18  O   UNL     1       8.136   1.560  23.543  0.00  0.00    -0.481 OA
ATOM     19  H   UNL     1       7.809   1.889  24.402  0.00  0.00    +0.295 HD
ENDBRANCH  16  18
ENDBRANCH  15  16
ENDBRANCH  14  15
ENDBRANCH  13  14
ENDBRANCH   3  13
TORSDOF 8
ENDMDL
MODEL 9
REMARK VINA RESULT:      -5.0      4.825      7.594
REMARK  Name = 
REMARK  8 active torsions:
REMARK  status: ('A' for Active; 'I' for Inactive)
REMARK    1  A    between atoms: C_2  and  C_6
REMARK    2  A    between atoms: C_6  and  C_7
REMARK    3  A    between atoms: C_7  and  N_8
REMARK    4  A    between atoms: C_9  and  C_11
REMARK    5  A    between atoms: C_11  and  C_12
REMARK    6  A    between atoms: C_12  and  C_13
REMARK    7  A    between atoms: C_13  and  C_14
REMARK    8  A    between atoms: C_14  and  O_16
REMARK                            x       y       z     vdW  Elec       q    Type
REMARK                         _______ _______ _______ _____ _____    ______ ____
ROOT
ATOM      1  N   UNL     1       8.005  -3.045  22.859  0.00  0.00    -0.315 N 
ATOM      2  H   UNL     1       8.591  -3.172  23.676  0.00  0.00    +0.149 HD
ATOM      3  C   UNL     1       7.086  -4.009  22.518  0.00  0.00    +0.213 C 
ATOM      4  O   UNL     1       6.298  -3.881  21.585  0.00  0.00    -0.276 OA
ENDROOT
BRANCH   1   5
ATOM      5  C   UNL     1       8.136  -1.820  22.093  0.00  0.00    +0.110 C 
BRANCH   5   6
ATOM      6  C   UNL     1       9.595  -1.384  21.933  0.00  0.00    +0.073 C 
BRANCH   6  12
ATOM      7  C   UNL     1      10.177   0.962  22.944  0.00  0.00    +0.133 A 
ATOM      8  N   UNL     1      10.514   1.439  24.184  0.00  0.00    -0.244 NA
ATOM      9  C   UNL     1      10.537   0.386  24.968  0.00  0.00    +0.196 A 
ATOM     10  N   UNL     1      10.225  -0.754  24.285  0.00  0.00    -0.348 N 
ATOM     11  H   UNL     1      10.177  -1.686  24.676  0.00  0.00    +0.166 HD
ATOM     12  C   UNL     1       9.983  -0.401  22.980  0.00  0.00    +0.037 A 
ENDBRANCH   6  12
ENDBRANCH   5   6
ENDBRANCH   1   5
BRANCH   3  13
ATOM     13  C   UNL     1       7.140  -5.247  23.392  0.00  0.00    +0.096 C 
BRANCH  13  14
ATOM     14  C   UNL     1       6.832  -4.933  24.860  0.00  0.00    +0.020 C 
BRANCH  14  15
ATOM     15  C   UNL     1       7.945  -5.353  25.826  0.00  0.00    +0.121 C 
BRANCH  15  16
ATOM     16  C   UNL     1       9.287  -4.770  25.452  0.00  0.00    +0.305 C 
ATOM     17  O   UNL     1       9.495  -3.584  25.246  0.00  0.00    -0.251 OA
BRANCH  16  18
ATOM     18  O   UNL     1      10.267  -5.698  25.373  0.00  0.00    -0.481 OA
ATOM     19  H   UNL     1      10.544  -5.910  24.461  0.00  0.00    +0.295 HD
ENDBRANCH  16  18
ENDBRANCH  15  16
ENDBRANCH  14  15
ENDBRANCH  13  14
ENDBRANCH   3  13
TORSDOF 8
ENDMDL
