MODEL 1
REMARK VINA RESULT:      -6.8      0.000      0.000
REMARK  Name = 
REMARK  8 active torsions:
REMARK  status: ('A' for Active; 'I' for Inactive)
REMARK    1  A    between atoms: C_1  and  C_2
REMARK    2  A    between atoms: C_2  and  C_3
REMARK    3  A    between atoms: C_2  and  N_4
REMARK    4  A    between atoms: N_13  and  C1*_14
REMARK    5  A    between atoms: C2*_16  and  O2*_23
REMARK    6  A    between atoms: C3*_17  and  O3*_22
REMARK    7  A    between atoms: C4*_18  and  C5*_20
REMARK    8  A    between atoms: C5*_20  and  O5*_21
REMARK                            x       y       z     vdW  Elec       q    Type
REMARK                         _______ _______ _______ _____ _____    ______ ____
ROOT
ATOM      1  N   UNL     1       6.915  -4.740  25.949  0.00  0.00    -0.312 N 
ATOM      2  H   UNL     1       6.350  -5.378  25.398  0.00  0.00    +0.149 HD
ATOM      3  C   UNL     1       7.550  -3.693  25.370  0.00  0.00    +0.199 A 
ATOM      4  N   UNL     1       7.611  -3.489  23.996  0.00  0.00    -0.283 N 
ATOM      5  C   UNL     1       8.263  -2.280  23.792  0.00  0.00    +0.074 A 
ATOM      6  C   UNL     1       8.582  -1.840  25.073  0.00  0.00    +0.092 A 
ATOM      7  C   UNL     1       9.230  -0.613  25.267  0.00  0.00    +0.051 A 
ATOM      8  C   UNL     1       9.541   0.170  24.153  0.00  0.00    +0.061 A 
ATOM      9 CL   UNL     1      10.308   1.693  24.441  0.00  0.00    -0.082 Cl
ATOM     10  C   UNL     1       9.219  -0.272  22.867  0.00  0.00    +0.061 A 
ATOM     11 CL   UNL     1       9.574   0.663  21.454  0.00  0.00    -0.082 Cl
ATOM     12  C   UNL     1       8.575  -1.503  22.666  0.00  0.00    +0.049 A 
ATOM     13  N   UNL     1       8.157  -2.725  26.012  0.00  0.00    -0.214 NA
ENDROOT
BRANCH   4  14
ATOM     14  C1* UNL     1       6.914  -4.314  23.010  0.00  0.00    +0.254 C 
ATOM     15  O4* UNL     1       6.543  -5.591  23.578  0.00  0.00    -0.346 OA
ATOM     16  C4* UNL     1       5.140  -5.818  23.368  0.00  0.00    +0.177 C 
ATOM     17  C3* UNL     1       4.508  -4.450  23.112  0.00  0.00    +0.178 C 
ATOM     18  C2* UNL     1       5.634  -3.701  22.410  0.00  0.00    +0.195 C 
BRANCH  17  19
ATOM     19  O3* UNL     1       4.109  -3.802  24.318  0.00  0.00    -0.386 OA
ATOM     20  H3* UNL     1       3.745  -4.453  24.947  0.00  0.00    +0.210 HD
ENDBRANCH  17  19
BRANCH  18  21
ATOM     21  O2* UNL     1       5.598  -3.943  20.992  0.00  0.00    -0.385 OA
ATOM     22  H2* UNL     1       6.504  -3.918  20.630  0.00  0.00    +0.210 HD
ENDBRANCH  18  21
BRANCH  16  23
ATOM     23  C5* UNL     1       4.543  -6.601  24.537  0.00  0.00    +0.190 C 
BRANCH  23  24
ATOM     24  O5* UNL     1       3.877  -7.773  24.090  0.00  0.00    -0.392 OA
ATOM     25  H5* UNL     1       4.475  -8.523  24.266  0.00  0.00    +0.210 HD
ENDBRANCH  23  24
ENDBRANCH  16  23
ENDBRANCH   4  14
BRANCH   1  27
ATOM     26  C   UNL     1       5.004  -3.978  27.257  0.00  0.00    +0.027 C 
ATOM     27  C   UNL     1       6.415  -4.565  27.325  0.00  0.00    +0.067 C 
ATOM     28  C   UNL     1       6.396  -5.873  28.116  0.00  0.00    +0.027 C 
ENDBRANCH   1  27
TORSDOF 6
ENDMDL
MODEL 2
REMARK VINA RESULT:      -6.8      4.051      6.129
REMARK  Name = 
REMARK  8 active torsions:
REMARK  status: ('A' for Active; 'I' for Inactive)
REMARK    1  A    between atoms: C_1  and  C_2
REMARK    2  A    between atoms: C_2  and  C_3
REMARK    3  A    between atoms: C_2  and  N_4
REMARK    4  A    between atoms: N_13  and  C1*_14
REMARK    5  A    between atoms: C2*_16  and  O2*_23
REMARK    6  A    between atoms: C3*_17  and  O3*_22
REMARK    7  A    between atoms: C4*_18  and  C5*_20
REMARK    8  A    between atoms: C5*_20  and  O5*_21
REMARK                            x       y       z     vdW  Elec       q    Type
REMARK                         _______ _______ _______ _____ _____    ______ ____
ROOT
ATOM      1  N   UNL     1       6.163   0.734  24.709  0.00  0.00    -0.312 N 
ATOM      2  H   UNL     1       6.904   1.343  24.376  0.00  0.00    +0.149 HD
ATOM      3  C   UNL     1       6.079  -0.551  24.293  0.00  0.00    +0.199 A 
ATOM      4  N   UNL     1       6.875  -1.095  23.292  0.00  0.00    -0.283 N 
ATOM      5  C   UNL     1       6.560  -2.445  23.208  0.00  0.00    +0.074 A 
ATOM      6  C   UNL     1       5.560  -2.625  24.159  0.00  0.00    +0.092 A 
ATOM      7  C   UNL     1       5.008  -3.893  24.385  0.00  0.00    +0.051 A 
ATOM      8  C   UNL     1       5.487  -4.979  23.648  0.00  0.00    +0.061 A 
ATOM      9 CL   UNL     1       4.802  -6.531  23.985  0.00  0.00    -0.082 Cl
ATOM     10  C   UNL     1       6.492  -4.797  22.695  0.00  0.00    +0.061 A 
ATOM     11 CL   UNL     1       7.126  -6.110  21.762  0.00  0.00    -0.082 Cl
ATOM     12  C   UNL     1       7.044  -3.528  22.460  0.00  0.00    +0.049 A 
ATOM     13  N   UNL     1       5.271  -1.457  24.790  0.00  0.00    -0.214 NA
ENDROOT
BRANCH   4  14
ATOM     14  C1* UNL     1       7.971  -0.384  22.636  0.00  0.00    +0.254 C 
ATOM     15  O4* UNL     1       8.661   0.474  23.574  0.00  0.00    -0.346 OA
ATOM     16  C4* UNL     1      10.069   0.193  23.531  0.00  0.00    +0.177 C 
ATOM     17  C3* UNL     1      10.220  -1.204  22.931  0.00  0.00    +0.178 C 
ATOM     18  C2* UNL     1       9.040  -1.271  21.969  0.00  0.00    +0.195 C 
BRANCH  17  19
ATOM     19  O3* UNL     1      10.159  -2.230  23.920  0.00  0.00    -0.386 OA
ATOM     20  H3* UNL     1      10.947  -2.193  24.493  0.00  0.00    +0.210 HD
ENDBRANCH  17  19
BRANCH  18  21
ATOM     21  O2* UNL     1       9.397  -0.722  20.688  0.00  0.00    -0.385 OA
ATOM     22  H2* UNL     1       9.708   0.197  20.798  0.00  0.00    +0.210 HD
ENDBRANCH  18  21
BRANCH  16  23
ATOM     23  C5* UNL     1      10.695   0.377  24.913  0.00  0.00    +0.190 C 
BRANCH  23  24
ATOM     24  O5* UNL     1       9.796  -0.000  25.945  0.00  0.00    -0.392 OA
ATOM     25  H5* UNL     1       9.803   0.720  26.604  0.00  0.00    +0.210 HD
ENDBRANCH  23  24
ENDBRANCH  16  23
ENDBRANCH   4  14
BRANCH   1  27
ATOM     26  C   UNL     1       6.894   1.738  26.807  0.00  0.00    +0.027 C 
ATOM     27  C   UNL     1       5.738   1.041  26.087  0.00  0.00    +0.067 C 
ATOM     28  C   UNL     1       4.488   1.921  26.137  0.00  0.00    +0.027 C 
ENDBRANCH   1  27
TORSDOF 6
ENDMDL
MODEL 3
REMARK VINA RESULT:      -6.6      4.207      6.703
REMARK  Name = 
REMARK  8 active torsions:
REMARK  status: ('A' for Active; 'I' for Inactive)
REMARK    1  A    between atoms: C_1  and  C_2
REMARK    2  A    between atoms: C_2  and  C_3
REMARK    3  A    between atoms: C_2  and  N_4
REMARK    4  A    between atoms: N_13  and  C1*_14
REMARK    5  A    between atoms: C2*_16  and  O2*_23
REMARK    6  A    between atoms: C3*_17  and  O3*_22
REMARK    7  A    between atoms: C4*_18  and  C5*_20
REMARK    8  A    between atoms: C5*_20  and  O5*_21
REMARK                            x       y       z     vdW  Elec       q    Type
REMARK                         _______ _______ _______ _____ _____    ______ ____
ROOT
ATOM      1  N   UNL     1       6.536   0.859  23.138  0.00  0.00    -0.312 N 
ATOM      2  H   UNL     1       7.340   0.946  22.525  0.00  0.00    +0.149 HD
ATOM      3  C   UNL     1       6.396  -0.212  23.955  0.00  0.00    +0.199 A 
ATOM      4  N   UNL     1       7.228  -1.325  23.922  0.00  0.00    -0.283 N 
ATOM      5  C   UNL     1       6.829  -2.164  24.953  0.00  0.00    +0.074 A 
ATOM      6  C   UNL     1       5.749  -1.507  25.533  0.00  0.00    +0.092 A 
ATOM      7  C   UNL     1       5.095  -2.050  26.648  0.00  0.00    +0.051 A 
ATOM      8  C   UNL     1       5.555  -3.258  27.178  0.00  0.00    +0.061 A 
ATOM      9 CL   UNL     1       4.742  -3.874  28.574  0.00  0.00    -0.082 Cl
ATOM     10  C   UNL     1       6.641  -3.917  26.595  0.00  0.00    +0.061 A 
ATOM     11 CL   UNL     1       7.254  -5.411  27.216  0.00  0.00    -0.082 Cl
ATOM     12  C   UNL     1       7.295  -3.380  25.475  0.00  0.00    +0.049 A 
ATOM     13  N   UNL     1       5.492  -0.334  24.897  0.00  0.00    -0.214 NA
ENDROOT
BRANCH   4  14
ATOM     14  C1* UNL     1       8.418  -1.437  23.079  0.00  0.00    +0.254 C 
ATOM     15  O4* UNL     1       8.562  -0.272  22.235  0.00  0.00    -0.346 OA
ATOM     16  C4* UNL     1       9.880   0.275  22.396  0.00  0.00    +0.177 C 
ATOM     17  C3* UNL     1      10.411  -0.245  23.731  0.00  0.00    +0.178 C 
ATOM     18  C2* UNL     1       9.753  -1.616  23.827  0.00  0.00    +0.195 C 
BRANCH  17  19
ATOM     19  O3* UNL     1      10.050   0.596  24.824  0.00  0.00    -0.386 OA
ATOM     20  H3* UNL     1      10.765   0.616  25.487  0.00  0.00    +0.210 HD
ENDBRANCH  17  19
BRANCH  18  21
ATOM     21  O2* UNL     1      10.553  -2.611  23.163  0.00  0.00    -0.385 OA
ATOM     22  H2* UNL     1      10.055  -2.987  22.413  0.00  0.00    +0.210 HD
ENDBRANCH  18  21
BRANCH  16  23
ATOM     23  C5* UNL     1       9.850   1.797  22.257  0.00  0.00    +0.190 C 
BRANCH  23  24
ATOM     24  O5* UNL     1       8.834   2.217  21.358  0.00  0.00    -0.392 OA
ATOM     25  H5* UNL     1       9.126   3.066  20.977  0.00  0.00    +0.210 HD
ENDBRANCH  23  24
ENDBRANCH  16  23
ENDBRANCH   4  14
BRANCH   1  27
ATOM     26  C   UNL     1       7.117   2.827  24.455  0.00  0.00    +0.027 C 
ATOM     27  C   UNL     1       6.027   2.158  23.615  0.00  0.00    +0.067 C 
ATOM     28  C   UNL     1       5.611   3.084  22.471  0.00  0.00    +0.027 C 
ENDBRANCH   1  27
TORSDOF 6
ENDMDL
MODEL 4
REMARK VINA RESULT:      -6.4      3.171      4.531
REMARK  Name = 
REMARK  8 active torsions:
REMARK  status: ('A' for Active; 'I' for Inactive)
REMARK    1  A    between atoms: C_1  and  C_2
REMARK    2  A    between atoms: C_2  and  C_3
REMARK    3  A    between atoms: C_2  and  N_4
REMARK    4  A    between atoms: N_13  and  C1*_14
REMARK    5  A    between atoms: C2*_16  and  O2*_23
REMARK    6  A    between atoms: C3*_17  and  O3*_22
REMARK    7  A    between atoms: C4*_18  and  C5*_20
REMARK    8  A    between atoms: C5*_20  and  O5*_21
REMARK                            x       y       z     vdW  Elec       q    Type
REMARK                         _______ _______ _______ _____ _____    ______ ____
ROOT
ATOM      1  N   UNL     1       7.243  -0.765  25.302  0.00  0.00    -0.312 N 
ATOM      2  H   UNL     1       7.551  -1.675  24.973  0.00  0.00    +0.149 HD
ATOM      3  C   UNL     1       7.962   0.351  25.036  0.00  0.00    +0.199 A 
ATOM      4  N   UNL     1       9.219   0.339  24.444  0.00  0.00    -0.283 N 
ATOM      5  C   UNL     1       9.595   1.663  24.256  0.00  0.00    +0.074 A 
ATOM      6  C   UNL     1       8.537   2.399  24.781  0.00  0.00    +0.092 A 
ATOM      7  C   UNL     1       8.548   3.799  24.737  0.00  0.00    +0.051 A 
ATOM      8  C   UNL     1       9.635   4.448  24.146  0.00  0.00    +0.061 A 
ATOM      9 CL   UNL     1       9.591   6.175  24.082  0.00  0.00    -0.082 Cl
ATOM     10  C   UNL     1      10.697   3.707  23.618  0.00  0.00    +0.061 A 
ATOM     11 CL   UNL     1      12.062   4.461  22.867  0.00  0.00    -0.082 Cl
ATOM     12  C   UNL     1      10.693   2.304  23.664  0.00  0.00    +0.049 A 
ATOM     13  N   UNL     1       7.567   1.580  25.267  0.00  0.00    -0.214 NA
ENDROOT
BRANCH   4  14
ATOM     14  C1* UNL     1       9.878  -0.864  23.936  0.00  0.00    +0.254 C 
ATOM     15  O4* UNL     1       9.465  -2.030  24.685  0.00  0.00    -0.346 OA
ATOM     16  C4* UNL     1       9.002  -3.041  23.775  0.00  0.00    +0.177 C 
ATOM     17  C3* UNL     1       8.642  -2.328  22.473  0.00  0.00    +0.178 C 
ATOM     18  C2* UNL     1       9.642  -1.179  22.448  0.00  0.00    +0.195 C 
BRANCH  17  19
ATOM     19  O3* UNL     1       7.295  -1.861  22.463  0.00  0.00    -0.386 OA
ATOM     20  H3* UNL     1       6.768  -2.362  21.813  0.00  0.00    +0.210 HD
ENDBRANCH  17  19
BRANCH  18  21
ATOM     21  O2* UNL     1      10.878  -1.594  21.836  0.00  0.00    -0.385 OA
ATOM     22  H2* UNL     1      11.400  -0.810  21.583  0.00  0.00    +0.210 HD
ENDBRANCH  18  21
BRANCH  16  23
ATOM     23  C5* UNL     1       7.870  -3.853  24.406  0.00  0.00    +0.190 C 
BRANCH  23  24
ATOM     24  O5* UNL     1       7.130  -4.562  23.424  0.00  0.00    -0.392 OA
ATOM     25  H5* UNL     1       6.321  -4.889  23.860  0.00  0.00    +0.210 HD
ENDBRANCH  23  24
ENDBRANCH  16  23
ENDBRANCH   4  14
BRANCH   1  27
ATOM     26  C   UNL     1       5.156  -1.994  25.022  0.00  0.00    +0.027 C 
ATOM     27  C   UNL     1       5.776  -0.638  25.367  0.00  0.00    +0.067 C 
ATOM     28  C   UNL     1       5.284  -0.176  26.740  0.00  0.00    +0.027 C 
ENDBRANCH   1  27
TORSDOF 6
ENDMDL
MODEL 5
REMARK VINA RESULT:      -6.2      1.865      3.583
REMARK  Name = 
REMARK  8 active torsions:
REMARK  status: ('A' for Active; 'I' for Inactive)
REMARK    1  A    between atoms: C_1  and  C_2
REMARK    2  A    between atoms: C_2  and  C_3
REMARK    3  A    between atoms: C_2  and  N_4
REMARK    4  A    between atoms: N_13  and  C1*_14
REMARK    5  A    between atoms: C2*_16  and  O2*_23
REMARK    6  A    between atoms: C3*_17  and  O3*_22
REMARK    7  A    between atoms: C4*_18  and  C5*_20
REMARK    8  A    between atoms: C5*_20  and  O5*_21
REMARK                            x       y       z     vdW  Elec       q    Type
REMARK                         _______ _______ _______ _____ _____    ______ ____
ROOT
ATOM      1  N   UNL     1       5.279  -3.470  24.550  0.00  0.00    -0.312 N 
ATOM      2  H   UNL     1       5.353  -4.171  25.280  0.00  0.00    +0.149 HD
ATOM      3  C   UNL     1       6.255  -2.550  24.365  0.00  0.00    +0.199 A 
ATOM      4  N   UNL     1       7.338  -2.388  25.222  0.00  0.00    -0.283 N 
ATOM      5  C   UNL     1       8.160  -1.419  24.663  0.00  0.00    +0.074 A 
ATOM      6  C   UNL     1       7.497  -1.034  23.501  0.00  0.00    +0.092 A 
ATOM      7  C   UNL     1       8.055  -0.077  22.643  0.00  0.00    +0.051 A 
ATOM      8  C   UNL     1       9.296   0.477  22.965  0.00  0.00    +0.061 A 
ATOM      9 CL   UNL     1       9.963   1.627  21.860  0.00  0.00    -0.082 Cl
ATOM     10  C   UNL     1       9.962   0.088  24.131  0.00  0.00    +0.061 A 
ATOM     11 CL   UNL     1      11.504   0.737  24.571  0.00  0.00    -0.082 Cl
ATOM     12  C   UNL     1       9.405  -0.865  24.997  0.00  0.00    +0.049 A 
ATOM     13  N   UNL     1       6.333  -1.720  23.354  0.00  0.00    -0.214 NA
ENDROOT
BRANCH   4  14
ATOM     14  C1* UNL     1       7.617  -3.253  26.367  0.00  0.00    +0.254 C 
ATOM     15  O4* UNL     1       6.388  -3.713  26.976  0.00  0.00    -0.346 OA
ATOM     16  C4* UNL     1       6.416  -5.145  27.086  0.00  0.00    +0.177 C 
ATOM     17  C3* UNL     1       7.452  -5.642  26.078  0.00  0.00    +0.178 C 
ATOM     18  C2* UNL     1       8.465  -4.504  26.070  0.00  0.00    +0.195 C 
BRANCH  17  19
ATOM     19  O3* UNL     1       6.890  -5.863  24.786  0.00  0.00    -0.386 OA
ATOM     20  H3* UNL     1       7.424  -6.512  24.292  0.00  0.00    +0.210 HD
ENDBRANCH  17  19
BRANCH  18  21
ATOM     21  O2* UNL     1       9.443  -4.688  27.110  0.00  0.00    -0.385 OA
ATOM     22  H2* UNL     1      10.250  -5.089  26.736  0.00  0.00    +0.210 HD
ENDBRANCH  18  21
BRANCH  16  23
ATOM     23  C5* UNL     1       5.012  -5.723  26.913  0.00  0.00    +0.190 C 
BRANCH  23  24
ATOM     24  O5* UNL     1       5.035  -7.142  26.875  0.00  0.00    -0.392 OA
ATOM     25  H5* UNL     1       4.829  -7.453  27.777  0.00  0.00    +0.210 HD
ENDBRANCH  23  24
ENDBRANCH  16  23
ENDBRANCH   4  14
BRANCH   1  27
ATOM     26  C   UNL     1       5.549  -4.631  22.422  0.00  0.00    +0.027 C 
ATOM     27  C   UNL     1       4.551  -3.948  23.360  0.00  0.00    +0.067 C 
ATOM     28  C   UNL     1       3.420  -4.917  23.710  0.00  0.00    +0.027 C 
ENDBRANCH   1  27
TORSDOF 6
ENDMDL
MODEL 6
REMARK VINA RESULT:      -6.1      2.290      3.006
REMARK  Name = 
REMARK  8 active torsions:
REMARK  status: ('A' for Active; 'I' for Inactive)
REMARK    1  A    between atoms: C_1  and  C_2
REMARK    2  A    between atoms: C_2  and  C_3
REMARK    3  A    between atoms: C_2  and  N_4
REMARK    4  A    between atoms: N_13  and  C1*_14
REMARK    5  A    between atoms: C2*_16  and  O2*_23
REMARK    6  A    between atoms: C3*_17  and  O3*_22
REMARK    7  A    between atoms: C4*_18  and  C5*_20
REMARK    8  A    between atoms: C5*_20  and  O5*_21
REMARK                            x       y       z     vdW  Elec       q    Type
REMARK                         _______ _______ _______ _____ _____    ______ ____
ROOT
ATOM      1  N   UNL     1       4.750  -2.635  26.347  0.00  0.00    -0.312 N 
ATOM      2  H   UNL     1       4.970  -3.623  26.419  0.00  0.00    +0.149 HD
ATOM      3  C   UNL     1       5.490  -1.811  25.569  0.00  0.00    +0.199 A 
ATOM      4  N   UNL     1       6.668  -2.192  24.939  0.00  0.00    -0.283 N 
ATOM      5  C   UNL     1       7.087  -1.115  24.170  0.00  0.00    +0.074 A 
ATOM      6  C   UNL     1       6.136  -0.129  24.411  0.00  0.00    +0.092 A 
ATOM      7  C   UNL     1       6.214   1.114  23.768  0.00  0.00    +0.051 A 
ATOM      8  C   UNL     1       7.258   1.344  22.868  0.00  0.00    +0.061 A 
ATOM      9 CL   UNL     1       7.296   2.877  22.070  0.00  0.00    -0.082 Cl
ATOM     10  C   UNL     1       8.212   0.352  22.626  0.00  0.00    +0.061 A 
ATOM     11 CL   UNL     1       9.520   0.582  21.515  0.00  0.00    -0.082 Cl
ATOM     12  C   UNL     1       8.142  -0.893  23.272  0.00  0.00    +0.049 A 
ATOM     13  N   UNL     1       5.187  -0.568  25.280  0.00  0.00    -0.214 NA
ENDROOT
BRANCH   4  14
ATOM     14  C1* UNL     1       7.202  -3.554  24.948  0.00  0.00    +0.254 C 
ATOM     15  O4* UNL     1       6.137  -4.524  24.816  0.00  0.00    -0.346 OA
ATOM     16  C4* UNL     1       6.439  -5.420  23.735  0.00  0.00    +0.177 C 
ATOM     17  C3* UNL     1       7.457  -4.708  22.846  0.00  0.00    +0.178 C 
ATOM     18  C2* UNL     1       8.238  -3.874  23.854  0.00  0.00    +0.195 C 
BRANCH  17  19
ATOM     19  O3* UNL     1       6.836  -3.897  21.851  0.00  0.00    -0.386 OA
ATOM     20  H3* UNL     1       5.999  -4.303  21.558  0.00  0.00    +0.210 HD
ENDBRANCH  17  19
BRANCH  18  21
ATOM     21  O2* UNL     1       9.320  -4.638  24.417  0.00  0.00    -0.385 OA
ATOM     22  H2* UNL     1       9.985  -4.824  23.728  0.00  0.00    +0.210 HD
ENDBRANCH  18  21
BRANCH  16  23
ATOM     23  C5* UNL     1       5.157  -5.862  23.030  0.00  0.00    +0.190 C 
BRANCH  23  24
ATOM     24  O5* UNL     1       5.421  -6.330  21.716  0.00  0.00    -0.392 OA
ATOM     25  H5* UNL     1       5.525  -5.542  21.151  0.00  0.00    +0.210 HD
ENDBRANCH  23  24
ENDBRANCH  16  23
ENDBRANCH   4  14
BRANCH   1  27
ATOM     26  C   UNL     1       2.540  -3.367  25.620  0.00  0.00    +0.027 C 
ATOM     27  C   UNL     1       3.308  -2.353  26.471  0.00  0.00    +0.067 C 
ATOM     28  C   UNL     1       2.817  -2.413  27.919  0.00  0.00    +0.027 C 
ENDBRANCH   1  27
TORSDOF 6
ENDMDL
MODEL 7
REMARK VINA RESULT:      -6.1      3.971      6.533
REMARK  Name = 
REMARK  8 active torsions:
REMARK  status: ('A' for Active; 'I' for Inactive)
REMARK    1  A    between atoms: C_1  and  C_2
REMARK    2  A    between atoms: C_2  and  C_3
REMARK    3  A    between atoms: C_2  and  N_4
REMARK    4  A    between atoms: N_13  and  C1*_14
REMARK    5  A    between atoms: C2*_16  and  O2*_23
REMARK    6  A    between atoms: C3*_17  and  O3*_22
REMARK    7  A    between atoms: C4*_18  and  C5*_20
REMARK    8  A    between atoms: C5*_20  and  O5*_21
REMARK                            x       y       z     vdW  Elec       q    Type
REMARK                         _______ _______ _______ _____ _____    ______ ____
ROOT
ATOM      1  N   UNL     1       6.964  -4.806  23.122  0.00  0.00    -0.312 N 
ATOM      2  H   UNL     1       7.664  -4.084  22.981  0.00  0.00    +0.149 HD
ATOM      3  C   UNL     1       6.575  -5.166  24.367  0.00  0.00    +0.199 A 
ATOM      4  N   UNL     1       7.182  -4.709  25.531  0.00  0.00    -0.283 N 
ATOM      5  C   UNL     1       6.459  -5.222  26.599  0.00  0.00    +0.074 A 
ATOM      6  C   UNL     1       5.464  -5.991  26.002  0.00  0.00    +0.092 A 
ATOM      7  C   UNL     1       4.504  -6.650  26.783  0.00  0.00    +0.051 A 
ATOM      8  C   UNL     1       4.554  -6.513  28.172  0.00  0.00    +0.061 A 
ATOM      9 CL   UNL     1       3.330  -7.314  29.094  0.00  0.00    -0.082 Cl
ATOM     10  C   UNL     1       5.554  -5.740  28.770  0.00  0.00    +0.061 A 
ATOM     11 CL   UNL     1       5.656  -5.532  30.485  0.00  0.00    -0.082 Cl
ATOM     12  C   UNL     1       6.521  -5.083  27.993  0.00  0.00    +0.049 A 
ATOM     13  N   UNL     1       5.568  -5.957  24.648  0.00  0.00    -0.214 NA
ENDROOT
BRANCH   4  14
ATOM     14  C1* UNL     1       8.245  -3.704  25.564  0.00  0.00    +0.254 C 
ATOM     15  O4* UNL     1       8.930  -3.639  24.292  0.00  0.00    -0.346 OA
ATOM     16  C4* UNL     1       8.950  -2.280  23.829  0.00  0.00    +0.177 C 
ATOM     17  C3* UNL     1       7.828  -1.549  24.565  0.00  0.00    +0.178 C 
ATOM     18  C2* UNL     1       7.800  -2.270  25.907  0.00  0.00    +0.195 C 
BRANCH  17  19
ATOM     19  O3* UNL     1       6.579  -1.645  23.883  0.00  0.00    -0.386 OA
ATOM     20  H3* UNL     1       6.016  -2.322  24.302  0.00  0.00    +0.210 HD
ENDBRANCH  17  19
BRANCH  18  21
ATOM     21  O2* UNL     1       8.737  -1.676  26.823  0.00  0.00    -0.385 OA
ATOM     22  H2* UNL     1       8.296  -1.495  27.674  0.00  0.00    +0.210 HD
ENDBRANCH  18  21
BRANCH  16  23
ATOM     23  C5* UNL     1       8.867  -2.231  22.303  0.00  0.00    +0.190 C 
BRANCH  23  24
ATOM     24  O5* UNL     1      10.025  -1.633  21.739  0.00  0.00    -0.392 OA
ATOM     25  H5* UNL     1      10.550  -2.353  21.342  0.00  0.00    +0.210 HD
ENDBRANCH  23  24
ENDBRANCH  16  23
ENDBRANCH   4  14
BRANCH   1  27
ATOM     26  C   UNL     1       5.782  -3.441  21.483  0.00  0.00    +0.027 C 
ATOM     27  C   UNL     1       5.957  -4.853  22.046  0.00  0.00    +0.067 C 
ATOM     28  C   UNL     1       6.340  -5.817  20.921  0.00  0.00    +0.027 C 
ENDBRANCH   1  27
TORSDOF 6
ENDMDL
MODEL 8
REMARK VINA RESULT:      -6.1      2.225      3.797
REMARK  Name = 
REMARK  8 active torsions:
REMARK  status: ('A' for Active; 'I' for Inactive)
REMARK    1  A    between atoms: C_1  and  C_2
REMARK    2  A    between atoms: C_2  and  C_3
REMARK    3  A    between atoms: C_2  and  N_4
REMARK    4  A    between atoms: N_13  and  C1*_14
REMARK    5  A    between atoms: C2*_16  and  O2*_23
REMARK    6  A    between atoms: C3*_17  and  O3*_22
REMARK    7  A    between atoms: C4*_18  and  C5*_20
REMARK    8  A    between atoms: C5*_20  and  O5*_21
REMARK                            x       y       z     vdW  Elec       q    Type
REMARK                         _______ _______ _______ _____ _____    ______ ____
ROOT
ATOM      1  N   UNL     1       6.263  -3.947  22.826  0.00  0.00    -0.312 N 
ATOM      2  H   UNL     1       5.673  -4.320  23.563  0.00  0.00    +0.149 HD
ATOM      3  C   UNL     1       6.800  -2.708  22.924  0.00  0.00    +0.199 A 
ATOM      4  N   UNL     1       6.483  -1.804  23.931  0.00  0.00    -0.283 N 
ATOM      5  C   UNL     1       7.289  -0.689  23.749  0.00  0.00    +0.074 A 
ATOM      6  C   UNL     1       8.033  -0.985  22.610  0.00  0.00    +0.092 A 
ATOM      7  C   UNL     1       8.997  -0.087  22.132  0.00  0.00    +0.051 A 
ATOM      8  C   UNL     1       9.209   1.108  22.824  0.00  0.00    +0.061 A 
ATOM      9 CL   UNL     1      10.432   2.170  22.219  0.00  0.00    -0.082 Cl
ATOM     10  C   UNL     1       8.463   1.403  23.968  0.00  0.00    +0.061 A 
ATOM     11 CL   UNL     1       8.693   2.864  24.867  0.00  0.00    -0.082 Cl
ATOM     12  C   UNL     1       7.492   0.510  24.449  0.00  0.00    +0.049 A 
ATOM     13  N   UNL     1       7.703  -2.207  22.116  0.00  0.00    -0.214 NA
ENDROOT
BRANCH   4  14
ATOM     14  C1* UNL     1       5.614  -2.110  25.067  0.00  0.00    +0.254 C 
ATOM     15  O4* UNL     1       5.002  -3.411  24.910  0.00  0.00    -0.346 OA
ATOM     16  C4* UNL     1       5.241  -4.196  26.089  0.00  0.00    +0.177 C 
ATOM     17  C3* UNL     1       6.445  -3.574  26.795  0.00  0.00    +0.178 C 
ATOM     18  C2* UNL     1       6.292  -2.097  26.450  0.00  0.00    +0.195 C 
BRANCH  17  19
ATOM     19  O3* UNL     1       7.683  -4.104  26.327  0.00  0.00    -0.386 OA
ATOM     20  H3* UNL     1       7.934  -4.889  26.849  0.00  0.00    +0.210 HD
ENDBRANCH  17  19
BRANCH  18  21
ATOM     21  O2* UNL     1       5.438  -1.439  27.404  0.00  0.00    -0.385 OA
ATOM     22  H2* UNL     1       4.959  -2.105  27.932  0.00  0.00    +0.210 HD
ENDBRANCH  18  21
BRANCH  16  23
ATOM     23  C5* UNL     1       5.392  -5.674  25.728  0.00  0.00    +0.190 C 
BRANCH  23  24
ATOM     24  O5* UNL     1       6.068  -6.392  26.749  0.00  0.00    -0.392 OA
ATOM     25  H5* UNL     1       5.987  -5.865  27.566  0.00  0.00    +0.210 HD
ENDBRANCH  23  24
ENDBRANCH  16  23
ENDBRANCH   4  14
BRANCH   1  27
ATOM     26  C   UNL     1       7.943  -5.682  23.160  0.00  0.00    +0.027 C 
ATOM     27  C   UNL     1       7.049  -4.984  22.133  0.00  0.00    +0.067 C 
ATOM     28  C   UNL     1       6.170  -6.015  21.423  0.00  0.00    +0.027 C 
ENDBRANCH   1  27
TORSDOF 6
ENDMDL
MODEL 9
REMARK VINA RESULT:      -6.0      2.490      3.501
REMARK  Name = 
REMARK  8 active torsions:
REMARK  status: ('A' for Active; 'I' for Inactive)
REMARK    1  A    between atoms: C_1  and  C_2
REMARK    2  A    between atoms: C_2  and  C_3
REMARK    3  A    between atoms: C_2  and  N_4
REMARK    4  A    between atoms: N_13  and  C1*_14
REMARK    5  A    between atoms: C2*_16  and  O2*_23
REMARK    6  A    between atoms: C3*_17  and  O3*_22
REMARK    7  A    between atoms: C4*_18  and  C5*_20
REMARK    8  A    between atoms: C5*_20  and  O5*_21
REMARK                            x       y       z     vdW  Elec       q    Type
REMARK                         _______ _______ _______ _____ _____    ______ ____
ROOT
ATOM      1  N   UNL     1       7.092  -2.365  26.116  0.00  0.00    -0.312 N 
ATOM      2  H   UNL     1       7.430  -3.134  25.545  0.00  0.00    +0.149 HD
ATOM      3  C   UNL     1       7.513  -1.097  25.895  0.00  0.00    +0.199 A 
ATOM      4  N   UNL     1       8.524  -0.761  25.003  0.00  0.00    -0.283 N 
ATOM      5  C   UNL     1       8.612   0.624  24.987  0.00  0.00    +0.074 A 
ATOM      6  C   UNL     1       7.653   1.040  25.906  0.00  0.00    +0.092 A 
ATOM      7  C   UNL     1       7.427   2.404  26.137  0.00  0.00    +0.051 A 
ATOM      8  C   UNL     1       8.173   3.343  25.420  0.00  0.00    +0.061 A 
ATOM      9 CL   UNL     1       7.838   5.014  25.711  0.00  0.00    -0.082 Cl
ATOM     10  C   UNL     1       9.135   2.924  24.497  0.00  0.00    +0.061 A 
ATOM     11 CL   UNL     1      10.079   4.045  23.577  0.00  0.00    -0.082 Cl
ATOM     12  C   UNL     1       9.369   1.559  24.266  0.00  0.00    +0.049 A 
ATOM     13  N   UNL     1       7.014  -0.024  26.459  0.00  0.00    -0.214 NA
ENDROOT
BRANCH   4  14
ATOM     14  C1* UNL     1       9.187  -1.715  24.114  0.00  0.00    +0.254 C 
ATOM     15  O4* UNL     1       8.813  -3.072  24.445  0.00  0.00    -0.346 OA
ATOM     16  C4* UNL     1       8.340  -3.739  23.265  0.00  0.00    +0.177 C 
ATOM     17  C3* UNL     1       7.932  -2.647  22.277  0.00  0.00    +0.178 C 
ATOM     18  C2* UNL     1       8.913  -1.529  22.609  0.00  0.00    +0.195 C 
BRANCH  17  19
ATOM     19  O3* UNL     1       6.578  -2.235  22.452  0.00  0.00    -0.386 OA
ATOM     20  H3* UNL     1       6.182  -2.692  23.218  0.00  0.00    +0.210 HD
ENDBRANCH  17  19
BRANCH  18  21
ATOM     21  O2* UNL     1      10.136  -1.691  21.869  0.00  0.00    -0.385 OA
ATOM     22  H2* UNL     1      10.556  -0.820  21.732  0.00  0.00    +0.210 HD
ENDBRANCH  18  21
BRANCH  16  23
ATOM     23  C5* UNL     1       7.240  -4.740  23.619  0.00  0.00    +0.190 C 
BRANCH  23  24
ATOM     24  O5* UNL     1       7.391  -5.232  24.942  0.00  0.00    -0.392 OA
ATOM     25  H5* UNL     1       7.057  -6.148  24.943  0.00  0.00    +0.210 HD
ENDBRANCH  23  24
ENDBRANCH  16  23
ENDBRANCH   4  14
BRANCH   1  27
ATOM     26  C   UNL     1       4.791  -2.663  25.369  0.00  0.00    +0.027 C 
ATOM     27  C   UNL     1       5.709  -2.558  26.588  0.00  0.00    +0.067 C 
ATOM     28  C   UNL     1       5.553  -3.801  27.465  0.00  0.00    +0.027 C 
ENDBRANCH   1  27
TORSDOF 6
ENDMDL
