MODEL 1
REMARK VINA RESULT:      -7.2      0.000      0.000
REMARK  Name = 
REMARK  15 active torsions:
REMARK  status: ('A' for Active; 'I' for Inactive)
REMARK    1  A    between atoms: C_1  and  C_2
REMARK    2  A    between atoms: C_2  and  C_3
REMARK    3  A    between atoms: C_3  and  C_4
REMARK    4  A    between atoms: C_4  and  C_35
REMARK    5  A    between atoms: C_6  and  O_34
REMARK    6  A    between atoms: C_7  and  C_11
REMARK    7  A    between atoms: C_11  and  C_12
REMARK    8  A    between atoms: C_11  and  C_14
REMARK    9  A    between atoms: C_12  and  C_13
REMARK   10  A    between atoms: C_16  and  N_20
REMARK   11  A    between atoms: N_20  and  S_21
REMARK   12  A    between atoms: S_21  and  C_24
REMARK   13  A    between atoms: C_27  and  C_30
REMARK   14  A    between atoms: C_35  and  C_36
REMARK   15  A    between atoms: C_36  and  C_37
REMARK                            x       y       z     vdW  Elec       q    Type
REMARK                         _______ _______ _______ _____ _____    ______ ____
ROOT
ATOM      1  C   UNL     1       6.377   0.430  25.541  0.00  0.00    +0.059 C 
ENDROOT
BRANCH   1   6
ATOM      2  C   UNL     1       9.366  -2.538  24.150  0.00  0.00    +0.121 C 
ATOM      3  O   UNL     1       9.435  -1.696  25.322  0.00  0.00    -0.454 OA
ATOM      4  C   UNL     1       8.321  -1.218  25.923  0.00  0.00    +0.339 C 
ATOM      5  O   UNL     1       8.256  -1.115  27.140  0.00  0.00    -0.245 OA
ATOM      6  C   UNL     1       7.247  -0.730  25.017  0.00  0.00    +0.081 C 
ATOM      7  C   UNL     1       7.073  -1.461  23.898  0.00  0.00    +0.108 C 
ATOM      8  C   UNL     1       7.947  -2.624  23.552  0.00  0.00    +0.122 C 
BRANCH   7   9
ATOM      9  O   UNL     1       6.021  -1.243  23.034  0.00  0.00    -0.510 OA
ATOM     10  H   UNL     1       5.977  -0.306  22.781  0.00  0.00    +0.292 HD
ENDBRANCH   7   9
BRANCH   2  11
ATOM     11  C   UNL     1       9.745  -3.972  24.619  0.00  0.00    +0.048 C 
BRANCH  11  13
ATOM     12  C   UNL     1       8.257  -4.972  26.380  0.00  0.00    +0.004 C 
ATOM     13  C   UNL     1       8.578  -4.927  24.890  0.00  0.00    +0.000 C 
ENDBRANCH  11  13
ENDBRANCH   2  11
BRANCH   2  14
ATOM     14  C   UNL     1      10.389  -1.997  23.118  0.00  0.00    +0.053 C 
BRANCH  14  15
ATOM     15  C   UNL     1       9.760  -1.199  21.963  0.00  0.00    +0.039 C 
BRANCH  15  16
ATOM     16  C   UNL     1       9.637   0.268  22.302  0.00  0.00    -0.047 A 
ATOM     17  C   UNL     1       8.717   1.079  21.624  0.00  0.00    +0.003 A 
ATOM     18  C   UNL     1       8.585   2.428  21.959  0.00  0.00    +0.000 A 
ATOM     19  C   UNL     1       9.368   2.978  22.972  0.00  0.00    +0.000 A 
ATOM     20  C   UNL     1      10.289   2.181  23.648  0.00  0.00    +0.000 A 
ATOM     21  C   UNL     1      10.423   0.832  23.316  0.00  0.00    +0.003 A 
ENDBRANCH  15  16
ENDBRANCH  14  15
ENDBRANCH   2  14
ENDBRANCH   1   6
BRANCH   1  22
ATOM     22  C   UNL     1       5.113  -0.013  26.291  0.00  0.00    -0.038 A 
ATOM     23  C   UNL     1       4.235   0.921  26.869  0.00  0.00    +0.004 A 
ATOM     24  C   UNL     1       3.088   0.499  27.546  0.00  0.00    +0.002 A 
ATOM     25  C   UNL     1       2.802  -0.860  27.661  0.00  0.00    +0.024 A 
ATOM     26  C   UNL     1       3.663  -1.796  27.095  0.00  0.00    +0.048 A 
ATOM     27  C   UNL     1       4.809  -1.381  26.413  0.00  0.00    +0.028 A 
BRANCH  26  28
ATOM     28  N   UNL     1       3.372  -3.181  27.182  0.00  0.00    -0.215 N 
ATOM     29  H   UNL     1       3.197  -3.601  28.092  0.00  0.00    +0.174 HD
BRANCH  28  30
ATOM     30  S   UNL     1       2.496  -3.907  25.931  0.00  0.00    +0.090 S 
ATOM     31  O   UNL     1       1.749  -2.879  25.231  0.00  0.00    -0.148 OA
ATOM     32  O   UNL     1       1.802  -5.046  26.509  0.00  0.00    -0.148 OA
BRANCH  30  33
ATOM     33  C   UNL     1       3.767  -4.527  24.832  0.00  0.00    +0.197 A 
ATOM     34  C   UNL     1       4.340  -5.768  25.062  0.00  0.00    +0.050 A 
ATOM     35  C   UNL     1       5.211  -6.257  24.093  0.00  0.00    +0.017 A 
ATOM     36  C   UNL     1       5.477  -5.500  22.944  0.00  0.00    +0.073 A 
ATOM     37  C   UNL     1       4.870  -4.255  22.830  0.00  0.00    +0.125 A 
ATOM     38  N   UNL     1       4.009  -3.751  23.740  0.00  0.00    -0.235 NA
BRANCH  36  39
ATOM     39  C   UNL     1       6.362  -6.023  21.853  0.00  0.00    +0.419 C 
ATOM     40  F   UNL     1       6.760  -7.304  22.087  0.00  0.00    -0.166 F 
ATOM     41  F   UNL     1       7.505  -5.297  21.716  0.00  0.00    -0.166 F 
ATOM     42  F   UNL     1       5.773  -6.032  20.627  0.00  0.00    -0.166 F 
ENDBRANCH  36  39
ENDBRANCH  30  33
ENDBRANCH  28  30
ENDBRANCH  26  28
ENDBRANCH   1  22
BRANCH   1  43
ATOM     43  C   UNL     1       5.979   1.475  24.452  0.00  0.00    +0.010 C 
ATOM     44  C   UNL     1       6.297   2.923  24.822  0.00  0.00    +0.005 C 
ENDBRANCH   1  43
TORSDOF 13
ENDMDL
MODEL 2
REMARK VINA RESULT:      -7.1      1.023      1.262
REMARK  Name = 
REMARK  15 active torsions:
REMARK  status: ('A' for Active; 'I' for Inactive)
REMARK    1  A    between atoms: C_1  and  C_2
REMARK    2  A    between atoms: C_2  and  C_3
REMARK    3  A    between atoms: C_3  and  C_4
REMARK    4  A    between atoms: C_4  and  C_35
REMARK    5  A    between atoms: C_6  and  O_34
REMARK    6  A    between atoms: C_7  and  C_11
REMARK    7  A    between atoms: C_11  and  C_12
REMARK    8  A    between atoms: C_11  and  C_14
REMARK    9  A    between atoms: C_12  and  C_13
REMARK   10  A    between atoms: C_16  and  N_20
REMARK   11  A    between atoms: N_20  and  S_21
REMARK   12  A    between atoms: S_21  and  C_24
REMARK   13  A    between atoms: C_27  and  C_30
REMARK   14  A    between atoms: C_35  and  C_36
REMARK   15  A    between atoms: C_36  and  C_37
REMARK                            x       y       z     vdW  Elec       q    Type
REMARK                         _______ _______ _______ _____ _____    ______ ____
ROOT
ATOM      1  C   UNL     1       6.904   1.052  26.441  0.00  0.00    +0.059 C 
ENDROOT
BRANCH   1   6
ATOM      2  C   UNL     1       9.476  -1.404  23.791  0.00  0.00    +0.121 C 
ATOM      3  O   UNL     1       9.810  -0.854  25.084  0.00  0.00    -0.454 OA
ATOM      4  C   UNL     1       8.859  -0.568  26.003  0.00  0.00    +0.339 C 
ATOM      5  O   UNL     1       9.061  -0.751  27.197  0.00  0.00    -0.245 OA
ATOM      6  C   UNL     1       7.623   0.077  25.488  0.00  0.00    +0.081 C 
ATOM      7  C   UNL     1       7.200  -0.382  24.293  0.00  0.00    +0.108 C 
ATOM      8  C   UNL     1       7.961  -1.401  23.507  0.00  0.00    +0.122 C 
BRANCH   7   9
ATOM      9  O   UNL     1       5.989  -0.008  23.750  0.00  0.00    -0.510 OA
ATOM     10  H   UNL     1       5.314  -0.684  23.924  0.00  0.00    +0.292 HD
ENDBRANCH   7   9
BRANCH   2  11
ATOM     11  C   UNL     1       9.925  -2.894  23.820  0.00  0.00    +0.048 C 
BRANCH  11  13
ATOM     12  C   UNL     1       9.759  -4.877  25.353  0.00  0.00    +0.004 C 
ATOM     13  C   UNL     1       8.975  -3.875  24.514  0.00  0.00    +0.000 C 
ENDBRANCH  11  13
ENDBRANCH   2  11
BRANCH   2  14
ATOM     14  C   UNL     1      10.259  -0.603  22.719  0.00  0.00    +0.053 C 
BRANCH  14  15
ATOM     15  C   UNL     1       9.371   0.205  21.758  0.00  0.00    +0.039 C 
BRANCH  15  16
ATOM     16  C   UNL     1       9.119   1.602  22.274  0.00  0.00    -0.047 A 
ATOM     17  C   UNL     1       7.985   2.317  21.867  0.00  0.00    +0.003 A 
ATOM     18  C   UNL     1       7.741   3.598  22.367  0.00  0.00    +0.000 A 
ATOM     19  C   UNL     1       8.625   4.175  23.277  0.00  0.00    +0.000 A 
ATOM     20  C   UNL     1       9.759   3.474  23.684  0.00  0.00    +0.000 A 
ATOM     21  C   UNL     1      10.005   2.193  23.186  0.00  0.00    +0.003 A 
ENDBRANCH  15  16
ENDBRANCH  14  15
ENDBRANCH   2  14
ENDBRANCH   1   6
BRANCH   1  22
ATOM     22  C   UNL     1       5.697   0.450  27.174  0.00  0.00    -0.038 A 
ATOM     23  C   UNL     1       4.812   1.253  27.916  0.00  0.00    +0.004 A 
ATOM     24  C   UNL     1       3.717   0.687  28.575  0.00  0.00    +0.002 A 
ATOM     25  C   UNL     1       3.490  -0.686  28.507  0.00  0.00    +0.024 A 
ATOM     26  C   UNL     1       4.359  -1.492  27.776  0.00  0.00    +0.048 A 
ATOM     27  C   UNL     1       5.453  -0.933  27.112  0.00  0.00    +0.028 A 
BRANCH  26  28
ATOM     28  N   UNL     1       4.127  -2.887  27.676  0.00  0.00    -0.215 N 
ATOM     29  H   UNL     1       4.063  -3.448  28.523  0.00  0.00    +0.174 HD
BRANCH  28  30
ATOM     30  S   UNL     1       3.150  -3.461  26.421  0.00  0.00    +0.090 S 
ATOM     31  O   UNL     1       2.430  -2.341  25.846  0.00  0.00    -0.148 OA
ATOM     32  O   UNL     1       2.421  -4.604  26.944  0.00  0.00    -0.148 OA
BRANCH  30  33
ATOM     33  C   UNL     1       4.327  -4.057  25.210  0.00  0.00    +0.197 A 
ATOM     34  C   UNL     1       4.951  -5.281  25.390  0.00  0.00    +0.050 A 
ATOM     35  C   UNL     1       5.739  -5.755  24.346  0.00  0.00    +0.017 A 
ATOM     36  C   UNL     1       5.875  -4.999  23.173  0.00  0.00    +0.073 A 
ATOM     37  C   UNL     1       5.229  -3.770  23.111  0.00  0.00    +0.125 A 
ATOM     38  N   UNL     1       4.445  -3.282  24.096  0.00  0.00    -0.235 NA
BRANCH  36  39
ATOM     39  C   UNL     1       6.668  -5.508  22.006  0.00  0.00    +0.419 C 
ATOM     40  F   UNL     1       5.872  -6.062  21.050  0.00  0.00    -0.166 F 
ATOM     41  F   UNL     1       7.554  -6.477  22.361  0.00  0.00    -0.166 F 
ATOM     42  F   UNL     1       7.394  -4.545  21.376  0.00  0.00    -0.166 F 
ENDBRANCH  36  39
ENDBRANCH  30  33
ENDBRANCH  28  30
ENDBRANCH  26  28
ENDBRANCH   1  22
BRANCH   1  43
ATOM     43  C   UNL     1       6.474   2.397  25.778  0.00  0.00    +0.010 C 
ATOM     44  C   UNL     1       7.080   3.643  26.425  0.00  0.00    +0.005 C 
ENDBRANCH   1  43
TORSDOF 13
ENDMDL
MODEL 3
REMARK VINA RESULT:      -6.8      2.079      4.351
REMARK  Name = 
REMARK  15 active torsions:
REMARK  status: ('A' for Active; 'I' for Inactive)
REMARK    1  A    between atoms: C_1  and  C_2
REMARK    2  A    between atoms: C_2  and  C_3
REMARK    3  A    between atoms: C_3  and  C_4
REMARK    4  A    between atoms: C_4  and  C_35
REMARK    5  A    between atoms: C_6  and  O_34
REMARK    6  A    between atoms: C_7  and  C_11
REMARK    7  A    between atoms: C_11  and  C_12
REMARK    8  A    between atoms: C_11  and  C_14
REMARK    9  A    between atoms: C_12  and  C_13
REMARK   10  A    between atoms: C_16  and  N_20
REMARK   11  A    between atoms: N_20  and  S_21
REMARK   12  A    between atoms: S_21  and  C_24
REMARK   13  A    between atoms: C_27  and  C_30
REMARK   14  A    between atoms: C_35  and  C_36
REMARK   15  A    between atoms: C_36  and  C_37
REMARK                            x       y       z     vdW  Elec       q    Type
REMARK                         _______ _______ _______ _____ _____    ______ ____
ROOT
ATOM      1  C   UNL     1       5.809  -0.520  24.857  0.00  0.00    +0.059 C 
ENDROOT
BRANCH   1   6
ATOM      2  C   UNL     1       7.389   3.621  24.681  0.00  0.00    +0.121 C 
ATOM      3  O   UNL     1       6.251   3.077  23.975  0.00  0.00    -0.454 OA
ATOM      4  C   UNL     1       5.563   2.012  24.445  0.00  0.00    +0.339 C 
ATOM      5  O   UNL     1       4.348   1.940  24.320  0.00  0.00    -0.245 OA
ATOM      6  C   UNL     1       6.379   0.904  25.010  0.00  0.00    +0.081 C 
ATOM      7  C   UNL     1       7.457   1.296  25.717  0.00  0.00    +0.108 C 
ATOM      8  C   UNL     1       7.851   2.733  25.854  0.00  0.00    +0.122 C 
BRANCH   7   9
ATOM      9  O   UNL     1       8.226   0.408  26.439  0.00  0.00    -0.510 OA
ATOM     10  H   UNL     1       8.074  -0.501  26.132  0.00  0.00    +0.292 HD
ENDBRANCH   7   9
BRANCH   2  11
ATOM     11  C   UNL     1       6.918   4.970  25.296  0.00  0.00    +0.048 C 
BRANCH  11  13
ATOM     12  C   UNL     1       8.791   6.419  26.133  0.00  0.00    +0.004 C 
ATOM     13  C   UNL     1       7.681   5.455  26.532  0.00  0.00    +0.000 C 
ENDBRANCH  11  13
ENDBRANCH   2  11
BRANCH   2  14
ATOM     14  C   UNL     1       8.525   3.840  23.649  0.00  0.00    +0.053 C 
BRANCH  14  15
ATOM     15  C   UNL     1       9.801   3.030  23.931  0.00  0.00    +0.039 C 
BRANCH  15  16
ATOM     16  C   UNL     1       9.796   1.710  23.197  0.00  0.00    -0.047 A 
ATOM     17  C   UNL     1       9.170   1.591  21.950  0.00  0.00    +0.003 A 
ATOM     18  C   UNL     1       9.191   0.377  21.260  0.00  0.00    +0.000 A 
ATOM     19  C   UNL     1       9.839  -0.728  21.810  0.00  0.00    +0.000 A 
ATOM     20  C   UNL     1      10.462  -0.622  23.052  0.00  0.00    +0.000 A 
ATOM     21  C   UNL     1      10.442   0.591  23.743  0.00  0.00    +0.003 A 
ENDBRANCH  15  16
ENDBRANCH  14  15
ENDBRANCH   2  14
ENDBRANCH   1   6
BRANCH   1  22
ATOM     22  C   UNL     1       5.246  -1.121  26.153  0.00  0.00    -0.038 A 
ATOM     23  C   UNL     1       4.862  -0.309  27.235  0.00  0.00    +0.004 A 
ATOM     24  C   UNL     1       4.350  -0.874  28.405  0.00  0.00    +0.002 A 
ATOM     25  C   UNL     1       4.216  -2.257  28.516  0.00  0.00    +0.024 A 
ATOM     26  C   UNL     1       4.593  -3.073  27.453  0.00  0.00    +0.048 A 
ATOM     27  C   UNL     1       5.102  -2.515  26.279  0.00  0.00    +0.028 A 
BRANCH  26  28
ATOM     28  N   UNL     1       4.439  -4.480  27.542  0.00  0.00    -0.215 N 
ATOM     29  H   UNL     1       3.584  -4.914  27.202  0.00  0.00    +0.174 HD
BRANCH  28  30
ATOM     30  S   UNL     1       5.805  -5.459  27.356  0.00  0.00    +0.090 S 
ATOM     31  O   UNL     1       5.524  -6.760  27.933  0.00  0.00    -0.148 OA
ATOM     32  O   UNL     1       6.943  -4.685  27.822  0.00  0.00    -0.148 OA
BRANCH  30  33
ATOM     33  C   UNL     1       5.948  -5.649  25.581  0.00  0.00    +0.197 A 
ATOM     34  C   UNL     1       4.844  -6.019  24.829  0.00  0.00    +0.050 A 
ATOM     35  C   UNL     1       4.981  -6.005  23.444  0.00  0.00    +0.017 A 
ATOM     36  C   UNL     1       6.201  -5.627  22.866  0.00  0.00    +0.073 A 
ATOM     37  C   UNL     1       7.252  -5.303  23.715  0.00  0.00    +0.125 A 
ATOM     38  N   UNL     1       7.155  -5.292  25.062  0.00  0.00    -0.235 NA
BRANCH  36  39
ATOM     39  C   UNL     1       6.364  -5.542  21.378  0.00  0.00    +0.419 C 
ATOM     40  F   UNL     1       5.589  -6.453  20.725  0.00  0.00    -0.166 F 
ATOM     41  F   UNL     1       7.641  -5.787  20.979  0.00  0.00    -0.166 F 
ATOM     42  F   UNL     1       6.033  -4.329  20.859  0.00  0.00    -0.166 F 
ENDBRANCH  36  39
ENDBRANCH  30  33
ENDBRANCH  28  30
ENDBRANCH  26  28
ENDBRANCH   1  22
BRANCH   1  43
ATOM     43  C   UNL     1       6.797  -1.541  24.213  0.00  0.00    +0.010 C 
ATOM     44  C   UNL     1       6.508  -1.861  22.747  0.00  0.00    +0.005 C 
ENDBRANCH   1  43
TORSDOF 13
ENDMDL
MODEL 4
REMARK VINA RESULT:      -6.6      1.763      4.284
REMARK  Name = 
REMARK  15 active torsions:
REMARK  status: ('A' for Active; 'I' for Inactive)
REMARK    1  A    between atoms: C_1  and  C_2
REMARK    2  A    between atoms: C_2  and  C_3
REMARK    3  A    between atoms: C_3  and  C_4
REMARK    4  A    between atoms: C_4  and  C_35
REMARK    5  A    between atoms: C_6  and  O_34
REMARK    6  A    between atoms: C_7  and  C_11
REMARK    7  A    between atoms: C_11  and  C_12
REMARK    8  A    between atoms: C_11  and  C_14
REMARK    9  A    between atoms: C_12  and  C_13
REMARK   10  A    between atoms: C_16  and  N_20
REMARK   11  A    between atoms: N_20  and  S_21
REMARK   12  A    between atoms: S_21  and  C_24
REMARK   13  A    between atoms: C_27  and  C_30
REMARK   14  A    between atoms: C_35  and  C_36
REMARK   15  A    between atoms: C_36  and  C_37
REMARK                            x       y       z     vdW  Elec       q    Type
REMARK                         _______ _______ _______ _____ _____    ______ ____
ROOT
ATOM      1  C   UNL     1       5.874  -0.145  24.687  0.00  0.00    +0.059 C 
ENDROOT
BRANCH   1   6
ATOM      2  C   UNL     1       8.248   3.559  24.125  0.00  0.00    +0.121 C 
ATOM      3  O   UNL     1       7.233   3.018  23.251  0.00  0.00    -0.454 OA
ATOM      4  C   UNL     1       6.252   2.210  23.713  0.00  0.00    +0.339 C 
ATOM      5  O   UNL     1       5.115   2.277  23.263  0.00  0.00    -0.245 OA
ATOM      6  C   UNL     1       6.664   1.179  24.702  0.00  0.00    +0.081 C 
ATOM      7  C   UNL     1       7.591   1.584  25.591  0.00  0.00    +0.108 C 
ATOM      8  C   UNL     1       8.220   2.941  25.537  0.00  0.00    +0.122 C 
BRANCH   7   9
ATOM      9  O   UNL     1       7.964   0.809  26.669  0.00  0.00    -0.510 OA
ATOM     10  H   UNL     1       8.270   1.368  27.401  0.00  0.00    +0.292 HD
ENDBRANCH   7   9
BRANCH   2  11
ATOM     11  C   UNL     1       7.922   5.072  24.290  0.00  0.00    +0.048 C 
BRANCH  11  13
ATOM     12  C   UNL     1       7.588   6.316  22.133  0.00  0.00    +0.004 C 
ATOM     13  C   UNL     1       8.560   6.018  23.269  0.00  0.00    +0.000 C 
ENDBRANCH  11  13
ENDBRANCH   2  11
BRANCH   2  14
ATOM     14  C   UNL     1       9.624   3.353  23.439  0.00  0.00    +0.053 C 
BRANCH  14  15
ATOM     15  C   UNL     1       9.565   2.538  22.137  0.00  0.00    +0.039 C 
BRANCH  15  16
ATOM     16  C   UNL     1       9.788   1.065  22.391  0.00  0.00    -0.047 A 
ATOM     17  C   UNL     1      10.354   0.629  23.596  0.00  0.00    +0.003 A 
ATOM     18  C   UNL     1      10.533  -0.735  23.839  0.00  0.00    +0.000 A 
ATOM     19  C   UNL     1      10.149  -1.673  22.882  0.00  0.00    +0.000 A 
ATOM     20  C   UNL     1       9.590  -1.248  21.678  0.00  0.00    +0.000 A 
ATOM     21  C   UNL     1       9.409   0.114  21.433  0.00  0.00    +0.003 A 
ENDBRANCH  15  16
ENDBRANCH  14  15
ENDBRANCH   2  14
ENDBRANCH   1   6
BRANCH   1  22
ATOM     22  C   UNL     1       5.158  -0.472  26.005  0.00  0.00    -0.038 A 
ATOM     23  C   UNL     1       4.447   0.510  26.719  0.00  0.00    +0.004 A 
ATOM     24  C   UNL     1       3.799   0.194  27.915  0.00  0.00    +0.002 A 
ATOM     25  C   UNL     1       3.853  -1.104  28.420  0.00  0.00    +0.024 A 
ATOM     26  C   UNL     1       4.553  -2.085  27.725  0.00  0.00    +0.048 A 
ATOM     27  C   UNL     1       5.200  -1.777  26.526  0.00  0.00    +0.028 A 
BRANCH  26  28
ATOM     28  N   UNL     1       4.595  -3.416  28.213  0.00  0.00    -0.215 N 
ATOM     29  H   UNL     1       4.800  -3.584  29.195  0.00  0.00    +0.174 HD
BRANCH  28  30
ATOM     30  S   UNL     1       3.545  -4.560  27.543  0.00  0.00    +0.090 S 
ATOM     31  O   UNL     1       2.277  -3.917  27.263  0.00  0.00    -0.148 OA
ATOM     32  O   UNL     1       3.595  -5.730  28.404  0.00  0.00    -0.148 OA
BRANCH  30  33
ATOM     33  C   UNL     1       4.321  -4.982  25.984  0.00  0.00    +0.197 A 
ATOM     34  C   UNL     1       3.636  -4.796  24.794  0.00  0.00    +0.050 A 
ATOM     35  C   UNL     1       4.343  -5.000  23.613  0.00  0.00    +0.017 A 
ATOM     36  C   UNL     1       5.692  -5.379  23.661  0.00  0.00    +0.073 A 
ATOM     37  C   UNL     1       6.272  -5.566  24.910  0.00  0.00    +0.125 A 
ATOM     38  N   UNL     1       5.625  -5.365  26.078  0.00  0.00    -0.235 NA
BRANCH  36  39
ATOM     39  C   UNL     1       6.499  -5.549  22.409  0.00  0.00    +0.419 C 
ATOM     40  F   UNL     1       5.930  -4.918  21.344  0.00  0.00    -0.166 F 
ATOM     41  F   UNL     1       6.626  -6.853  22.044  0.00  0.00    -0.166 F 
ATOM     42  F   UNL     1       7.765  -5.058  22.503  0.00  0.00    -0.166 F 
ENDBRANCH  36  39
ENDBRANCH  30  33
ENDBRANCH  28  30
ENDBRANCH  26  28
ENDBRANCH   1  22
BRANCH   1  43
ATOM     43  C   UNL     1       6.711  -1.386  24.245  0.00  0.00    +0.010 C 
ATOM     44  C   UNL     1       6.379  -1.906  22.847  0.00  0.00    +0.005 C 
ENDBRANCH   1  43
TORSDOF 13
ENDMDL
MODEL 5
REMARK VINA RESULT:      -6.6      2.841      5.438
REMARK  Name = 
REMARK  15 active torsions:
REMARK  status: ('A' for Active; 'I' for Inactive)
REMARK    1  A    between atoms: C_1  and  C_2
REMARK    2  A    between atoms: C_2  and  C_3
REMARK    3  A    between atoms: C_3  and  C_4
REMARK    4  A    between atoms: C_4  and  C_35
REMARK    5  A    between atoms: C_6  and  O_34
REMARK    6  A    between atoms: C_7  and  C_11
REMARK    7  A    between atoms: C_11  and  C_12
REMARK    8  A    between atoms: C_11  and  C_14
REMARK    9  A    between atoms: C_12  and  C_13
REMARK   10  A    between atoms: C_16  and  N_20
REMARK   11  A    between atoms: N_20  and  S_21
REMARK   12  A    between atoms: S_21  and  C_24
REMARK   13  A    between atoms: C_27  and  C_30
REMARK   14  A    between atoms: C_35  and  C_36
REMARK   15  A    between atoms: C_36  and  C_37
REMARK                            x       y       z     vdW  Elec       q    Type
REMARK                         _______ _______ _______ _____ _____    ______ ____
ROOT
ATOM      1  C   UNL     1       6.481  -2.329  27.024  0.00  0.00    +0.059 C 
ENDROOT
BRANCH   1   6
ATOM      2  C   UNL     1       5.999   1.699  25.229  0.00  0.00    +0.121 C 
ATOM      3  O   UNL     1       5.284   0.490  24.893  0.00  0.00    -0.454 OA
ATOM      4  C   UNL     1       5.131  -0.518  25.782  0.00  0.00    +0.339 C 
ATOM      5  O   UNL     1       4.094  -1.166  25.830  0.00  0.00    -0.245 OA
ATOM      6  C   UNL     1       6.326  -0.854  26.602  0.00  0.00    +0.081 C 
ATOM      7  C   UNL     1       7.057   0.206  26.999  0.00  0.00    +0.108 C 
ATOM      8  C   UNL     1       6.741   1.606  26.578  0.00  0.00    +0.122 C 
BRANCH   7   9
ATOM      9  O   UNL     1       8.100   0.086  27.894  0.00  0.00    -0.510 OA
ATOM     10  H   UNL     1       7.866  -0.528  28.609  0.00  0.00    +0.292 HD
ENDBRANCH   7   9
BRANCH   2  11
ATOM     11  C   UNL     1       4.926   2.815  25.382  0.00  0.00    +0.048 C 
BRANCH  11  13
ATOM     12  C   UNL     1       3.094   2.399  27.050  0.00  0.00    +0.004 C 
ATOM     13  C   UNL     1       4.430   3.089  26.805  0.00  0.00    +0.000 C 
ENDBRANCH  11  13
ENDBRANCH   2  11
BRANCH   2  14
ATOM     14  C   UNL     1       6.973   2.013  24.063  0.00  0.00    +0.053 C 
BRANCH  14  15
ATOM     15  C   UNL     1       6.967   0.968  22.936  0.00  0.00    +0.039 C 
BRANCH  15  16
ATOM     16  C   UNL     1       8.194   0.088  22.984  0.00  0.00    -0.047 A 
ATOM     17  C   UNL     1       8.870  -0.124  24.193  0.00  0.00    +0.003 A 
ATOM     18  C   UNL     1       9.988  -0.960  24.240  0.00  0.00    +0.000 A 
ATOM     19  C   UNL     1      10.439  -1.591  23.082  0.00  0.00    +0.000 A 
ATOM     20  C   UNL     1       9.777  -1.382  21.874  0.00  0.00    +0.000 A 
ATOM     21  C   UNL     1       8.659  -0.548  21.824  0.00  0.00    +0.003 A 
ENDBRANCH  15  16
ENDBRANCH  14  15
ENDBRANCH   2  14
ENDBRANCH   1   6
BRANCH   1  22
ATOM     22  C   UNL     1       7.312  -3.182  26.056  0.00  0.00    -0.038 A 
ATOM     23  C   UNL     1       8.411  -3.939  26.501  0.00  0.00    +0.004 A 
ATOM     24  C   UNL     1       9.155  -4.712  25.606  0.00  0.00    +0.002 A 
ATOM     25  C   UNL     1       8.818  -4.738  24.254  0.00  0.00    +0.024 A 
ATOM     26  C   UNL     1       7.733  -3.993  23.800  0.00  0.00    +0.048 A 
ATOM     27  C   UNL     1       6.983  -3.221  24.689  0.00  0.00    +0.028 A 
BRANCH  26  28
ATOM     28  N   UNL     1       7.362  -4.030  22.431  0.00  0.00    -0.215 N 
ATOM     29  H   UNL     1       7.999  -3.661  21.729  0.00  0.00    +0.174 HD
BRANCH  28  30
ATOM     30  S   UNL     1       6.434  -5.329  21.876  0.00  0.00    +0.090 S 
ATOM     31  O   UNL     1       7.236  -6.535  21.947  0.00  0.00    -0.148 OA
ATOM     32  O   UNL     1       5.848  -4.917  20.611  0.00  0.00    -0.148 OA
BRANCH  30  33
ATOM     33  C   UNL     1       5.119  -5.454  23.086  0.00  0.00    +0.197 A 
ATOM     34  C   UNL     1       5.213  -6.367  24.124  0.00  0.00    +0.050 A 
ATOM     35  C   UNL     1       4.234  -6.313  25.112  0.00  0.00    +0.017 A 
ATOM     36  C   UNL     1       3.208  -5.362  25.029  0.00  0.00    +0.073 A 
ATOM     37  C   UNL     1       3.193  -4.514  23.928  0.00  0.00    +0.125 A 
ATOM     38  N   UNL     1       4.131  -4.525  22.956  0.00  0.00    -0.235 NA
BRANCH  36  39
ATOM     39  C   UNL     1       2.172  -5.237  26.106  0.00  0.00    +0.419 C 
ATOM     40  F   UNL     1       2.503  -5.948  27.219  0.00  0.00    -0.166 F 
ATOM     41  F   UNL     1       0.955  -5.702  25.715  0.00  0.00    -0.166 F 
ATOM     42  F   UNL     1       1.970  -3.958  26.525  0.00  0.00    -0.166 F 
ENDBRANCH  36  39
ENDBRANCH  30  33
ENDBRANCH  28  30
ENDBRANCH  26  28
ENDBRANCH   1  22
BRANCH   1  43
ATOM     43  C   UNL     1       5.132  -3.058  27.311  0.00  0.00    +0.010 C 
ATOM     44  C   UNL     1       5.263  -4.312  28.174  0.00  0.00    +0.005 C 
ENDBRANCH   1  43
TORSDOF 13
ENDMDL
MODEL 6
REMARK VINA RESULT:      -6.5      3.057      6.324
REMARK  Name = 
REMARK  15 active torsions:
REMARK  status: ('A' for Active; 'I' for Inactive)
REMARK    1  A    between atoms: C_1  and  C_2
REMARK    2  A    between atoms: C_2  and  C_3
REMARK    3  A    between atoms: C_3  and  C_4
REMARK    4  A    between atoms: C_4  and  C_35
REMARK    5  A    between atoms: C_6  and  O_34
REMARK    6  A    between atoms: C_7  and  C_11
REMARK    7  A    between atoms: C_11  and  C_12
REMARK    8  A    between atoms: C_11  and  C_14
REMARK    9  A    between atoms: C_12  and  C_13
REMARK   10  A    between atoms: C_16  and  N_20
REMARK   11  A    between atoms: N_20  and  S_21
REMARK   12  A    between atoms: S_21  and  C_24
REMARK   13  A    between atoms: C_27  and  C_30
REMARK   14  A    between atoms: C_35  and  C_36
REMARK   15  A    between atoms: C_36  and  C_37
REMARK                            x       y       z     vdW  Elec       q    Type
REMARK                         _______ _______ _______ _____ _____    ______ ____
ROOT
ATOM      1  C   UNL     1       6.948   1.687  22.799  0.00  0.00    +0.059 C 
ENDROOT
BRANCH   1   6
ATOM      2  C   UNL     1       6.540   2.164  27.190  0.00  0.00    +0.121 C 
ATOM      3  O   UNL     1       7.757   2.010  26.426  0.00  0.00    -0.454 OA
ATOM      4  C   UNL     1       7.830   2.365  25.123  0.00  0.00    +0.339 C 
ATOM      5  O   UNL     1       8.846   2.870  24.662  0.00  0.00    -0.245 OA
ATOM      6  C   UNL     1       6.660   2.004  24.279  0.00  0.00    +0.081 C 
ATOM      7  C   UNL     1       5.463   2.138  24.883  0.00  0.00    +0.108 C 
ATOM      8  C   UNL     1       5.325   2.539  26.318  0.00  0.00    +0.122 C 
BRANCH   7   9
ATOM      9  O   UNL     1       4.274   2.001  24.197  0.00  0.00    -0.510 OA
ATOM     10  H   UNL     1       4.412   2.140  23.246  0.00  0.00    +0.292 HD
ENDBRANCH   7   9
BRANCH   2  11
ATOM     11  C   UNL     1       6.782   3.355  28.161  0.00  0.00    +0.048 C 
BRANCH  11  13
ATOM     12  C   UNL     1       7.439   5.557  27.145  0.00  0.00    +0.004 C 
ATOM     13  C   UNL     1       6.284   4.725  27.691  0.00  0.00    +0.000 C 
ENDBRANCH  11  13
ENDBRANCH   2  11
BRANCH   2  14
ATOM     14  C   UNL     1       6.300   0.845  27.968  0.00  0.00    +0.053 C 
BRANCH  14  15
ATOM     15  C   UNL     1       6.819  -0.414  27.255  0.00  0.00    +0.039 C 
BRANCH  15  16
ATOM     16  C   UNL     1       5.687  -1.311  26.811  0.00  0.00    -0.047 A 
ATOM     17  C   UNL     1       4.726  -1.751  27.730  0.00  0.00    +0.003 A 
ATOM     18  C   UNL     1       3.665  -2.557  27.311  0.00  0.00    +0.000 A 
ATOM     19  C   UNL     1       3.553  -2.927  25.973  0.00  0.00    +0.000 A 
ATOM     20  C   UNL     1       4.507  -2.498  25.051  0.00  0.00    +0.000 A 
ATOM     21  C   UNL     1       5.568  -1.693  25.467  0.00  0.00    +0.003 A 
ENDBRANCH  15  16
ENDBRANCH  14  15
ENDBRANCH   2  14
ENDBRANCH   1   6
BRANCH   1  22
ATOM     22  C   UNL     1       7.947   0.543  22.577  0.00  0.00    -0.038 A 
ATOM     23  C   UNL     1       9.161   0.747  21.897  0.00  0.00    +0.004 A 
ATOM     24  C   UNL     1      10.060  -0.306  21.708  0.00  0.00    +0.002 A 
ATOM     25  C   UNL     1       9.760  -1.579  22.189  0.00  0.00    +0.024 A 
ATOM     26  C   UNL     1       8.561  -1.796  22.863  0.00  0.00    +0.048 A 
ATOM     27  C   UNL     1       7.661  -0.747  23.060  0.00  0.00    +0.028 A 
BRANCH  26  28
ATOM     28  N   UNL     1       8.254  -3.080  23.381  0.00  0.00    -0.215 N 
ATOM     29  H   UNL     1       8.097  -3.855  22.740  0.00  0.00    +0.174 HD
BRANCH  28  30
ATOM     30  S   UNL     1       8.952  -3.554  24.846  0.00  0.00    +0.090 S 
ATOM     31  O   UNL     1       9.145  -2.376  25.669  0.00  0.00    -0.148 OA
ATOM     32  O   UNL     1      10.082  -4.406  24.516  0.00  0.00    -0.148 OA
BRANCH  30  33
ATOM     33  C   UNL     1       7.689  -4.572  25.604  0.00  0.00    +0.197 A 
ATOM     34  C   UNL     1       7.521  -4.562  26.980  0.00  0.00    +0.050 A 
ATOM     35  C   UNL     1       6.430  -5.256  27.495  0.00  0.00    +0.017 A 
ATOM     36  C   UNL     1       5.556  -5.928  26.628  0.00  0.00    +0.073 A 
ATOM     37  C   UNL     1       5.836  -5.896  25.267  0.00  0.00    +0.125 A 
ATOM     38  N   UNL     1       6.875  -5.224  24.728  0.00  0.00    -0.235 NA
BRANCH  36  39
ATOM     39  C   UNL     1       4.338  -6.634  27.144  0.00  0.00    +0.419 C 
ATOM     40  F   UNL     1       4.612  -7.392  28.242  0.00  0.00    -0.166 F 
ATOM     41  F   UNL     1       3.803  -7.487  26.228  0.00  0.00    -0.166 F 
ATOM     42  F   UNL     1       3.332  -5.795  27.509  0.00  0.00    -0.166 F 
ENDBRANCH  36  39
ENDBRANCH  30  33
ENDBRANCH  28  30
ENDBRANCH  26  28
ENDBRANCH   1  22
BRANCH   1  43
ATOM     43  C   UNL     1       7.396   2.920  21.954  0.00  0.00    +0.010 C 
ATOM     44  C   UNL     1       6.584   4.189  22.210  0.00  0.00    +0.005 C 
ENDBRANCH   1  43
TORSDOF 13
ENDMDL
MODEL 7
REMARK VINA RESULT:      -6.5      1.999      4.647
REMARK  Name = 
REMARK  15 active torsions:
REMARK  status: ('A' for Active; 'I' for Inactive)
REMARK    1  A    between atoms: C_1  and  C_2
REMARK    2  A    between atoms: C_2  and  C_3
REMARK    3  A    between atoms: C_3  and  C_4
REMARK    4  A    between atoms: C_4  and  C_35
REMARK    5  A    between atoms: C_6  and  O_34
REMARK    6  A    between atoms: C_7  and  C_11
REMARK    7  A    between atoms: C_11  and  C_12
REMARK    8  A    between atoms: C_11  and  C_14
REMARK    9  A    between atoms: C_12  and  C_13
REMARK   10  A    between atoms: C_16  and  N_20
REMARK   11  A    between atoms: N_20  and  S_21
REMARK   12  A    between atoms: S_21  and  C_24
REMARK   13  A    between atoms: C_27  and  C_30
REMARK   14  A    between atoms: C_35  and  C_36
REMARK   15  A    between atoms: C_36  and  C_37
REMARK                            x       y       z     vdW  Elec       q    Type
REMARK                         _______ _______ _______ _____ _____    ______ ____
ROOT
ATOM      1  C   UNL     1       6.572   1.606  26.481  0.00  0.00    +0.059 C 
ENDROOT
BRANCH   1   6
ATOM      2  C   UNL     1       8.381  -0.593  23.081  0.00  0.00    +0.121 C 
ATOM      3  O   UNL     1       7.216   0.260  23.062  0.00  0.00    -0.454 OA
ATOM      4  C   UNL     1       7.039   1.244  23.973  0.00  0.00    +0.339 C 
ATOM      5  O   UNL     1       6.530   2.312  23.658  0.00  0.00    -0.245 OA
ATOM      6  C   UNL     1       7.391   0.907  25.378  0.00  0.00    +0.081 C 
ATOM      7  C   UNL     1       8.485   0.134  25.518  0.00  0.00    +0.108 C 
ATOM      8  C   UNL     1       9.240  -0.413  24.348  0.00  0.00    +0.122 C 
BRANCH   7   9
ATOM      9  O   UNL     1       9.040  -0.137  26.751  0.00  0.00    -0.510 OA
ATOM     10  H   UNL     1       8.395  -0.583  27.324  0.00  0.00    +0.292 HD
ENDBRANCH   7   9
BRANCH   2  11
ATOM     11  C   UNL     1       9.262  -0.157  21.874  0.00  0.00    +0.048 C 
BRANCH  11  13
ATOM     12  C   UNL     1      10.209   2.149  22.189  0.00  0.00    +0.004 C 
ATOM     13  C   UNL     1       9.163   1.314  21.460  0.00  0.00    +0.000 C 
ENDBRANCH  11  13
ENDBRANCH   2  11
BRANCH   2  14
ATOM     14  C   UNL     1       7.898  -2.058  22.922  0.00  0.00    +0.053 C 
BRANCH  14  15
ATOM     15  C   UNL     1       6.390  -2.254  23.143  0.00  0.00    +0.039 C 
BRANCH  15  16
ATOM     16  C   UNL     1       5.978  -3.693  22.937  0.00  0.00    -0.047 A 
ATOM     17  C   UNL     1       6.878  -4.619  22.393  0.00  0.00    +0.003 A 
ATOM     18  C   UNL     1       6.504  -5.955  22.230  0.00  0.00    +0.000 A 
ATOM     19  C   UNL     1       5.231  -6.377  22.608  0.00  0.00    +0.000 A 
ATOM     20  C   UNL     1       4.327  -5.462  23.145  0.00  0.00    +0.000 A 
ATOM     21  C   UNL     1       4.698  -4.127  23.310  0.00  0.00    +0.003 A 
ENDBRANCH  15  16
ENDBRANCH  14  15
ENDBRANCH   2  14
ENDBRANCH   1   6
BRANCH   1  22
ATOM     22  C   UNL     1       5.204   0.965  26.760  0.00  0.00    -0.038 A 
ATOM     23  C   UNL     1       4.126   1.720  27.256  0.00  0.00    +0.004 A 
ATOM     24  C   UNL     1       2.888   1.120  27.501  0.00  0.00    +0.002 A 
ATOM     25  C   UNL     1       2.708  -0.241  27.259  0.00  0.00    +0.024 A 
ATOM     26  C   UNL     1       3.767  -0.999  26.768  0.00  0.00    +0.048 A 
ATOM     27  C   UNL     1       5.006  -0.406  26.518  0.00  0.00    +0.028 A 
BRANCH  26  28
ATOM     28  N   UNL     1       3.592  -2.379  26.493  0.00  0.00    -0.215 N 
ATOM     29  H   UNL     1       3.679  -2.716  25.537  0.00  0.00    +0.174 HD
BRANCH  28  30
ATOM     30  S   UNL     1       4.095  -3.508  27.648  0.00  0.00    +0.090 S 
ATOM     31  O   UNL     1       3.196  -4.644  27.608  0.00  0.00    -0.148 OA
ATOM     32  O   UNL     1       4.295  -2.779  28.889  0.00  0.00    -0.148 OA
BRANCH  30  33
ATOM     33  C   UNL     1       5.698  -4.036  27.048  0.00  0.00    +0.197 A 
ATOM     34  C   UNL     1       5.867  -5.319  26.553  0.00  0.00    +0.050 A 
ATOM     35  C   UNL     1       7.093  -5.621  25.966  0.00  0.00    +0.017 A 
ATOM     36  C   UNL     1       8.094  -4.642  25.896  0.00  0.00    +0.073 A 
ATOM     37  C   UNL     1       7.828  -3.396  26.451  0.00  0.00    +0.125 A 
ATOM     38  N   UNL     1       6.649  -3.061  27.016  0.00  0.00    -0.235 NA
BRANCH  36  39
ATOM     39  C   UNL     1       9.403  -4.915  25.217  0.00  0.00    +0.419 C 
ATOM     40  F   UNL     1       9.872  -3.823  24.552  0.00  0.00    -0.166 F 
ATOM     41  F   UNL     1       9.313  -5.906  24.289  0.00  0.00    -0.166 F 
ATOM     42  F   UNL     1      10.395  -5.288  26.071  0.00  0.00    -0.166 F 
ENDBRANCH  36  39
ENDBRANCH  30  33
ENDBRANCH  28  30
ENDBRANCH  26  28
ENDBRANCH   1  22
BRANCH   1  43
ATOM     43  C   UNL     1       6.377   3.138  26.261  0.00  0.00    +0.010 C 
ATOM     44  C   UNL     1       7.220   4.021  27.182  0.00  0.00    +0.005 C 
ENDBRANCH   1  43
TORSDOF 13
ENDMDL
MODEL 8
REMARK VINA RESULT:      -6.4      1.747      4.395
REMARK  Name = 
REMARK  15 active torsions:
REMARK  status: ('A' for Active; 'I' for Inactive)
REMARK    1  A    between atoms: C_1  and  C_2
REMARK    2  A    between atoms: C_2  and  C_3
REMARK    3  A    between atoms: C_3  and  C_4
REMARK    4  A    between atoms: C_4  and  C_35
REMARK    5  A    between atoms: C_6  and  O_34
REMARK    6  A    between atoms: C_7  and  C_11
REMARK    7  A    between atoms: C_11  and  C_12
REMARK    8  A    between atoms: C_11  and  C_14
REMARK    9  A    between atoms: C_12  and  C_13
REMARK   10  A    between atoms: C_16  and  N_20
REMARK   11  A    between atoms: N_20  and  S_21
REMARK   12  A    between atoms: S_21  and  C_24
REMARK   13  A    between atoms: C_27  and  C_30
REMARK   14  A    between atoms: C_35  and  C_36
REMARK   15  A    between atoms: C_36  and  C_37
REMARK                            x       y       z     vdW  Elec       q    Type
REMARK                         _______ _______ _______ _____ _____    ______ ____
ROOT
ATOM      1  C   UNL     1       6.163   1.194  27.164  0.00  0.00    +0.059 C 
ENDROOT
BRANCH   1   6
ATOM      2  C   UNL     1       8.147   3.132  23.702  0.00  0.00    +0.121 C 
ATOM      3  O   UNL     1       7.406   1.891  23.717  0.00  0.00    -0.454 OA
ATOM      4  C   UNL     1       6.453   1.642  24.643  0.00  0.00    +0.339 C 
ATOM      5  O   UNL     1       5.434   1.030  24.351  0.00  0.00    -0.245 OA
ATOM      6  C   UNL     1       6.771   2.052  26.037  0.00  0.00    +0.081 C 
ATOM      7  C   UNL     1       7.440   3.217  26.146  0.00  0.00    +0.108 C 
ATOM      8  C   UNL     1       7.902   3.996  24.955  0.00  0.00    +0.122 C 
BRANCH   7   9
ATOM      9  O   UNL     1       7.672   3.819  27.365  0.00  0.00    -0.510 OA
ATOM     10  H   UNL     1       6.849   3.880  27.877  0.00  0.00    +0.292 HD
ENDBRANCH   7   9
BRANCH   2  11
ATOM     11  C   UNL     1       7.618   3.943  22.485  0.00  0.00    +0.048 C 
BRANCH  11  13
ATOM     12  C   UNL     1       7.349   6.379  21.933  0.00  0.00    +0.004 C 
ATOM     13  C   UNL     1       6.858   5.233  22.809  0.00  0.00    +0.000 C 
ENDBRANCH  11  13
ENDBRANCH   2  11
BRANCH   2  14
ATOM     14  C   UNL     1       9.649   2.783  23.535  0.00  0.00    +0.053 C 
BRANCH  14  15
ATOM     15  C   UNL     1       9.973   1.972  22.269  0.00  0.00    +0.039 C 
BRANCH  15  16
ATOM     16  C   UNL     1       9.832   0.487  22.508  0.00  0.00    -0.047 A 
ATOM     17  C   UNL     1      10.303  -0.090  23.694  0.00  0.00    +0.003 A 
ATOM     18  C   UNL     1      10.146  -1.459  23.924  0.00  0.00    +0.000 A 
ATOM     19  C   UNL     1       9.517  -2.261  22.974  0.00  0.00    +0.000 A 
ATOM     20  C   UNL     1       9.050  -1.696  21.788  0.00  0.00    +0.000 A 
ATOM     21  C   UNL     1       9.205  -0.329  21.556  0.00  0.00    +0.003 A 
ENDBRANCH  15  16
ENDBRANCH  14  15
ENDBRANCH   2  14
ENDBRANCH   1   6
BRANCH   1  22
ATOM     22  C   UNL     1       6.405  -0.314  27.015  0.00  0.00    -0.038 A 
ATOM     23  C   UNL     1       7.663  -0.825  26.646  0.00  0.00    +0.004 A 
ATOM     24  C   UNL     1       7.865  -2.201  26.518  0.00  0.00    +0.002 A 
ATOM     25  C   UNL     1       6.817  -3.089  26.751  0.00  0.00    +0.024 A 
ATOM     26  C   UNL     1       5.567  -2.598  27.117  0.00  0.00    +0.048 A 
ATOM     27  C   UNL     1       5.358  -1.223  27.250  0.00  0.00    +0.028 A 
BRANCH  26  28
ATOM     28  N   UNL     1       4.497  -3.489  27.382  0.00  0.00    -0.215 N 
ATOM     29  H   UNL     1       4.173  -3.615  28.339  0.00  0.00    +0.174 HD
BRANCH  28  30
ATOM     30  S   UNL     1       3.265  -3.644  26.235  0.00  0.00    +0.090 S 
ATOM     31  O   UNL     1       2.743  -2.325  25.933  0.00  0.00    -0.148 OA
ATOM     32  O   UNL     1       2.374  -4.688  26.712  0.00  0.00    -0.148 OA
BRANCH  30  33
ATOM     33  C   UNL     1       4.116  -4.259  24.783  0.00  0.00    +0.197 A 
ATOM     34  C   UNL     1       4.567  -3.376  23.816  0.00  0.00    +0.050 A 
ATOM     35  C   UNL     1       5.349  -3.898  22.790  0.00  0.00    +0.017 A 
ATOM     36  C   UNL     1       5.649  -5.267  22.767  0.00  0.00    +0.073 A 
ATOM     37  C   UNL     1       5.120  -6.067  23.773  0.00  0.00    +0.125 A 
ATOM     38  N   UNL     1       4.369  -5.597  24.791  0.00  0.00    -0.235 NA
BRANCH  36  39
ATOM     39  C   UNL     1       6.538  -5.852  21.711  0.00  0.00    +0.419 C 
ATOM     40  F   UNL     1       7.721  -5.185  21.609  0.00  0.00    -0.166 F 
ATOM     41  F   UNL     1       5.977  -5.806  20.472  0.00  0.00    -0.166 F 
ATOM     42  F   UNL     1       6.862  -7.156  21.928  0.00  0.00    -0.166 F 
ENDBRANCH  36  39
ENDBRANCH  30  33
ENDBRANCH  28  30
ENDBRANCH  26  28
ENDBRANCH   1  22
BRANCH   1  43
ATOM     43  C   UNL     1       4.642   1.441  27.408  0.00  0.00    +0.010 C 
ATOM     44  C   UNL     1       4.323   2.745  28.140  0.00  0.00    +0.005 C 
ENDBRANCH   1  43
TORSDOF 13
ENDMDL
MODEL 9
REMARK VINA RESULT:      -6.3      1.788      2.288
REMARK  Name = 
REMARK  15 active torsions:
REMARK  status: ('A' for Active; 'I' for Inactive)
REMARK    1  A    between atoms: C_1  and  C_2
REMARK    2  A    between atoms: C_2  and  C_3
REMARK    3  A    between atoms: C_3  and  C_4
REMARK    4  A    between atoms: C_4  and  C_35
REMARK    5  A    between atoms: C_6  and  O_34
REMARK    6  A    between atoms: C_7  and  C_11
REMARK    7  A    between atoms: C_11  and  C_12
REMARK    8  A    between atoms: C_11  and  C_14
REMARK    9  A    between atoms: C_12  and  C_13
REMARK   10  A    between atoms: C_16  and  N_20
REMARK   11  A    between atoms: N_20  and  S_21
REMARK   12  A    between atoms: S_21  and  C_24
REMARK   13  A    between atoms: C_27  and  C_30
REMARK   14  A    between atoms: C_35  and  C_36
REMARK   15  A    between atoms: C_36  and  C_37
REMARK                            x       y       z     vdW  Elec       q    Type
REMARK                         _______ _______ _______ _____ _____    ______ ____
ROOT
ATOM      1  C   UNL     1       7.255   0.783  26.342  0.00  0.00    +0.059 C 
ENDROOT
BRANCH   1   6
ATOM      2  C   UNL     1       8.133  -2.656  23.682  0.00  0.00    +0.121 C 
ATOM      3  O   UNL     1       8.898  -2.199  24.819  0.00  0.00    -0.454 OA
ATOM      4  C   UNL     1       8.328  -1.503  25.828  0.00  0.00    +0.339 C 
ATOM      5  O   UNL     1       8.677  -1.672  26.989  0.00  0.00    -0.245 OA
ATOM      6  C   UNL     1       7.349  -0.456  25.430  0.00  0.00    +0.081 C 
ATOM      7  C   UNL     1       6.557  -0.787  24.391  0.00  0.00    +0.108 C 
ATOM      8  C   UNL     1       6.706  -2.073  23.642  0.00  0.00    +0.122 C 
BRANCH   7   9
ATOM      9  O   UNL     1       5.494  -0.001  23.998  0.00  0.00    -0.510 OA
ATOM     10  H   UNL     1       5.578   0.894  24.366  0.00  0.00    +0.292 HD
ENDBRANCH   7   9
BRANCH   2  11
ATOM     11  C   UNL     1       7.985  -4.196  23.844  0.00  0.00    +0.048 C 
BRANCH  11  13
ATOM     12  C   UNL     1       8.268  -5.284  26.091  0.00  0.00    +0.004 C 
ATOM     13  C   UNL     1       8.970  -4.875  24.802  0.00  0.00    +0.000 C 
ENDBRANCH  11  13
ENDBRANCH   2  11
BRANCH   2  14
ATOM     14  C   UNL     1       8.931  -2.301  22.401  0.00  0.00    +0.053 C 
BRANCH  14  15
ATOM     15  C   UNL     1      10.248  -1.552  22.663  0.00  0.00    +0.039 C 
BRANCH  15  16
ATOM     16  C   UNL     1      10.025  -0.064  22.800  0.00  0.00    -0.047 A 
ATOM     17  C   UNL     1      10.639   0.655  23.833  0.00  0.00    +0.003 A 
ATOM     18  C   UNL     1      10.455   2.036  23.940  0.00  0.00    +0.000 A 
ATOM     19  C   UNL     1       9.657   2.708  23.017  0.00  0.00    +0.000 A 
ATOM     20  C   UNL     1       9.037   2.001  21.988  0.00  0.00    +0.000 A 
ATOM     21  C   UNL     1       9.221   0.622  21.878  0.00  0.00    +0.003 A 
ENDBRANCH  15  16
ENDBRANCH  14  15
ENDBRANCH   2  14
ENDBRANCH   1   6
BRANCH   1  22
ATOM     22  C   UNL     1       6.291   0.628  27.526  0.00  0.00    -0.038 A 
ATOM     23  C   UNL     1       6.570   1.199  28.781  0.00  0.00    +0.004 A 
ATOM     24  C   UNL     1       5.679   1.050  29.847  0.00  0.00    +0.002 A 
ATOM     25  C   UNL     1       4.500   0.326  29.680  0.00  0.00    +0.024 A 
ATOM     26  C   UNL     1       4.212  -0.245  28.444  0.00  0.00    +0.048 A 
ATOM     27  C   UNL     1       5.096  -0.097  27.373  0.00  0.00    +0.028 A 
BRANCH  26  28
ATOM     28  N   UNL     1       3.005  -0.963  28.251  0.00  0.00    -0.215 N 
ATOM     29  H   UNL     1       2.374  -0.693  27.499  0.00  0.00    +0.174 HD
BRANCH  28  30
ATOM     30  S   UNL     1       2.986  -2.623  28.575  0.00  0.00    +0.090 S 
ATOM     31  O   UNL     1       1.614  -3.036  28.799  0.00  0.00    -0.148 OA
ATOM     32  O   UNL     1       3.995  -2.864  29.592  0.00  0.00    -0.148 OA
BRANCH  30  33
ATOM     33  C   UNL     1       3.552  -3.357  27.042  0.00  0.00    +0.197 A 
ATOM     34  C   UNL     1       4.465  -4.399  27.066  0.00  0.00    +0.050 A 
ATOM     35  C   UNL     1       4.752  -5.024  25.856  0.00  0.00    +0.017 A 
ATOM     36  C   UNL     1       4.125  -4.591  24.679  0.00  0.00    +0.073 A 
ATOM     37  C   UNL     1       3.247  -3.516  24.766  0.00  0.00    +0.125 A 
ATOM     38  N   UNL     1       2.933  -2.893  25.921  0.00  0.00    -0.235 NA
BRANCH  36  39
ATOM     39  C   UNL     1       4.365  -5.280  23.369  0.00  0.00    +0.419 C 
ATOM     40  F   UNL     1       4.901  -4.441  22.440  0.00  0.00    -0.166 F 
ATOM     41  F   UNL     1       3.219  -5.764  22.817  0.00  0.00    -0.166 F 
ATOM     42  F   UNL     1       5.217  -6.337  23.455  0.00  0.00    -0.166 F 
ENDBRANCH  36  39
ENDBRANCH  30  33
ENDBRANCH  28  30
ENDBRANCH  26  28
ENDBRANCH   1  22
BRANCH   1  43
ATOM     43  C   UNL     1       6.922   2.109  25.589  0.00  0.00    +0.010 C 
ATOM     44  C   UNL     1       7.660   3.338  26.118  0.00  0.00    +0.005 C 
ENDBRANCH   1  43
TORSDOF 13
ENDMDL
