MODEL 1
REMARK VINA RESULT:      -8.7      0.000      0.000
REMARK  Name = 
REMARK  11 active torsions:
REMARK  status: ('A' for Active; 'I' for Inactive)
REMARK    1  A    between atoms: C_1  and  C_2
REMARK    2  A    between atoms: C_5  and  C_7
REMARK    3  A    between atoms: N_9  and  C_10
REMARK    4  A    between atoms: C_10  and  C_11
REMARK    5  A    between atoms: C_10  and  C_12
REMARK    6  A    between atoms: C_10  and  C_13
REMARK    7  A    between atoms: C_15  and  C_22
REMARK    8  A    between atoms: C_16  and  O_21
REMARK    9  A    between atoms: N_19  and  C_20
REMARK   10  A    between atoms: N_24  and  C_25
REMARK   11  A    between atoms: C_25  and  C_26
REMARK                            x       y       z     vdW  Elec       q    Type
REMARK                         _______ _______ _______ _____ _____    ______ ____
ROOT
ATOM      1  C   UNL     1       5.560  -4.655  25.338  0.00  0.00    +0.045 A 
ATOM      2  N   UNL     1       5.719  -5.307  26.582  0.00  0.00    -0.310 N 
ATOM      3  C   UNL     1       4.619  -5.859  27.347  0.00  0.00    +0.152 C 
ATOM      4  C   UNL     1       6.969  -5.424  27.203  0.00  0.00    +0.294 A 
ATOM      5  O   UNL     1       7.179  -5.917  28.315  0.00  0.00    -0.264 OA
ATOM      6  C   UNL     1       8.173  -4.918  26.483  0.00  0.00    +0.194 A 
ATOM      7  C   UNL     1       8.027  -4.381  25.265  0.00  0.00    +0.085 A 
ATOM      8  C   UNL     1       6.691  -4.228  24.721  0.00  0.00    +0.040 A 
ENDROOT
BRANCH   7   9
ATOM      9  C   UNL     1       9.202  -3.835  24.495  0.00  0.00    +0.248 C 
ATOM     10  N   UNL     1       8.960  -2.698  23.768  0.00  0.00    -0.307 N 
ATOM     11  H   UNL     1       8.013  -2.338  23.749  0.00  0.00    +0.149 HD
ATOM     12  O   UNL     1      10.301  -4.380  24.556  0.00  0.00    -0.270 OA
BRANCH  10  13
ATOM     13  C   UNL     1       9.922  -2.102  22.874  0.00  0.00    +0.139 C 
BRANCH  13  14
ATOM     14  C   UNL     1       9.987  -0.609  23.057  0.00  0.00    -0.030 A 
ATOM     15  C   UNL     1      10.239  -0.046  24.320  0.00  0.00    +0.008 A 
ATOM     16  C   UNL     1      10.339   1.339  24.463  0.00  0.00    +0.038 A 
ATOM     17  C   UNL     1      10.193   2.157  23.349  0.00  0.00    +0.123 A 
ATOM     18  F   UNL     1      10.303   3.485  23.487  0.00  0.00    -0.205 F 
ATOM     19  C   UNL     1       9.943   1.620  22.093  0.00  0.00    +0.038 A 
ATOM     20  C   UNL     1       9.844   0.237  21.946  0.00  0.00    +0.008 A 
ENDBRANCH  13  14
ENDBRANCH  10  13
ENDBRANCH   7   9
BRANCH   1  21
ATOM     21  C   UNL     1       4.191  -4.379  24.607  0.00  0.00    +0.070 C 
ATOM     22  C   UNL     1       3.435  -3.216  25.298  0.00  0.00    +0.038 C 
ATOM     23  C   UNL     1       4.501  -3.914  23.158  0.00  0.00    +0.038 C 
BRANCH  21  25
ATOM     24  C   UNL     1       3.671  -6.852  24.107  0.00  0.00    +0.301 C 
ATOM     25  N   UNL     1       3.310  -5.555  24.446  0.00  0.00    -0.297 N 
ATOM     26  H   UNL     1       2.323  -5.420  24.646  0.00  0.00    +0.150 HD
ATOM     27  O   UNL     1       4.821  -7.166  23.797  0.00  0.00    -0.265 OA
BRANCH  24  31
ATOM     28  C   UNL     1       0.945 -10.572  25.576  0.00  0.00    +0.111 C 
ATOM     29  C   UNL     1       1.354  -9.431  24.738  0.00  0.00    +0.215 A 
ATOM     30  O   UNL     1       2.500  -8.773  25.095  0.00  0.00    -0.417 OA
ATOM     31  C   UNL     1       2.572  -7.802  24.125  0.00  0.00    +0.304 A 
ATOM     32  N   UNL     1       1.577  -7.864  23.264  0.00  0.00    -0.102 NA
ATOM     33  N   UNL     1       0.784  -8.924  23.665  0.00  0.00    -0.112 NA
ENDBRANCH  24  31
ENDBRANCH  21  25
ENDBRANCH   1  21
BRANCH   6  34
ATOM     34  O   UNL     1       9.388  -5.020  27.148  0.00  0.00    -0.502 OA
ATOM     35  H   UNL     1      10.007  -4.484  26.603  0.00  0.00    +0.292 HD
ENDBRANCH   6  34
TORSDOF 7
ENDMDL
MODEL 2
REMARK VINA RESULT:      -7.8      2.020      3.083
REMARK  Name = 
REMARK  11 active torsions:
REMARK  status: ('A' for Active; 'I' for Inactive)
REMARK    1  A    between atoms: C_1  and  C_2
REMARK    2  A    between atoms: C_5  and  C_7
REMARK    3  A    between atoms: N_9  and  C_10
REMARK    4  A    between atoms: C_10  and  C_11
REMARK    5  A    between atoms: C_10  and  C_12
REMARK    6  A    between atoms: C_10  and  C_13
REMARK    7  A    between atoms: C_15  and  C_22
REMARK    8  A    between atoms: C_16  and  O_21
REMARK    9  A    between atoms: N_19  and  C_20
REMARK   10  A    between atoms: N_24  and  C_25
REMARK   11  A    between atoms: C_25  and  C_26
REMARK                            x       y       z     vdW  Elec       q    Type
REMARK                         _______ _______ _______ _____ _____    ______ ____
ROOT
ATOM      1  C   UNL     1       6.824  -3.400  25.107  0.00  0.00    +0.045 A 
ATOM      2  N   UNL     1       7.908  -4.282  25.315  0.00  0.00    -0.310 N 
ATOM      3  C   UNL     1       7.843  -5.448  26.175  0.00  0.00    +0.152 C 
ATOM      4  C   UNL     1       9.164  -4.064  24.735  0.00  0.00    +0.294 A 
ATOM      5  O   UNL     1      10.173  -4.749  24.921  0.00  0.00    -0.264 OA
ATOM      6  C   UNL     1       9.328  -2.910  23.805  0.00  0.00    +0.194 A 
ATOM      7  C   UNL     1       8.273  -2.128  23.543  0.00  0.00    +0.085 A 
ATOM      8  C   UNL     1       7.025  -2.376  24.240  0.00  0.00    +0.040 A 
ENDROOT
BRANCH   7   9
ATOM      9  C   UNL     1       8.380  -0.936  22.626  0.00  0.00    +0.248 C 
ATOM     10  N   UNL     1       7.821   0.225  23.094  0.00  0.00    -0.307 N 
ATOM     11  H   UNL     1       7.331   0.194  23.981  0.00  0.00    +0.149 HD
ATOM     12  O   UNL     1       8.960  -1.023  21.547  0.00  0.00    -0.270 OA
BRANCH  10  13
ATOM     13  C   UNL     1       7.714   1.432  22.312  0.00  0.00    +0.139 C 
BRANCH  13  14
ATOM     14  C   UNL     1       8.622   2.509  22.843  0.00  0.00    -0.030 A 
ATOM     15  C   UNL     1      10.012   2.317  22.911  0.00  0.00    +0.008 A 
ATOM     16  C   UNL     1      10.842   3.343  23.366  0.00  0.00    +0.038 A 
ATOM     17  C   UNL     1      10.285   4.559  23.747  0.00  0.00    +0.123 A 
ATOM     18  F   UNL     1      11.085   5.546  24.170  0.00  0.00    -0.205 F 
ATOM     19  C   UNL     1       8.913   4.768  23.688  0.00  0.00    +0.038 A 
ATOM     20  C   UNL     1       8.082   3.745  23.233  0.00  0.00    +0.008 A 
ENDBRANCH  13  14
ENDBRANCH  10  13
ENDBRANCH   7   9
BRANCH   1  21
ATOM     21  C   UNL     1       5.407  -3.497  25.793  0.00  0.00    +0.070 C 
ATOM     22  C   UNL     1       5.541  -3.353  27.330  0.00  0.00    +0.038 C 
ATOM     23  C   UNL     1       4.549  -2.299  25.304  0.00  0.00    +0.038 C 
BRANCH  21  25
ATOM     24  C   UNL     1       4.476  -5.294  24.200  0.00  0.00    +0.301 C 
ATOM     25  N   UNL     1       4.616  -4.696  25.445  0.00  0.00    -0.297 N 
ATOM     26  H   UNL     1       4.146  -5.174  26.210  0.00  0.00    +0.150 HD
ATOM     27  O   UNL     1       4.950  -4.814  23.170  0.00  0.00    -0.265 OA
BRANCH  24  31
ATOM     28  C   UNL     1       0.999  -8.450  23.021  0.00  0.00    +0.111 C 
ATOM     29  C   UNL     1       2.187  -7.931  23.723  0.00  0.00    +0.215 A 
ATOM     30  O   UNL     1       2.611  -6.674  23.388  0.00  0.00    -0.417 OA
ATOM     31  C   UNL     1       3.701  -6.523  24.212  0.00  0.00    +0.304 A 
ATOM     32  N   UNL     1       3.914  -7.576  24.974  0.00  0.00    -0.102 NA
ATOM     33  N   UNL     1       2.929  -8.492  24.654  0.00  0.00    -0.112 NA
ENDBRANCH  24  31
ENDBRANCH  21  25
ENDBRANCH   1  21
BRANCH   6  34
ATOM     34  O   UNL     1      10.597  -2.706  23.279  0.00  0.00    -0.502 OA
ATOM     35  H   UNL     1      10.662  -3.358  22.546  0.00  0.00    +0.292 HD
ENDBRANCH   6  34
TORSDOF 7
ENDMDL
MODEL 3
REMARK VINA RESULT:      -7.7      1.872      2.421
REMARK  Name = 
REMARK  11 active torsions:
REMARK  status: ('A' for Active; 'I' for Inactive)
REMARK    1  A    between atoms: C_1  and  C_2
REMARK    2  A    between atoms: C_5  and  C_7
REMARK    3  A    between atoms: N_9  and  C_10
REMARK    4  A    between atoms: C_10  and  C_11
REMARK    5  A    between atoms: C_10  and  C_12
REMARK    6  A    between atoms: C_10  and  C_13
REMARK    7  A    between atoms: C_15  and  C_22
REMARK    8  A    between atoms: C_16  and  O_21
REMARK    9  A    between atoms: N_19  and  C_20
REMARK   10  A    between atoms: N_24  and  C_25
REMARK   11  A    between atoms: C_25  and  C_26
REMARK                            x       y       z     vdW  Elec       q    Type
REMARK                         _______ _______ _______ _____ _____    ______ ____
ROOT
ATOM      1  C   UNL     1       6.963  -4.840  23.813  0.00  0.00    +0.045 A 
ATOM      2  N   UNL     1       6.695  -5.033  25.187  0.00  0.00    -0.310 N 
ATOM      3  C   UNL     1       5.728  -5.988  25.691  0.00  0.00    +0.152 C 
ATOM      4  C   UNL     1       7.319  -4.266  26.179  0.00  0.00    +0.294 A 
ATOM      5  O   UNL     1       7.089  -4.329  27.390  0.00  0.00    -0.264 OA
ATOM      6  C   UNL     1       8.356  -3.278  25.769  0.00  0.00    +0.194 A 
ATOM      7  C   UNL     1       8.670  -3.161  24.472  0.00  0.00    +0.085 A 
ATOM      8  C   UNL     1       7.927  -3.938  23.498  0.00  0.00    +0.040 A 
ENDROOT
BRANCH   7   9
ATOM      9  C   UNL     1       9.697  -2.168  23.993  0.00  0.00    +0.248 C 
ATOM     10  N   UNL     1       9.649  -0.931  24.584  0.00  0.00    -0.307 N 
ATOM     11  H   UNL     1       8.906  -0.750  25.249  0.00  0.00    +0.149 HD
ATOM     12  O   UNL     1      10.528  -2.482  23.145  0.00  0.00    -0.270 OA
BRANCH  10  13
ATOM     13  C   UNL     1      10.465   0.184  24.170  0.00  0.00    +0.139 C 
BRANCH  13  14
ATOM     14  C   UNL     1       9.633   1.256  23.517  0.00  0.00    -0.030 A 
ATOM     15  C   UNL     1       8.988   1.024  22.290  0.00  0.00    +0.008 A 
ATOM     16  C   UNL     1       8.186   2.015  21.721  0.00  0.00    +0.038 A 
ATOM     17  C   UNL     1       8.027   3.231  22.376  0.00  0.00    +0.123 A 
ATOM     18  F   UNL     1       7.246   4.175  21.834  0.00  0.00    -0.205 F 
ATOM     19  C   UNL     1       8.658   3.479  23.588  0.00  0.00    +0.038 A 
ATOM     20  C   UNL     1       9.458   2.491  24.160  0.00  0.00    +0.008 A 
ENDBRANCH  13  14
ENDBRANCH  10  13
ENDBRANCH   7   9
BRANCH   1  21
ATOM     21  C   UNL     1       6.243  -5.574  22.617  0.00  0.00    +0.070 C 
ATOM     22  C   UNL     1       5.992  -4.585  21.450  0.00  0.00    +0.038 C 
ATOM     23  C   UNL     1       7.199  -6.672  22.077  0.00  0.00    +0.038 C 
BRANCH  21  25
ATOM     24  C   UNL     1       3.724  -5.771  23.115  0.00  0.00    +0.301 C 
ATOM     25  N   UNL     1       5.002  -6.294  22.971  0.00  0.00    -0.297 N 
ATOM     26  H   UNL     1       5.072  -7.301  23.084  0.00  0.00    +0.150 HD
ATOM     27  O   UNL     1       3.483  -4.565  23.047  0.00  0.00    -0.265 OA
BRANCH  24  31
ATOM     28  C   UNL     1       1.585  -9.639  25.090  0.00  0.00    +0.111 C 
ATOM     29  C   UNL     1       1.730  -8.460  24.217  0.00  0.00    +0.215 A 
ATOM     30  O   UNL     1       2.906  -7.765  24.297  0.00  0.00    -0.417 OA
ATOM     31  C   UNL     1       2.698  -6.766  23.375  0.00  0.00    +0.304 A 
ATOM     32  N   UNL     1       1.519  -6.847  22.792  0.00  0.00    -0.102 NA
ATOM     33  N   UNL     1       0.890  -7.949  23.341  0.00  0.00    -0.112 NA
ENDBRANCH  24  31
ENDBRANCH  21  25
ENDBRANCH   1  21
BRANCH   6  34
ATOM     34  O   UNL     1       8.925  -2.512  26.778  0.00  0.00    -0.502 OA
ATOM     35  H   UNL     1       9.136  -3.163  27.485  0.00  0.00    +0.292 HD
ENDBRANCH   6  34
TORSDOF 7
ENDMDL
MODEL 4
REMARK VINA RESULT:      -7.6      1.676      2.032
REMARK  Name = 
REMARK  11 active torsions:
REMARK  status: ('A' for Active; 'I' for Inactive)
REMARK    1  A    between atoms: C_1  and  C_2
REMARK    2  A    between atoms: C_5  and  C_7
REMARK    3  A    between atoms: N_9  and  C_10
REMARK    4  A    between atoms: C_10  and  C_11
REMARK    5  A    between atoms: C_10  and  C_12
REMARK    6  A    between atoms: C_10  and  C_13
REMARK    7  A    between atoms: C_15  and  C_22
REMARK    8  A    between atoms: C_16  and  O_21
REMARK    9  A    between atoms: N_19  and  C_20
REMARK   10  A    between atoms: N_24  and  C_25
REMARK   11  A    between atoms: C_25  and  C_26
REMARK                            x       y       z     vdW  Elec       q    Type
REMARK                         _______ _______ _______ _____ _____    ______ ____
ROOT
ATOM      1  C   UNL     1       4.927  -5.017  25.476  0.00  0.00    +0.045 A 
ATOM      2  N   UNL     1       5.816  -5.539  26.442  0.00  0.00    -0.310 N 
ATOM      3  C   UNL     1       5.386  -6.193  27.662  0.00  0.00    +0.152 C 
ATOM      4  C   UNL     1       7.206  -5.416  26.314  0.00  0.00    +0.294 A 
ATOM      5  O   UNL     1       8.042  -5.784  27.144  0.00  0.00    -0.264 OA
ATOM      6  C   UNL     1       7.755  -4.788  25.078  0.00  0.00    +0.194 A 
ATOM      7  C   UNL     1       6.909  -4.375  24.125  0.00  0.00    +0.085 A 
ATOM      8  C   UNL     1       5.481  -4.470  24.364  0.00  0.00    +0.040 A 
ENDROOT
BRANCH   7   9
ATOM      9  C   UNL     1       7.402  -3.717  22.862  0.00  0.00    +0.248 C 
ATOM     10  N   UNL     1       8.315  -2.708  23.034  0.00  0.00    -0.307 N 
ATOM     11  H   UNL     1       8.552  -2.437  23.982  0.00  0.00    +0.149 HD
ATOM     12  O   UNL     1       7.012  -4.098  21.761  0.00  0.00    -0.270 OA
BRANCH  10  13
ATOM     13  C   UNL     1       8.804  -1.881  21.959  0.00  0.00    +0.139 C 
BRANCH  13  14
ATOM     14  C   UNL     1       9.377  -0.590  22.480  0.00  0.00    -0.030 A 
ATOM     15  C   UNL     1       9.855  -0.490  23.798  0.00  0.00    +0.008 A 
ATOM     16  C   UNL     1      10.423   0.703  24.250  0.00  0.00    +0.038 A 
ATOM     17  C   UNL     1      10.516   1.789  23.387  0.00  0.00    +0.123 A 
ATOM     18  F   UNL     1      11.074   2.928  23.820  0.00  0.00    -0.205 F 
ATOM     19  C   UNL     1      10.048   1.710  22.083  0.00  0.00    +0.038 A 
ATOM     20  C   UNL     1       9.482   0.520  21.627  0.00  0.00    +0.008 A 
ENDBRANCH  13  14
ENDBRANCH  10  13
ENDBRANCH   7   9
BRANCH   1  21
ATOM     21  C   UNL     1       3.353  -5.011  25.574  0.00  0.00    +0.070 C 
ATOM     22  C   UNL     1       2.902  -5.338  27.021  0.00  0.00    +0.038 C 
ATOM     23  C   UNL     1       2.854  -3.574  25.264  0.00  0.00    +0.038 C 
BRANCH  21  25
ATOM     24  C   UNL     1       2.866  -7.221  24.344  0.00  0.00    +0.301 C 
ATOM     25  N   UNL     1       2.653  -5.873  24.599  0.00  0.00    -0.297 N 
ATOM     26  H   UNL     1       1.893  -5.449  24.074  0.00  0.00    +0.150 HD
ATOM     27  O   UNL     1       3.775  -7.865  24.870  0.00  0.00    -0.265 OA
BRANCH  24  31
ATOM     28  C   UNL     1       0.446  -7.811  20.194  0.00  0.00    +0.111 C 
ATOM     29  C   UNL     1       0.857  -8.088  21.582  0.00  0.00    +0.215 A 
ATOM     30  O   UNL     1       1.809  -7.269  22.125  0.00  0.00    -0.417 OA
ATOM     31  C   UNL     1       1.941  -7.801  23.387  0.00  0.00    +0.304 A 
ATOM     32  N   UNL     1       1.147  -8.833  23.591  0.00  0.00    -0.102 NA
ATOM     33  N   UNL     1       0.443  -9.019  22.415  0.00  0.00    -0.112 NA
ENDBRANCH  24  31
ENDBRANCH  21  25
ENDBRANCH   1  21
BRANCH   6  34
ATOM     34  O   UNL     1       9.135  -4.651  25.006  0.00  0.00    -0.502 OA
ATOM     35  H   UNL     1       9.319  -4.566  24.044  0.00  0.00    +0.292 HD
ENDBRANCH   6  34
TORSDOF 7
ENDMDL
MODEL 5
REMARK VINA RESULT:      -7.4      2.937      4.036
REMARK  Name = 
REMARK  11 active torsions:
REMARK  status: ('A' for Active; 'I' for Inactive)
REMARK    1  A    between atoms: C_1  and  C_2
REMARK    2  A    between atoms: C_5  and  C_7
REMARK    3  A    between atoms: N_9  and  C_10
REMARK    4  A    between atoms: C_10  and  C_11
REMARK    5  A    between atoms: C_10  and  C_12
REMARK    6  A    between atoms: C_10  and  C_13
REMARK    7  A    between atoms: C_15  and  C_22
REMARK    8  A    between atoms: C_16  and  O_21
REMARK    9  A    between atoms: N_19  and  C_20
REMARK   10  A    between atoms: N_24  and  C_25
REMARK   11  A    between atoms: C_25  and  C_26
REMARK                            x       y       z     vdW  Elec       q    Type
REMARK                         _______ _______ _______ _____ _____    ______ ____
ROOT
ATOM      1  C   UNL     1       6.964  -2.900  24.868  0.00  0.00    +0.045 A 
ATOM      2  N   UNL     1       5.894  -2.157  25.417  0.00  0.00    -0.310 N 
ATOM      3  C   UNL     1       4.869  -2.731  26.267  0.00  0.00    +0.152 C 
ATOM      4  C   UNL     1       5.713  -0.797  25.136  0.00  0.00    +0.294 A 
ATOM      5  O   UNL     1       4.771  -0.100  25.522  0.00  0.00    -0.264 OA
ATOM      6  C   UNL     1       6.732  -0.102  24.299  0.00  0.00    +0.194 A 
ATOM      7  C   UNL     1       7.791  -0.790  23.853  0.00  0.00    +0.085 A 
ATOM      8  C   UNL     1       7.869  -2.213  24.126  0.00  0.00    +0.040 A 
ENDROOT
BRANCH   7   9
ATOM      9  C   UNL     1       8.845  -0.148  22.987  0.00  0.00    +0.248 C 
ATOM     10  N   UNL     1       9.383   1.017  23.471  0.00  0.00    -0.307 N 
ATOM     11  H   UNL     1       9.005   1.394  24.333  0.00  0.00    +0.149 HD
ATOM     12  O   UNL     1       9.197  -0.671  21.934  0.00  0.00    -0.270 OA
BRANCH  10  13
ATOM     13  C   UNL     1      10.308   1.837  22.730  0.00  0.00    +0.139 C 
BRANCH  13  14
ATOM     14  C   UNL     1      10.373   3.232  23.292  0.00  0.00    -0.030 A 
ATOM     15  C   UNL     1      11.564   3.978  23.244  0.00  0.00    +0.008 A 
ATOM     16  C   UNL     1      11.594   5.286  23.731  0.00  0.00    +0.038 A 
ATOM     17  C   UNL     1      10.437   5.848  24.261  0.00  0.00    +0.123 A 
ATOM     18  F   UNL     1      10.466   7.108  24.716  0.00  0.00    -0.205 F 
ATOM     19  C   UNL     1       9.252   5.127  24.320  0.00  0.00    +0.038 A 
ATOM     20  C   UNL     1       9.219   3.821  23.832  0.00  0.00    +0.008 A 
ENDBRANCH  13  14
ENDBRANCH  10  13
ENDBRANCH   7   9
BRANCH   1  21
ATOM     21  C   UNL     1       7.197  -4.450  25.037  0.00  0.00    +0.070 C 
ATOM     22  C   UNL     1       8.336  -4.929  24.101  0.00  0.00    +0.038 C 
ATOM     23  C   UNL     1       7.673  -4.712  26.491  0.00  0.00    +0.038 C 
BRANCH  21  25
ATOM     24  C   UNL     1       5.331  -5.616  23.699  0.00  0.00    +0.301 C 
ATOM     25  N   UNL     1       5.994  -5.293  24.875  0.00  0.00    -0.297 N 
ATOM     26  H   UNL     1       5.624  -5.731  25.714  0.00  0.00    +0.150 HD
ATOM     27  O   UNL     1       5.634  -5.135  22.606  0.00  0.00    -0.265 OA
BRANCH  24  31
ATOM     28  C   UNL     1       0.969  -7.619  23.071  0.00  0.00    +0.111 C 
ATOM     29  C   UNL     1       2.325  -7.454  23.624  0.00  0.00    +0.215 A 
ATOM     30  O   UNL     1       3.064  -6.400  23.160  0.00  0.00    -0.417 OA
ATOM     31  C   UNL     1       4.232  -6.550  23.871  0.00  0.00    +0.304 A 
ATOM     32  N   UNL     1       4.204  -7.585  24.686  0.00  0.00    -0.102 NA
ATOM     33  N   UNL     1       2.963  -8.173  24.524  0.00  0.00    -0.112 NA
ENDBRANCH  24  31
ENDBRANCH  21  25
ENDBRANCH   1  21
BRANCH   6  34
ATOM     34  O   UNL     1       6.498   1.237  24.012  0.00  0.00    -0.502 OA
ATOM     35  H   UNL     1       6.624   1.301  23.039  0.00  0.00    +0.292 HD
ENDBRANCH   6  34
TORSDOF 7
ENDMDL
MODEL 6
REMARK VINA RESULT:      -7.4      3.470      5.770
REMARK  Name = 
REMARK  11 active torsions:
REMARK  status: ('A' for Active; 'I' for Inactive)
REMARK    1  A    between atoms: C_1  and  C_2
REMARK    2  A    between atoms: C_5  and  C_7
REMARK    3  A    between atoms: N_9  and  C_10
REMARK    4  A    between atoms: C_10  and  C_11
REMARK    5  A    between atoms: C_10  and  C_12
REMARK    6  A    between atoms: C_10  and  C_13
REMARK    7  A    between atoms: C_15  and  C_22
REMARK    8  A    between atoms: C_16  and  O_21
REMARK    9  A    between atoms: N_19  and  C_20
REMARK   10  A    between atoms: N_24  and  C_25
REMARK   11  A    between atoms: C_25  and  C_26
REMARK                            x       y       z     vdW  Elec       q    Type
REMARK                         _______ _______ _______ _____ _____    ______ ____
ROOT
ATOM      1  C   UNL     1       5.652  -3.251  26.770  0.00  0.00    +0.045 A 
ATOM      2  N   UNL     1       5.846  -4.409  27.557  0.00  0.00    -0.310 N 
ATOM      3  C   UNL     1       4.912  -4.859  28.570  0.00  0.00    +0.152 C 
ATOM      4  C   UNL     1       7.001  -5.195  27.450  0.00  0.00    +0.294 A 
ATOM      5  O   UNL     1       7.272  -6.177  28.145  0.00  0.00    -0.264 OA
ATOM      6  C   UNL     1       8.011  -4.838  26.413  0.00  0.00    +0.194 A 
ATOM      7  C   UNL     1       7.781  -3.791  25.610  0.00  0.00    +0.085 A 
ATOM      8  C   UNL     1       6.596  -2.983  25.833  0.00  0.00    +0.040 A 
ENDROOT
BRANCH   7   9
ATOM      9  C   UNL     1       8.772  -3.369  24.556  0.00  0.00    +0.248 C 
ATOM     10  N   UNL     1       8.419  -2.271  23.814  0.00  0.00    -0.307 N 
ATOM     11  H   UNL     1       7.509  -1.858  23.979  0.00  0.00    +0.149 HD
ATOM     12  O   UNL     1       9.832  -3.973  24.412  0.00  0.00    -0.270 OA
BRANCH  10  13
ATOM     13  C   UNL     1       9.176  -1.796  22.682  0.00  0.00    +0.139 C 
BRANCH  13  14
ATOM     14  C   UNL     1       9.635  -0.377  22.890  0.00  0.00    -0.030 A 
ATOM     15  C   UNL     1       9.772   0.505  21.804  0.00  0.00    +0.008 A 
ATOM     16  C   UNL     1      10.157   1.830  22.020  0.00  0.00    +0.038 A 
ATOM     17  C   UNL     1      10.401   2.272  23.316  0.00  0.00    +0.123 A 
ATOM     18  F   UNL     1      10.758   3.547  23.522  0.00  0.00    -0.205 F 
ATOM     19  C   UNL     1      10.273   1.415  24.401  0.00  0.00    +0.038 A 
ATOM     20  C   UNL     1       9.886   0.092  24.189  0.00  0.00    +0.008 A 
ENDBRANCH  13  14
ENDBRANCH  10  13
ENDBRANCH   7   9
BRANCH   1  21
ATOM     21  C   UNL     1       4.444  -2.245  26.886  0.00  0.00    +0.070 C 
ATOM     22  C   UNL     1       3.106  -2.975  26.605  0.00  0.00    +0.038 C 
ATOM     23  C   UNL     1       4.377  -1.735  28.351  0.00  0.00    +0.038 C 
BRANCH  21  25
ATOM     24  C   UNL     1       5.440   0.037  26.227  0.00  0.00    +0.301 C 
ATOM     25  N   UNL     1       4.557  -1.022  26.064  0.00  0.00    -0.297 N 
ATOM     26  H   UNL     1       3.948  -0.956  25.253  0.00  0.00    +0.150 HD
ATOM     27  O   UNL     1       6.213   0.122  27.182  0.00  0.00    -0.265 OA
BRANCH  24  31
ATOM     28  C   UNL     1       6.751   2.683  22.391  0.00  0.00    +0.111 C 
ATOM     29  C   UNL     1       5.903   2.232  23.509  0.00  0.00    +0.215 A 
ATOM     30  O   UNL     1       6.371   1.194  24.268  0.00  0.00    -0.417 OA
ATOM     31  C   UNL     1       5.358   1.048  25.187  0.00  0.00    +0.304 A 
ATOM     32  N   UNL     1       4.378   1.910  25.008  0.00  0.00    -0.102 NA
ATOM     33  N   UNL     1       4.733   2.679  23.915  0.00  0.00    -0.112 NA
ENDBRANCH  24  31
ENDBRANCH  21  25
ENDBRANCH   1  21
BRANCH   6  34
ATOM     34  O   UNL     1       9.158  -5.619  26.363  0.00  0.00    -0.502 OA
ATOM     35  H   UNL     1       9.756  -5.214  27.031  0.00  0.00    +0.292 HD
ENDBRANCH   6  34
TORSDOF 7
ENDMDL
MODEL 7
REMARK VINA RESULT:      -7.3      3.444      5.019
REMARK  Name = 
REMARK  11 active torsions:
REMARK  status: ('A' for Active; 'I' for Inactive)
REMARK    1  A    between atoms: C_1  and  C_2
REMARK    2  A    between atoms: C_5  and  C_7
REMARK    3  A    between atoms: N_9  and  C_10
REMARK    4  A    between atoms: C_10  and  C_11
REMARK    5  A    between atoms: C_10  and  C_12
REMARK    6  A    between atoms: C_10  and  C_13
REMARK    7  A    between atoms: C_15  and  C_22
REMARK    8  A    between atoms: C_16  and  O_21
REMARK    9  A    between atoms: N_19  and  C_20
REMARK   10  A    between atoms: N_24  and  C_25
REMARK   11  A    between atoms: C_25  and  C_26
REMARK                            x       y       z     vdW  Elec       q    Type
REMARK                         _______ _______ _______ _____ _____    ______ ____
ROOT
ATOM      1  C   UNL     1       6.770  -2.001  24.926  0.00  0.00    +0.045 A 
ATOM      2  N   UNL     1       6.674  -2.933  23.868  0.00  0.00    -0.310 N 
ATOM      3  C   UNL     1       5.705  -4.011  23.833  0.00  0.00    +0.152 C 
ATOM      4  C   UNL     1       7.556  -2.915  22.780  0.00  0.00    +0.294 A 
ATOM      5  O   UNL     1       7.577  -3.732  21.856  0.00  0.00    -0.264 OA
ATOM      6  C   UNL     1       8.569  -1.825  22.703  0.00  0.00    +0.194 A 
ATOM      7  C   UNL     1       8.599  -0.892  23.664  0.00  0.00    +0.085 A 
ATOM      8  C   UNL     1       7.701  -1.022  24.796  0.00  0.00    +0.040 A 
ENDROOT
BRANCH   7   9
ATOM      9  C   UNL     1       9.612   0.224  23.652  0.00  0.00    +0.248 C 
ATOM     10  N   UNL     1       9.183   1.422  24.163  0.00  0.00    -0.307 N 
ATOM     11  H   UNL     1       8.215   1.494  24.457  0.00  0.00    +0.149 HD
ATOM     12  O   UNL     1      10.750   0.036  23.230  0.00  0.00    -0.270 OA
BRANCH  10  13
ATOM     13  C   UNL     1       9.964   2.633  24.122  0.00  0.00    +0.139 C 
BRANCH  13  14
ATOM     14  C   UNL     1       9.176   3.771  23.530  0.00  0.00    -0.030 A 
ATOM     15  C   UNL     1       8.015   3.532  22.776  0.00  0.00    +0.008 A 
ATOM     16  C   UNL     1       7.273   4.602  22.271  0.00  0.00    +0.038 A 
ATOM     17  C   UNL     1       7.687   5.905  22.523  0.00  0.00    +0.123 A 
ATOM     18  F   UNL     1       6.966   6.929  22.048  0.00  0.00    -0.205 F 
ATOM     19  C   UNL     1       8.833   6.161  23.265  0.00  0.00    +0.038 A 
ATOM     20  C   UNL     1       9.575   5.095  23.772  0.00  0.00    +0.008 A 
ENDBRANCH  13  14
ENDBRANCH  10  13
ENDBRANCH   7   9
BRANCH   1  21
ATOM     21  C   UNL     1       5.899  -1.998  26.240  0.00  0.00    +0.070 C 
ATOM     22  C   UNL     1       6.449  -0.959  27.250  0.00  0.00    +0.038 C 
ATOM     23  C   UNL     1       4.462  -1.542  25.867  0.00  0.00    +0.038 C 
BRANCH  21  25
ATOM     24  C   UNL     1       6.707  -4.207  27.288  0.00  0.00    +0.301 C 
ATOM     25  N   UNL     1       5.722  -3.315  26.886  0.00  0.00    -0.297 N 
ATOM     26  H   UNL     1       4.770  -3.595  27.106  0.00  0.00    +0.150 HD
ATOM     27  O   UNL     1       7.904  -4.031  27.057  0.00  0.00    -0.265 OA
BRANCH  24  31
ATOM     28  C   UNL     1       3.525  -7.182  29.400  0.00  0.00    +0.111 C 
ATOM     29  C   UNL     1       4.836  -6.707  28.922  0.00  0.00    +0.215 A 
ATOM     30  O   UNL     1       4.865  -5.501  28.277  0.00  0.00    -0.417 OA
ATOM     31  C   UNL     1       6.203  -5.379  27.983  0.00  0.00    +0.304 A 
ATOM     32  N   UNL     1       6.914  -6.403  28.410  0.00  0.00    -0.102 NA
ATOM     33  N   UNL     1       6.024  -7.267  29.019  0.00  0.00    -0.112 NA
ENDBRANCH  24  31
ENDBRANCH  21  25
ENDBRANCH   1  21
BRANCH   6  34
ATOM     34  O   UNL     1       9.449  -1.863  21.629  0.00  0.00    -0.502 OA
ATOM     35  H   UNL     1       9.248  -2.716  21.183  0.00  0.00    +0.292 HD
ENDBRANCH   6  34
TORSDOF 7
ENDMDL
MODEL 8
REMARK VINA RESULT:      -7.2      4.733     10.254
REMARK  Name = 
REMARK  11 active torsions:
REMARK  status: ('A' for Active; 'I' for Inactive)
REMARK    1  A    between atoms: C_1  and  C_2
REMARK    2  A    between atoms: C_5  and  C_7
REMARK    3  A    between atoms: N_9  and  C_10
REMARK    4  A    between atoms: C_10  and  C_11
REMARK    5  A    between atoms: C_10  and  C_12
REMARK    6  A    between atoms: C_10  and  C_13
REMARK    7  A    between atoms: C_15  and  C_22
REMARK    8  A    between atoms: C_16  and  O_21
REMARK    9  A    between atoms: N_19  and  C_20
REMARK   10  A    between atoms: N_24  and  C_25
REMARK   11  A    between atoms: C_25  and  C_26
REMARK                            x       y       z     vdW  Elec       q    Type
REMARK                         _______ _______ _______ _____ _____    ______ ____
ROOT
ATOM      1  C   UNL     1       8.260   0.229  23.697  0.00  0.00    +0.045 A 
ATOM      2  N   UNL     1       9.380  -0.137  22.916  0.00  0.00    -0.310 N 
ATOM      3  C   UNL     1       9.982   0.726  21.920  0.00  0.00    +0.152 C 
ATOM      4  C   UNL     1       9.970  -1.404  23.014  0.00  0.00    +0.294 A 
ATOM      5  O   UNL     1      10.904  -1.819  22.322  0.00  0.00    -0.264 OA
ATOM      6  C   UNL     1       9.447  -2.357  24.034  0.00  0.00    +0.194 A 
ATOM      7  C   UNL     1       8.443  -1.973  24.832  0.00  0.00    +0.085 A 
ATOM      8  C   UNL     1       7.836  -0.672  24.619  0.00  0.00    +0.040 A 
ENDROOT
BRANCH   7   9
ATOM      9  C   UNL     1       7.858  -2.897  25.869  0.00  0.00    +0.248 C 
ATOM     10  N   UNL     1       7.690  -4.201  25.477  0.00  0.00    -0.307 N 
ATOM     11  H   UNL     1       7.911  -4.441  24.517  0.00  0.00    +0.149 HD
ATOM     12  O   UNL     1       7.585  -2.487  26.994  0.00  0.00    -0.270 OA
BRANCH  10  13
ATOM     13  C   UNL     1       7.034  -5.199  26.284  0.00  0.00    +0.139 C 
BRANCH  13  14
ATOM     14  C   UNL     1       5.868  -5.812  25.554  0.00  0.00    -0.030 A 
ATOM     15  C   UNL     1       4.948  -6.636  26.223  0.00  0.00    +0.008 A 
ATOM     16  C   UNL     1       3.849  -7.161  25.539  0.00  0.00    +0.038 A 
ATOM     17  C   UNL     1       3.669  -6.859  24.194  0.00  0.00    +0.123 A 
ATOM     18  F   UNL     1       2.607  -7.352  23.544  0.00  0.00    -0.205 F 
ATOM     19  C   UNL     1       4.568  -6.047  23.516  0.00  0.00    +0.038 A 
ATOM     20  C   UNL     1       5.666  -5.520  24.196  0.00  0.00    +0.008 A 
ENDBRANCH  13  14
ENDBRANCH  10  13
ENDBRANCH   7   9
BRANCH   1  21
ATOM     21  C   UNL     1       7.460   1.583  23.591  0.00  0.00    +0.070 C 
ATOM     22  C   UNL     1       6.641   1.624  22.276  0.00  0.00    +0.038 C 
ATOM     23  C   UNL     1       6.437   1.634  24.758  0.00  0.00    +0.038 C 
BRANCH  21  25
ATOM     24  C   UNL     1       7.873   4.125  23.541  0.00  0.00    +0.301 C 
ATOM     25  N   UNL     1       8.270   2.810  23.744  0.00  0.00    -0.297 N 
ATOM     26  H   UNL     1       9.222   2.693  24.078  0.00  0.00    +0.150 HD
ATOM     27  O   UNL     1       6.763   4.428  23.099  0.00  0.00    -0.265 OA
BRANCH  24  31
ATOM     28  C   UNL     1      12.272   6.068  24.091  0.00  0.00    +0.111 C 
ATOM     29  C   UNL     1      10.801   5.996  24.130  0.00  0.00    +0.215 A 
ATOM     30  O   UNL     1      10.221   4.834  23.698  0.00  0.00    -0.417 OA
ATOM     31  C   UNL     1       8.886   5.112  23.871  0.00  0.00    +0.304 A 
ATOM     32  N   UNL     1       8.675   6.317  24.362  0.00  0.00    -0.102 NA
ATOM     33  N   UNL     1       9.921   6.891  24.529  0.00  0.00    -0.112 NA
ENDBRANCH  24  31
ENDBRANCH  21  25
ENDBRANCH   1  21
BRANCH   6  34
ATOM     34  O   UNL     1      10.035  -3.615  24.074  0.00  0.00    -0.502 OA
ATOM     35  H   UNL     1      10.923  -3.479  23.673  0.00  0.00    +0.292 HD
ENDBRANCH   6  34
TORSDOF 7
ENDMDL
MODEL 9
REMARK VINA RESULT:      -7.2      2.685      4.322
REMARK  Name = 
REMARK  11 active torsions:
REMARK  status: ('A' for Active; 'I' for Inactive)
REMARK    1  A    between atoms: C_1  and  C_2
REMARK    2  A    between atoms: C_5  and  C_7
REMARK    3  A    between atoms: N_9  and  C_10
REMARK    4  A    between atoms: C_10  and  C_11
REMARK    5  A    between atoms: C_10  and  C_12
REMARK    6  A    between atoms: C_10  and  C_13
REMARK    7  A    between atoms: C_15  and  C_22
REMARK    8  A    between atoms: C_16  and  O_21
REMARK    9  A    between atoms: N_19  and  C_20
REMARK   10  A    between atoms: N_24  and  C_25
REMARK   11  A    between atoms: C_25  and  C_26
REMARK                            x       y       z     vdW  Elec       q    Type
REMARK                         _______ _______ _______ _____ _____    ______ ____
ROOT
ATOM      1  C   UNL     1       7.333  -2.604  24.946  0.00  0.00    +0.045 A 
ATOM      2  N   UNL     1       8.521  -3.220  24.491  0.00  0.00    -0.310 N 
ATOM      3  C   UNL     1       8.903  -4.577  24.828  0.00  0.00    +0.152 C 
ATOM      4  C   UNL     1       9.458  -2.535  23.707  0.00  0.00    +0.294 A 
ATOM      5  O   UNL     1      10.544  -2.981  23.328  0.00  0.00    -0.264 OA
ATOM      6  C   UNL     1       9.145  -1.143  23.275  0.00  0.00    +0.194 A 
ATOM      7  C   UNL     1       7.977  -0.595  23.636  0.00  0.00    +0.085 A 
ATOM      8  C   UNL     1       7.092  -1.341  24.511  0.00  0.00    +0.040 A 
ENDROOT
BRANCH   7   9
ATOM      9  C   UNL     1       7.611   0.814  23.247  0.00  0.00    +0.248 C 
ATOM     10  N   UNL     1       8.301   1.808  23.893  0.00  0.00    -0.307 N 
ATOM     11  H   UNL     1       8.958   1.538  24.616  0.00  0.00    +0.149 HD
ATOM     12  O   UNL     1       6.764   1.028  22.384  0.00  0.00    -0.270 OA
BRANCH  10  13
ATOM     13  C   UNL     1       8.005   3.211  23.746  0.00  0.00    +0.139 C 
BRANCH  13  14
ATOM     14  C   UNL     1       9.266   4.030  23.660  0.00  0.00    -0.030 A 
ATOM     15  C   UNL     1       9.243   5.419  23.874  0.00  0.00    +0.008 A 
ATOM     16  C   UNL     1      10.428   6.155  23.832  0.00  0.00    +0.038 A 
ATOM     17  C   UNL     1      11.632   5.505  23.583  0.00  0.00    +0.123 A 
ATOM     18  F   UNL     1      12.770   6.213  23.557  0.00  0.00    -0.205 F 
ATOM     19  C   UNL     1      11.675   4.134  23.368  0.00  0.00    +0.038 A 
ATOM     20  C   UNL     1      10.493   3.396  23.411  0.00  0.00    +0.008 A 
ENDBRANCH  13  14
ENDBRANCH  10  13
ENDBRANCH   7   9
BRANCH   1  21
ATOM     21  C   UNL     1       6.269  -3.248  25.914  0.00  0.00    +0.070 C 
ATOM     22  C   UNL     1       6.964  -3.823  27.175  0.00  0.00    +0.038 C 
ATOM     23  C   UNL     1       5.314  -2.124  26.402  0.00  0.00    +0.038 C 
BRANCH  21  25
ATOM     24  C   UNL     1       5.432  -5.637  25.438  0.00  0.00    +0.301 C 
ATOM     25  N   UNL     1       5.381  -4.257  25.299  0.00  0.00    -0.297 N 
ATOM     26  H   UNL     1       4.610  -3.908  24.736  0.00  0.00    +0.150 HD
ATOM     27  O   UNL     1       6.328  -6.214  26.055  0.00  0.00    -0.265 OA
BRANCH  24  31
ATOM     28  C   UNL     1       1.552  -6.342  22.630  0.00  0.00    +0.111 C 
ATOM     29  C   UNL     1       2.645  -6.690  23.555  0.00  0.00    +0.215 A 
ATOM     30  O   UNL     1       3.483  -5.680  23.940  0.00  0.00    -0.417 OA
ATOM     31  C   UNL     1       4.350  -6.345  24.775  0.00  0.00    +0.304 A 
ATOM     32  N   UNL     1       4.066  -7.626  24.890  0.00  0.00    -0.102 NA
ATOM     33  N   UNL     1       2.957  -7.850  24.095  0.00  0.00    -0.112 NA
ENDBRANCH  24  31
ENDBRANCH  21  25
ENDBRANCH   1  21
BRANCH   6  34
ATOM     34  O   UNL     1      10.115  -0.486  22.530  0.00  0.00    -0.502 OA
ATOM     35  H   UNL     1      10.327  -1.113  21.803  0.00  0.00    +0.292 HD
ENDBRANCH   6  34
TORSDOF 7
ENDMDL
