MODEL 1
REMARK VINA RESULT:      -6.6      0.000      0.000
REMARK  Name = 
REMARK  11 active torsions:
REMARK  status: ('A' for Active; 'I' for Inactive)
REMARK    1  A    between atoms: C_1  and  C_2
REMARK    2  A    between atoms: N_4  and  C_5
REMARK    3  A    between atoms: C_6  and  C_19
REMARK    4  A    between atoms: C_8  and  C_16
REMARK    5  A    between atoms: C_10  and  N_12
REMARK    6  A    between atoms: C_16  and  O_18
REMARK    7  A    between atoms: C_19  and  C_21
REMARK    8  A    between atoms: C_19  and  O_26
REMARK    9  A    between atoms: C_21  and  C_23
REMARK   10  A    between atoms: C_21  and  O_25
REMARK   11  A    between atoms: C_23  and  O_24
REMARK                            x       y       z     vdW  Elec       q    Type
REMARK                         _______ _______ _______ _____ _____    ______ ____
ROOT
ATOM      1  C   UNL     1       8.104  -2.465  24.133  0.00  0.00    +0.096 C 
ATOM      2  C   UNL     1       8.171  -3.993  24.146  0.00  0.00    +0.262 C 
ATOM      3  C   UNL     1       7.308  -4.586  23.075  0.00  0.00    +0.076 C 
ATOM      4  C   UNL     1       6.846  -3.841  22.059  0.00  0.00    +0.211 C 
ATOM      5  O   UNL     1       7.129  -2.489  21.944  0.00  0.00    -0.449 OA
ATOM      6  C   UNL     1       7.688  -1.811  23.027  0.00  0.00    +0.158 C 
ENDROOT
BRANCH   2   7
ATOM      7  N   UNL     1       7.737  -4.547  25.426  0.00  0.00    -0.100 NA
ATOM      8  C   UNL     1       8.488  -5.378  26.045  0.00  0.00    +0.377 C 
ATOM      9  N   UNL     1       8.097  -5.892  27.231  0.00  0.00    -0.289 N 
ATOM     10  H   UNL     1       8.811  -5.858  27.949  0.00  0.00    +0.255 HD
ATOM     11  H   UNL     1       7.246  -5.442  27.558  0.00  0.00    +0.255 HD
ATOM     12  N   UNL     1       9.707  -5.868  25.715  0.00  0.00    -0.289 N 
ATOM     13  H   UNL     1       9.902  -6.750  26.179  0.00  0.00    +0.255 HD
ATOM     14  H   UNL     1       9.878  -5.965  24.723  0.00  0.00    +0.255 HD
ENDBRANCH   2   7
BRANCH   1  17
ATOM     15  C   UNL     1       6.253  -1.262  26.009  0.00  0.00    +0.109 C 
ATOM     16  C   UNL     1       7.746  -1.297  26.238  0.00  0.00    +0.214 C 
ATOM     17  N   UNL     1       8.573  -1.785  25.244  0.00  0.00    -0.283 N 
ATOM     18  H   UNL     1       9.348  -2.224  25.741  0.00  0.00    +0.155 HD
ATOM     19  O   UNL     1       8.240  -0.907  27.296  0.00  0.00    -0.276 OA
ENDBRANCH   1  17
BRANCH   4  20
ATOM     20  C   UNL     1       6.037  -4.468  20.981  0.00  0.00    +0.372 C 
ATOM     21  O   UNL     1       5.789  -3.953  19.905  0.00  0.00    -0.242 OA
BRANCH  20  22
ATOM     22  O   UNL     1       5.595  -5.700  21.340  0.00  0.00    -0.475 OA
ATOM     23  H   UNL     1       5.741  -5.885  22.292  0.00  0.00    +0.296 HD
ENDBRANCH  20  22
ENDBRANCH   4  20
BRANCH   6  24
ATOM     24  C   UNL     1       7.874  -0.327  22.778  0.00  0.00    +0.212 C 
BRANCH  24  25
ATOM     25  O   UNL     1       6.617   0.249  22.402  0.00  0.00    -0.381 OA
ATOM     26  H   UNL     1       5.920  -0.338  22.742  0.00  0.00    +0.210 HD
ENDBRANCH  24  25
BRANCH  24  27
ATOM     27  C   UNL     1       8.930  -0.060  21.668  0.00  0.00    +0.176 C 
BRANCH  27  28
ATOM     28  O   UNL     1       9.599  -1.276  21.268  0.00  0.00    -0.387 OA
ATOM     29  H   UNL     1       9.082  -1.683  20.556  0.00  0.00    +0.210 HD
ENDBRANCH  27  28
BRANCH  27  30
ATOM     30  C   UNL     1      10.029   0.930  22.076  0.00  0.00    +0.190 C 
BRANCH  30  31
ATOM     31  O   UNL     1       9.819   2.173  21.400  0.00  0.00    -0.392 OA
ATOM     32  H   UNL     1      10.627   2.693  21.586  0.00  0.00    +0.210 HD
ENDBRANCH  30  31
ENDBRANCH  27  30
ENDBRANCH  24  27
ENDBRANCH   6  24
TORSDOF 10
ENDMDL
MODEL 2
REMARK VINA RESULT:      -6.4      2.655      5.310
REMARK  Name = 
REMARK  11 active torsions:
REMARK  status: ('A' for Active; 'I' for Inactive)
REMARK    1  A    between atoms: C_1  and  C_2
REMARK    2  A    between atoms: N_4  and  C_5
REMARK    3  A    between atoms: C_6  and  C_19
REMARK    4  A    between atoms: C_8  and  C_16
REMARK    5  A    between atoms: C_10  and  N_12
REMARK    6  A    between atoms: C_16  and  O_18
REMARK    7  A    between atoms: C_19  and  C_21
REMARK    8  A    between atoms: C_19  and  O_26
REMARK    9  A    between atoms: C_21  and  C_23
REMARK   10  A    between atoms: C_21  and  O_25
REMARK   11  A    between atoms: C_23  and  O_24
REMARK                            x       y       z     vdW  Elec       q    Type
REMARK                         _______ _______ _______ _____ _____    ______ ____
ROOT
ATOM      1  C   UNL     1       8.101  -3.090  24.403  0.00  0.00    +0.096 C 
ATOM      2  C   UNL     1       7.694  -2.460  23.071  0.00  0.00    +0.262 C 
ATOM      3  C   UNL     1       7.208  -3.495  22.104  0.00  0.00    +0.076 C 
ATOM      4  C   UNL     1       6.868  -4.727  22.513  0.00  0.00    +0.211 C 
ATOM      5  O   UNL     1       6.951  -5.115  23.842  0.00  0.00    -0.449 OA
ATOM      6  C   UNL     1       7.641  -4.312  24.749  0.00  0.00    +0.158 C 
ENDROOT
BRANCH   2   7
ATOM      7  N   UNL     1       8.803  -1.748  22.442  0.00  0.00    -0.100 NA
ATOM      8  C   UNL     1       8.723  -0.484  22.258  0.00  0.00    +0.377 C 
ATOM      9  N   UNL     1       9.746   0.184  21.682  0.00  0.00    -0.289 N 
ATOM     10  H   UNL     1      10.016   1.026  22.175  0.00  0.00    +0.255 HD
ATOM     11  H   UNL     1      10.550  -0.425  21.555  0.00  0.00    +0.255 HD
ATOM     12  N   UNL     1       7.731   0.384  22.572  0.00  0.00    -0.289 N 
ATOM     13  H   UNL     1       7.769   1.227  22.007  0.00  0.00    +0.255 HD
ATOM     14  H   UNL     1       6.796  -0.001  22.539  0.00  0.00    +0.255 HD
ENDBRANCH   2   7
BRANCH   1  17
ATOM     15  C   UNL     1       6.889  -0.966  25.958  0.00  0.00    +0.109 C 
ATOM     16  C   UNL     1       8.328  -1.391  26.132  0.00  0.00    +0.214 C 
ATOM     17  N   UNL     1       8.866  -2.331  25.274  0.00  0.00    -0.283 N 
ATOM     18  H   UNL     1       9.539  -2.847  25.840  0.00  0.00    +0.155 HD
ATOM     19  O   UNL     1       9.030  -0.920  27.028  0.00  0.00    -0.276 OA
ENDBRANCH   1  17
BRANCH   4  20
ATOM     20  C   UNL     1       6.338  -5.718  21.540  0.00  0.00    +0.372 C 
ATOM     21  O   UNL     1       5.963  -5.455  20.410  0.00  0.00    -0.242 OA
BRANCH  20  22
ATOM     22  O   UNL     1       6.315  -6.970  22.063  0.00  0.00    -0.475 OA
ATOM     23  H   UNL     1       6.185  -6.964  23.035  0.00  0.00    +0.296 HD
ENDBRANCH  20  22
ENDBRANCH   4  20
BRANCH   6  24
ATOM     24  C   UNL     1       7.709  -4.900  26.144  0.00  0.00    +0.212 C 
BRANCH  24  25
ATOM     25  O   UNL     1       8.712  -5.923  26.177  0.00  0.00    -0.381 OA
ATOM     26  H   UNL     1       9.522  -5.518  26.529  0.00  0.00    +0.210 HD
ENDBRANCH  24  25
BRANCH  24  27
ATOM     27  C   UNL     1       6.339  -5.490  26.585  0.00  0.00    +0.176 C 
BRANCH  27  28
ATOM     28  O   UNL     1       5.241  -4.645  26.174  0.00  0.00    -0.387 OA
ATOM     29  H   UNL     1       4.849  -4.254  26.970  0.00  0.00    +0.210 HD
ENDBRANCH  27  28
BRANCH  27  30
ATOM     30  C   UNL     1       6.199  -5.682  28.101  0.00  0.00    +0.190 C 
BRANCH  30  31
ATOM     31  O   UNL     1       7.227  -6.563  28.561  0.00  0.00    -0.392 OA
ATOM     32  H   UNL     1       7.739  -6.030  29.203  0.00  0.00    +0.210 HD
ENDBRANCH  30  31
ENDBRANCH  27  30
ENDBRANCH  24  27
ENDBRANCH   6  24
TORSDOF 10
ENDMDL
MODEL 3
REMARK VINA RESULT:      -6.1      1.957      5.144
REMARK  Name = 
REMARK  11 active torsions:
REMARK  status: ('A' for Active; 'I' for Inactive)
REMARK    1  A    between atoms: C_1  and  C_2
REMARK    2  A    between atoms: N_4  and  C_5
REMARK    3  A    between atoms: C_6  and  C_19
REMARK    4  A    between atoms: C_8  and  C_16
REMARK    5  A    between atoms: C_10  and  N_12
REMARK    6  A    between atoms: C_16  and  O_18
REMARK    7  A    between atoms: C_19  and  C_21
REMARK    8  A    between atoms: C_19  and  O_26
REMARK    9  A    between atoms: C_21  and  C_23
REMARK   10  A    between atoms: C_21  and  O_25
REMARK   11  A    between atoms: C_23  and  O_24
REMARK                            x       y       z     vdW  Elec       q    Type
REMARK                         _______ _______ _______ _____ _____    ______ ____
ROOT
ATOM      1  C   UNL     1       7.237  -2.680  24.811  0.00  0.00    +0.096 C 
ATOM      2  C   UNL     1       7.431  -1.181  25.037  0.00  0.00    +0.262 C 
ATOM      3  C   UNL     1       8.370  -0.594  24.029  0.00  0.00    +0.076 C 
ATOM      4  C   UNL     1       8.688  -1.254  22.904  0.00  0.00    +0.211 C 
ATOM      5  O   UNL     1       8.177  -2.511  22.614  0.00  0.00    -0.449 OA
ATOM      6  C   UNL     1       7.523  -3.232  23.612  0.00  0.00    +0.158 C 
ENDROOT
BRANCH   2   7
ATOM      7  N   UNL     1       7.966  -0.893  26.365  0.00  0.00    -0.100 NA
ATOM      8  C   UNL     1       7.543   0.126  27.013  0.00  0.00    +0.377 C 
ATOM      9  N   UNL     1       8.029   0.397  28.244  0.00  0.00    -0.289 N 
ATOM     10  H   UNL     1       7.314   0.596  28.933  0.00  0.00    +0.255 HD
ATOM     11  H   UNL     1       8.634  -0.354  28.568  0.00  0.00    +0.255 HD
ATOM     12  N   UNL     1       6.613   1.051  26.676  0.00  0.00    -0.289 N 
ATOM     13  H   UNL     1       6.732   1.918  27.192  0.00  0.00    +0.255 HD
ATOM     14  H   UNL     1       6.545   1.255  25.688  0.00  0.00    +0.255 HD
ENDBRANCH   2   7
BRANCH   1  17
ATOM     15  C   UNL     1       8.892  -4.353  26.502  0.00  0.00    +0.109 C 
ATOM     16  C   UNL     1       7.417  -4.141  26.750  0.00  0.00    +0.214 C 
ATOM     17  N   UNL     1       6.671  -3.423  25.834  0.00  0.00    -0.283 N 
ATOM     18  H   UNL     1       5.962  -2.947  26.391  0.00  0.00    +0.155 HD
ATOM     19  O   UNL     1       6.867  -4.589  27.757  0.00  0.00    -0.276 OA
ENDBRANCH   1  17
BRANCH   4  20
ATOM     20  C   UNL     1       9.579  -0.625  21.895  0.00  0.00    +0.372 C 
ATOM     21  O   UNL     1       9.444   0.501  21.449  0.00  0.00    -0.242 OA
BRANCH  20  22
ATOM     22  O   UNL     1      10.577  -1.464  21.518  0.00  0.00    -0.475 OA
ATOM     23  H   UNL     1      10.808  -2.108  22.220  0.00  0.00    +0.296 HD
ENDBRANCH  20  22
ENDBRANCH   4  20
BRANCH   6  24
ATOM     24  C   UNL     1       7.086  -4.614  23.168  0.00  0.00    +0.212 C 
BRANCH  24  25
ATOM     25  O   UNL     1       8.183  -5.524  23.311  0.00  0.00    -0.381 OA
ATOM     26  H   UNL     1       8.485  -5.750  22.415  0.00  0.00    +0.210 HD
ENDBRANCH  24  25
BRANCH  24  27
ATOM     27  C   UNL     1       6.589  -4.612  21.695  0.00  0.00    +0.176 C 
BRANCH  27  28
ATOM     28  O   UNL     1       5.544  -3.636  21.488  0.00  0.00    -0.387 OA
ATOM     29  H   UNL     1       4.903  -4.011  20.864  0.00  0.00    +0.210 HD
ENDBRANCH  27  28
BRANCH  27  30
ATOM     30  C   UNL     1       6.029  -5.960  21.222  0.00  0.00    +0.190 C 
BRANCH  30  31
ATOM     31  O   UNL     1       5.741  -6.777  22.360  0.00  0.00    -0.392 OA
ATOM     32  H   UNL     1       6.610  -6.921  22.785  0.00  0.00    +0.210 HD
ENDBRANCH  30  31
ENDBRANCH  27  30
ENDBRANCH  24  27
ENDBRANCH   6  24
TORSDOF 10
ENDMDL
MODEL 4
REMARK VINA RESULT:      -6.1      2.695      5.202
REMARK  Name = 
REMARK  11 active torsions:
REMARK  status: ('A' for Active; 'I' for Inactive)
REMARK    1  A    between atoms: C_1  and  C_2
REMARK    2  A    between atoms: N_4  and  C_5
REMARK    3  A    between atoms: C_6  and  C_19
REMARK    4  A    between atoms: C_8  and  C_16
REMARK    5  A    between atoms: C_10  and  N_12
REMARK    6  A    between atoms: C_16  and  O_18
REMARK    7  A    between atoms: C_19  and  C_21
REMARK    8  A    between atoms: C_19  and  O_26
REMARK    9  A    between atoms: C_21  and  C_23
REMARK   10  A    between atoms: C_21  and  O_25
REMARK   11  A    between atoms: C_23  and  O_24
REMARK                            x       y       z     vdW  Elec       q    Type
REMARK                         _______ _______ _______ _____ _____    ______ ____
ROOT
ATOM      1  C   UNL     1       8.086  -2.416  24.168  0.00  0.00    +0.096 C 
ATOM      2  C   UNL     1       6.851  -1.912  23.420  0.00  0.00    +0.262 C 
ATOM      3  C   UNL     1       6.285  -2.971  22.526  0.00  0.00    +0.076 C 
ATOM      4  C   UNL     1       6.634  -4.260  22.663  0.00  0.00    +0.211 C 
ATOM      5  O   UNL     1       7.536  -4.684  23.628  0.00  0.00    -0.449 OA
ATOM      6  C   UNL     1       8.304  -3.741  24.309  0.00  0.00    +0.158 C 
ENDROOT
BRANCH   2   7
ATOM      7  N   UNL     1       7.151  -0.745  22.594  0.00  0.00    -0.100 NA
ATOM      8  C   UNL     1       6.699   0.404  22.931  0.00  0.00    +0.377 C 
ATOM      9  N   UNL     1       6.975   1.489  22.176  0.00  0.00    -0.289 N 
ATOM     10  H   UNL     1       7.297   2.288  22.708  0.00  0.00    +0.255 HD
ATOM     11  H   UNL     1       7.643   1.261  21.443  0.00  0.00    +0.255 HD
ATOM     12  N   UNL     1       5.946   0.769  23.996  0.00  0.00    -0.289 N 
ATOM     13  H   UNL     1       5.443   1.635  23.829  0.00  0.00    +0.255 HD
ATOM     14  H   UNL     1       5.301   0.064  24.330  0.00  0.00    +0.255 HD
ENDBRANCH   2   7
BRANCH   1  17
ATOM     15  C   UNL     1      10.506  -1.517  22.853  0.00  0.00    +0.109 C 
ATOM     16  C   UNL     1      10.005  -0.918  24.147  0.00  0.00    +0.214 C 
ATOM     17  N   UNL     1       8.907  -1.478  24.772  0.00  0.00    -0.283 N 
ATOM     18  H   UNL     1       8.433  -0.694  25.220  0.00  0.00    +0.155 HD
ATOM     19  O   UNL     1      10.551   0.064  24.651  0.00  0.00    -0.276 OA
ENDBRANCH   1  17
BRANCH   4  20
ATOM     20  C   UNL     1       6.015  -5.298  21.798  0.00  0.00    +0.372 C 
ATOM     21  O   UNL     1       5.970  -5.256  20.581  0.00  0.00    -0.242 OA
BRANCH  20  22
ATOM     22  O   UNL     1       5.493  -6.314  22.530  0.00  0.00    -0.475 OA
ATOM     23  H   UNL     1       6.176  -6.786  23.052  0.00  0.00    +0.296 HD
ENDBRANCH  20  22
ENDBRANCH   4  20
BRANCH   6  24
ATOM     24  C   UNL     1       9.294  -4.357  25.278  0.00  0.00    +0.212 C 
BRANCH  24  25
ATOM     25  O   UNL     1       9.917  -5.489  24.659  0.00  0.00    -0.381 OA
ATOM     26  H   UNL     1      10.392  -5.162  23.876  0.00  0.00    +0.210 HD
ENDBRANCH  24  25
BRANCH  24  27
ATOM     27  C   UNL     1       8.605  -4.793  26.602  0.00  0.00    +0.176 C 
BRANCH  27  28
ATOM     28  O   UNL     1       8.192  -6.176  26.556  0.00  0.00    -0.387 OA
ATOM     29  H   UNL     1       8.978  -6.718  26.384  0.00  0.00    +0.210 HD
ENDBRANCH  27  28
BRANCH  27  30
ATOM     30  C   UNL     1       7.356  -3.975  26.955  0.00  0.00    +0.190 C 
BRANCH  30  31
ATOM     31  O   UNL     1       6.592  -4.680  27.938  0.00  0.00    -0.392 OA
ATOM     32  H   UNL     1       7.113  -5.489  28.119  0.00  0.00    +0.210 HD
ENDBRANCH  30  31
ENDBRANCH  27  30
ENDBRANCH  24  27
ENDBRANCH   6  24
TORSDOF 10
ENDMDL
MODEL 5
REMARK VINA RESULT:      -6.1      3.902      7.104
REMARK  Name = 
REMARK  11 active torsions:
REMARK  status: ('A' for Active; 'I' for Inactive)
REMARK    1  A    between atoms: C_1  and  C_2
REMARK    2  A    between atoms: N_4  and  C_5
REMARK    3  A    between atoms: C_6  and  C_19
REMARK    4  A    between atoms: C_8  and  C_16
REMARK    5  A    between atoms: C_10  and  N_12
REMARK    6  A    between atoms: C_16  and  O_18
REMARK    7  A    between atoms: C_19  and  C_21
REMARK    8  A    between atoms: C_19  and  O_26
REMARK    9  A    between atoms: C_21  and  C_23
REMARK   10  A    between atoms: C_21  and  O_25
REMARK   11  A    between atoms: C_23  and  O_24
REMARK                            x       y       z     vdW  Elec       q    Type
REMARK                         _______ _______ _______ _____ _____    ______ ____
ROOT
ATOM      1  C   UNL     1       5.426  -5.153  24.177  0.00  0.00    +0.096 C 
ATOM      2  C   UNL     1       6.631  -5.034  25.110  0.00  0.00    +0.262 C 
ATOM      3  C   UNL     1       6.338  -5.613  26.459  0.00  0.00    +0.076 C 
ATOM      4  C   UNL     1       5.285  -6.421  26.657  0.00  0.00    +0.211 C 
ATOM      5  O   UNL     1       4.408  -6.758  25.637  0.00  0.00    -0.449 OA
ATOM      6  C   UNL     1       4.452  -6.054  24.435  0.00  0.00    +0.158 C 
ENDROOT
BRANCH   2   7
ATOM      7  N   UNL     1       7.038  -3.643  25.300  0.00  0.00    -0.100 NA
ATOM      8  C   UNL     1       8.259  -3.308  25.115  0.00  0.00    +0.377 C 
ATOM      9  N   UNL     1       8.642  -2.024  25.285  0.00  0.00    -0.289 N 
ATOM     10  H   UNL     1       9.207  -1.661  24.526  0.00  0.00    +0.255 HD
ATOM     11  H   UNL     1       7.838  -1.423  25.445  0.00  0.00    +0.255 HD
ATOM     12  N   UNL     1       9.322  -4.056  24.735  0.00  0.00    -0.289 N 
ATOM     13  H   UNL     1      10.204  -3.633  25.011  0.00  0.00    +0.255 HD
ATOM     14  H   UNL     1       9.302  -5.020  25.040  0.00  0.00    +0.255 HD
ENDBRANCH   2   7
BRANCH   1  17
ATOM     15  C   UNL     1       7.006  -5.938  21.879  0.00  0.00    +0.109 C 
ATOM     16  C   UNL     1       6.048  -4.770  21.855  0.00  0.00    +0.214 C 
ATOM     17  N   UNL     1       5.417  -4.387  23.024  0.00  0.00    -0.283 N 
ATOM     18  H   UNL     1       4.505  -4.040  22.727  0.00  0.00    +0.155 HD
ATOM     19  O   UNL     1       5.812  -4.157  20.814  0.00  0.00    -0.276 OA
ENDBRANCH   1  17
BRANCH   4  20
ATOM     20  C   UNL     1       5.049  -7.026  27.994  0.00  0.00    +0.372 C 
ATOM     21  O   UNL     1       5.924  -7.376  28.767  0.00  0.00    -0.242 OA
BRANCH  20  22
ATOM     22  O   UNL     1       3.724  -7.151  28.260  0.00  0.00    -0.475 OA
ATOM     23  H   UNL     1       3.172  -6.593  27.671  0.00  0.00    +0.296 HD
ENDBRANCH  20  22
ENDBRANCH   4  20
BRANCH   6  24
ATOM     24  C   UNL     1       3.388  -6.486  23.444  0.00  0.00    +0.212 C 
BRANCH  24  25
ATOM     25  O   UNL     1       2.768  -5.323  22.882  0.00  0.00    -0.381 OA
ATOM     26  H   UNL     1       1.923  -5.608  22.496  0.00  0.00    +0.210 HD
ENDBRANCH  24  25
BRANCH  24  27
ATOM     27  C   UNL     1       2.312  -7.386  24.115  0.00  0.00    +0.176 C 
BRANCH  27  28
ATOM     28  O   UNL     1       2.861  -8.661  24.516  0.00  0.00    -0.387 OA
ATOM     29  H   UNL     1       3.340  -8.533  25.350  0.00  0.00    +0.210 HD
ENDBRANCH  27  28
BRANCH  27  30
ATOM     30  C   UNL     1       1.106  -7.692  23.218  0.00  0.00    +0.190 C 
BRANCH  30  31
ATOM     31  O   UNL     1       1.560  -7.939  21.884  0.00  0.00    -0.392 OA
ATOM     32  H   UNL     1       2.474  -8.272  21.994  0.00  0.00    +0.210 HD
ENDBRANCH  30  31
ENDBRANCH  27  30
ENDBRANCH  24  27
ENDBRANCH   6  24
TORSDOF 10
ENDMDL
MODEL 6
REMARK VINA RESULT:      -5.9      3.689      5.820
REMARK  Name = 
REMARK  11 active torsions:
REMARK  status: ('A' for Active; 'I' for Inactive)
REMARK    1  A    between atoms: C_1  and  C_2
REMARK    2  A    between atoms: N_4  and  C_5
REMARK    3  A    between atoms: C_6  and  C_19
REMARK    4  A    between atoms: C_8  and  C_16
REMARK    5  A    between atoms: C_10  and  N_12
REMARK    6  A    between atoms: C_16  and  O_18
REMARK    7  A    between atoms: C_19  and  C_21
REMARK    8  A    between atoms: C_19  and  O_26
REMARK    9  A    between atoms: C_21  and  C_23
REMARK   10  A    between atoms: C_21  and  O_25
REMARK   11  A    between atoms: C_23  and  O_24
REMARK                            x       y       z     vdW  Elec       q    Type
REMARK                         _______ _______ _______ _____ _____    ______ ____
ROOT
ATOM      1  C   UNL     1       6.107  -5.626  24.232  0.00  0.00    +0.096 C 
ATOM      2  C   UNL     1       4.786  -5.804  24.981  0.00  0.00    +0.262 C 
ATOM      3  C   UNL     1       5.012  -5.994  26.449  0.00  0.00    +0.076 C 
ATOM      4  C   UNL     1       6.190  -5.693  27.018  0.00  0.00    +0.211 C 
ATOM      5  O   UNL     1       7.260  -5.198  26.288  0.00  0.00    -0.449 OA
ATOM      6  C   UNL     1       7.221  -5.249  24.895  0.00  0.00    +0.158 C 
ENDROOT
BRANCH   2   7
ATOM      7  N   UNL     1       4.032  -6.956  24.493  0.00  0.00    -0.100 NA
ATOM      8  C   UNL     1       2.992  -6.774  23.770  0.00  0.00    +0.377 C 
ATOM      9  N   UNL     1       2.292  -7.833  23.311  0.00  0.00    -0.289 N 
ATOM     10  H   UNL     1       2.071  -7.783  22.323  0.00  0.00    +0.255 HD
ATOM     11  H   UNL     1       2.772  -8.705  23.521  0.00  0.00    +0.255 HD
ATOM     12  N   UNL     1       2.423  -5.626  23.331  0.00  0.00    -0.289 N 
ATOM     13  H   UNL     1       1.443  -5.751  23.096  0.00  0.00    +0.255 HD
ATOM     14  H   UNL     1       2.521  -4.832  23.950  0.00  0.00    +0.255 HD
ENDBRANCH   2   7
BRANCH   1  17
ATOM     15  C   UNL     1       5.280  -3.427  22.536  0.00  0.00    +0.109 C 
ATOM     16  C   UNL     1       5.833  -4.721  21.988  0.00  0.00    +0.214 C 
ATOM     17  N   UNL     1       6.096  -5.766  22.854  0.00  0.00    -0.283 N 
ATOM     18  H   UNL     1       6.901  -6.244  22.449  0.00  0.00    +0.155 HD
ATOM     19  O   UNL     1       6.061  -4.862  20.786  0.00  0.00    -0.276 OA
ENDBRANCH   1  17
BRANCH   4  20
ATOM     20  C   UNL     1       6.369  -5.840  28.486  0.00  0.00    +0.372 C 
ATOM     21  O   UNL     1       5.824  -5.150  29.329  0.00  0.00    -0.242 OA
BRANCH  20  22
ATOM     22  O   UNL     1       7.228  -6.848  28.786  0.00  0.00    -0.475 OA
ATOM     23  H   UNL     1       7.153  -7.134  29.721  0.00  0.00    +0.296 HD
ENDBRANCH  20  22
ENDBRANCH   4  20
BRANCH   6  24
ATOM     24  C   UNL     1       8.489  -4.740  24.238  0.00  0.00    +0.212 C 
BRANCH  24  25
ATOM     25  O   UNL     1       9.548  -5.678  24.468  0.00  0.00    -0.381 OA
ATOM     26  H   UNL     1       9.208  -6.348  25.084  0.00  0.00    +0.210 HD
ENDBRANCH  24  25
BRANCH  24  27
ATOM     27  C   UNL     1       8.895  -3.342  24.783  0.00  0.00    +0.176 C 
BRANCH  27  28
ATOM     28  O   UNL     1       7.739  -2.510  25.026  0.00  0.00    -0.387 OA
ATOM     29  H   UNL     1       6.946  -3.032  24.825  0.00  0.00    +0.210 HD
ENDBRANCH  27  28
BRANCH  27  30
ATOM     30  C   UNL     1       9.815  -2.548  23.845  0.00  0.00    +0.190 C 
BRANCH  30  31
ATOM     31  O   UNL     1       9.209  -1.287  23.548  0.00  0.00    -0.392 OA
ATOM     32  H   UNL     1       9.147  -1.269  22.571  0.00  0.00    +0.210 HD
ENDBRANCH  30  31
ENDBRANCH  27  30
ENDBRANCH  24  27
ENDBRANCH   6  24
TORSDOF 10
ENDMDL
MODEL 7
REMARK VINA RESULT:      -5.8      1.376      1.864
REMARK  Name = 
REMARK  11 active torsions:
REMARK  status: ('A' for Active; 'I' for Inactive)
REMARK    1  A    between atoms: C_1  and  C_2
REMARK    2  A    between atoms: N_4  and  C_5
REMARK    3  A    between atoms: C_6  and  C_19
REMARK    4  A    between atoms: C_8  and  C_16
REMARK    5  A    between atoms: C_10  and  N_12
REMARK    6  A    between atoms: C_16  and  O_18
REMARK    7  A    between atoms: C_19  and  C_21
REMARK    8  A    between atoms: C_19  and  O_26
REMARK    9  A    between atoms: C_21  and  C_23
REMARK   10  A    between atoms: C_21  and  O_25
REMARK   11  A    between atoms: C_23  and  O_24
REMARK                            x       y       z     vdW  Elec       q    Type
REMARK                         _______ _______ _______ _____ _____    ______ ____
ROOT
ATOM      1  C   UNL     1       8.173  -3.372  24.608  0.00  0.00    +0.096 C 
ATOM      2  C   UNL     1       7.399  -4.598  25.092  0.00  0.00    +0.262 C 
ATOM      3  C   UNL     1       6.504  -5.137  24.019  0.00  0.00    +0.076 C 
ATOM      4  C   UNL     1       6.658  -4.777  22.735  0.00  0.00    +0.211 C 
ATOM      5  O   UNL     1       7.642  -3.887  22.330  0.00  0.00    -0.449 OA
ATOM      6  C   UNL     1       8.329  -3.142  23.286  0.00  0.00    +0.158 C 
ENDROOT
BRANCH   2   7
ATOM      7  N   UNL     1       6.569  -4.296  26.255  0.00  0.00    -0.100 NA
ATOM      8  C   UNL     1       6.667  -5.016  27.309  0.00  0.00    +0.377 C 
ATOM      9  N   UNL     1       5.906  -4.742  28.390  0.00  0.00    -0.289 N 
ATOM     10  H   UNL     1       6.424  -4.720  29.261  0.00  0.00    +0.255 HD
ATOM     11  H   UNL     1       5.394  -3.872  28.263  0.00  0.00    +0.255 HD
ATOM     12  N   UNL     1       7.463  -6.080  27.569  0.00  0.00    -0.289 N 
ATOM     13  H   UNL     1       7.091  -6.663  28.313  0.00  0.00    +0.255 HD
ATOM     14  H   UNL     1       7.687  -6.658  26.769  0.00  0.00    +0.255 HD
ENDBRANCH   2   7
BRANCH   1  17
ATOM     15  C   UNL     1       6.821  -1.030  25.646  0.00  0.00    +0.109 C 
ATOM     16  C   UNL     1       8.146  -1.516  26.183  0.00  0.00    +0.214 C 
ATOM     17  N   UNL     1       8.784  -2.572  25.559  0.00  0.00    -0.283 N 
ATOM     18  H   UNL     1       9.269  -3.064  26.309  0.00  0.00    +0.155 HD
ATOM     19  O   UNL     1       8.666  -0.996  27.171  0.00  0.00    -0.276 OA
ENDBRANCH   1  17
BRANCH   4  20
ATOM     20  C   UNL     1       5.790  -5.369  21.684  0.00  0.00    +0.372 C 
ATOM     21  O   UNL     1       6.010  -5.319  20.487  0.00  0.00    -0.242 OA
BRANCH  20  22
ATOM     22  O   UNL     1       4.702  -5.979  22.219  0.00  0.00    -0.475 OA
ATOM     23  H   UNL     1       4.945  -6.739  22.790  0.00  0.00    +0.296 HD
ENDBRANCH  20  22
ENDBRANCH   4  20
BRANCH   6  24
ATOM     24  C   UNL     1       9.320  -2.162  22.689  0.00  0.00    +0.212 C 
BRANCH  24  25
ATOM     25  O   UNL     1      10.476  -2.088  23.532  0.00  0.00    -0.381 OA
ATOM     26  H   UNL     1      10.333  -2.706  24.269  0.00  0.00    +0.210 HD
ENDBRANCH  24  25
BRANCH  24  27
ATOM     27  C   UNL     1       8.697  -0.747  22.522  0.00  0.00    +0.176 C 
BRANCH  27  28
ATOM     28  O   UNL     1       7.266  -0.816  22.338  0.00  0.00    -0.387 OA
ATOM     29  H   UNL     1       7.065  -1.624  21.841  0.00  0.00    +0.210 HD
ENDBRANCH  27  28
BRANCH  27  30
ATOM     30  C   UNL     1       9.253   0.044  21.330  0.00  0.00    +0.190 C 
BRANCH  30  31
ATOM     31  O   UNL     1       8.676   1.352  21.322  0.00  0.00    -0.392 OA
ATOM     32  H   UNL     1       9.114   1.809  20.576  0.00  0.00    +0.210 HD
ENDBRANCH  30  31
ENDBRANCH  27  30
ENDBRANCH  24  27
ENDBRANCH   6  24
TORSDOF 10
ENDMDL
MODEL 8
REMARK VINA RESULT:      -5.6      2.541      4.510
REMARK  Name = 
REMARK  11 active torsions:
REMARK  status: ('A' for Active; 'I' for Inactive)
REMARK    1  A    between atoms: C_1  and  C_2
REMARK    2  A    between atoms: N_4  and  C_5
REMARK    3  A    between atoms: C_6  and  C_19
REMARK    4  A    between atoms: C_8  and  C_16
REMARK    5  A    between atoms: C_10  and  N_12
REMARK    6  A    between atoms: C_16  and  O_18
REMARK    7  A    between atoms: C_19  and  C_21
REMARK    8  A    between atoms: C_19  and  O_26
REMARK    9  A    between atoms: C_21  and  C_23
REMARK   10  A    between atoms: C_21  and  O_25
REMARK   11  A    between atoms: C_23  and  O_24
REMARK                            x       y       z     vdW  Elec       q    Type
REMARK                         _______ _______ _______ _____ _____    ______ ____
ROOT
ATOM      1  C   UNL     1       8.578  -0.961  24.946  0.00  0.00    +0.096 C 
ATOM      2  C   UNL     1       7.785  -2.090  25.604  0.00  0.00    +0.262 C 
ATOM      3  C   UNL     1       6.822  -1.560  26.620  0.00  0.00    +0.076 C 
ATOM      4  C   UNL     1       6.490  -0.260  26.656  0.00  0.00    +0.211 C 
ATOM      5  O   UNL     1       7.021   0.663  25.768  0.00  0.00    -0.449 OA
ATOM      6  C   UNL     1       8.115   0.308  24.981  0.00  0.00    +0.158 C 
ENDROOT
BRANCH   2   7
ATOM      7  N   UNL     1       8.659  -3.050  26.276  0.00  0.00    -0.100 NA
ATOM      8  C   UNL     1       8.700  -4.263  25.869  0.00  0.00    +0.377 C 
ATOM      9  N   UNL     1       9.507  -5.156  26.481  0.00  0.00    -0.289 N 
ATOM     10  H   UNL     1      10.067  -5.708  25.843  0.00  0.00    +0.255 HD
ATOM     11  H   UNL     1      10.102  -4.697  27.167  0.00  0.00    +0.255 HD
ATOM     12  N   UNL     1       8.044  -4.865  24.849  0.00  0.00    -0.289 N 
ATOM     13  H   UNL     1       7.985  -5.871  24.974  0.00  0.00    +0.255 HD
ATOM     14  H   UNL     1       7.123  -4.496  24.650  0.00  0.00    +0.255 HD
ENDBRANCH   2   7
BRANCH   1  17
ATOM     15  C   UNL     1       8.378  -2.207  22.338  0.00  0.00    +0.109 C 
ATOM     16  C   UNL     1       9.694  -1.776  22.942  0.00  0.00    +0.214 C 
ATOM     17  N   UNL     1       9.720  -1.295  24.237  0.00  0.00    -0.283 N 
ATOM     18  H   UNL     1      10.467  -0.601  24.243  0.00  0.00    +0.155 HD
ATOM     19  O   UNL     1      10.743  -1.837  22.300  0.00  0.00    -0.276 OA
ENDBRANCH   1  17
BRANCH   4  20
ATOM     20  C   UNL     1       5.489   0.229  27.640  0.00  0.00    +0.372 C 
ATOM     21  O   UNL     1       4.286   0.053  27.559  0.00  0.00    -0.242 OA
BRANCH  20  22
ATOM     22  O   UNL     1       6.078   0.909  28.656  0.00  0.00    -0.475 OA
ATOM     23  H   UNL     1       5.687   0.687  29.528  0.00  0.00    +0.296 HD
ENDBRANCH  20  22
ENDBRANCH   4  20
BRANCH   6  24
ATOM     24  C   UNL     1       8.629   1.441  24.115  0.00  0.00    +0.212 C 
BRANCH  24  25
ATOM     25  O   UNL     1       8.713   2.635  24.903  0.00  0.00    -0.381 OA
ATOM     26  H   UNL     1       8.438   2.402  25.806  0.00  0.00    +0.210 HD
ENDBRANCH  24  25
BRANCH  24  27
ATOM     27  C   UNL     1       7.709   1.685  22.885  0.00  0.00    +0.176 C 
BRANCH  27  28
ATOM     28  O   UNL     1       6.551   0.821  22.909  0.00  0.00    -0.387 OA
ATOM     29  H   UNL     1       6.176   0.846  23.803  0.00  0.00    +0.210 HD
ENDBRANCH  27  28
BRANCH  27  30
ATOM     30  C   UNL     1       8.397   1.454  21.534  0.00  0.00    +0.190 C 
BRANCH  30  31
ATOM     31  O   UNL     1       9.664   2.119  21.529  0.00  0.00    -0.392 OA
ATOM     32  H   UNL     1       9.446   3.061  21.683  0.00  0.00    +0.210 HD
ENDBRANCH  30  31
ENDBRANCH  27  30
ENDBRANCH  24  27
ENDBRANCH   6  24
TORSDOF 10
ENDMDL
MODEL 9
REMARK VINA RESULT:      -5.6      1.631      4.397
REMARK  Name = 
REMARK  11 active torsions:
REMARK  status: ('A' for Active; 'I' for Inactive)
REMARK    1  A    between atoms: C_1  and  C_2
REMARK    2  A    between atoms: N_4  and  C_5
REMARK    3  A    between atoms: C_6  and  C_19
REMARK    4  A    between atoms: C_8  and  C_16
REMARK    5  A    between atoms: C_10  and  N_12
REMARK    6  A    between atoms: C_16  and  O_18
REMARK    7  A    between atoms: C_19  and  C_21
REMARK    8  A    between atoms: C_19  and  O_26
REMARK    9  A    between atoms: C_21  and  C_23
REMARK   10  A    between atoms: C_21  and  O_25
REMARK   11  A    between atoms: C_23  and  O_24
REMARK                            x       y       z     vdW  Elec       q    Type
REMARK                         _______ _______ _______ _____ _____    ______ ____
ROOT
ATOM      1  C   UNL     1       7.897  -2.663  24.109  0.00  0.00    +0.096 C 
ATOM      2  C   UNL     1       7.218  -2.900  25.458  0.00  0.00    +0.262 C 
ATOM      3  C   UNL     1       7.302  -1.687  26.332  0.00  0.00    +0.076 C 
ATOM      4  C   UNL     1       7.623  -0.485  25.829  0.00  0.00    +0.211 C 
ATOM      5  O   UNL     1       7.900  -0.297  24.483  0.00  0.00    -0.449 OA
ATOM      6  C   UNL     1       8.109  -1.406  23.664  0.00  0.00    +0.158 C 
ENDROOT
BRANCH   2   7
ATOM      7  N   UNL     1       7.821  -4.016  26.184  0.00  0.00    -0.100 NA
ATOM      8  C   UNL     1       7.085  -4.982  26.588  0.00  0.00    +0.377 C 
ATOM      9  N   UNL     1       7.634  -6.019  27.256  0.00  0.00    -0.289 N 
ATOM     10  H   UNL     1       7.344  -6.927  26.913  0.00  0.00    +0.255 HD
ATOM     11  H   UNL     1       8.649  -5.951  27.261  0.00  0.00    +0.255 HD
ATOM     12  N   UNL     1       5.753  -5.183  26.448  0.00  0.00    -0.289 N 
ATOM     13  H   UNL     1       5.387  -5.818  27.151  0.00  0.00    +0.255 HD
ATOM     14  H   UNL     1       5.189  -4.343  26.428  0.00  0.00    +0.255 HD
ENDBRANCH   2   7
BRANCH   1  17
ATOM     15  C   UNL     1       5.777  -4.164  22.825  0.00  0.00    +0.109 C 
ATOM     16  C   UNL     1       7.242  -4.449  22.590  0.00  0.00    +0.214 C 
ATOM     17  N   UNL     1       8.192  -3.768  23.327  0.00  0.00    -0.283 N 
ATOM     18  H   UNL     1       8.988  -3.667  22.698  0.00  0.00    +0.155 HD
ATOM     19  O   UNL     1       7.607  -5.272  21.749  0.00  0.00    -0.276 OA
ENDBRANCH   1  17
BRANCH   4  20
ATOM     20  C   UNL     1       7.646   0.711  26.709  0.00  0.00    +0.372 C 
ATOM     21  O   UNL     1       7.285   0.730  27.873  0.00  0.00    -0.242 OA
BRANCH  20  22
ATOM     22  O   UNL     1       8.121   1.803  26.058  0.00  0.00    -0.475 OA
ATOM     23  H   UNL     1       8.047   2.620  26.596  0.00  0.00    +0.296 HD
ENDBRANCH  20  22
ENDBRANCH   4  20
BRANCH   6  24
ATOM     24  C   UNL     1       8.473  -1.042  22.238  0.00  0.00    +0.212 C 
BRANCH  24  25
ATOM     25  O   UNL     1       9.595  -1.830  21.822  0.00  0.00    -0.381 OA
ATOM     26  H   UNL     1      10.213  -1.231  21.371  0.00  0.00    +0.210 HD
ENDBRANCH  24  25
BRANCH  24  27
ATOM     27  C   UNL     1       8.809   0.470  22.101  0.00  0.00    +0.176 C 
BRANCH  27  28
ATOM     28  O   UNL     1       8.724   0.910  20.727  0.00  0.00    -0.387 OA
ATOM     29  H   UNL     1       7.846   1.298  20.590  0.00  0.00    +0.210 HD
ENDBRANCH  27  28
BRANCH  27  30
ATOM     30  C   UNL     1      10.213   0.845  22.594  0.00  0.00    +0.190 C 
BRANCH  30  31
ATOM     31  O   UNL     1      10.109   1.490  23.866  0.00  0.00    -0.392 OA
ATOM     32  H   UNL     1      10.464   2.390  23.715  0.00  0.00    +0.210 HD
ENDBRANCH  30  31
ENDBRANCH  27  30
ENDBRANCH  24  27
ENDBRANCH   6  24
TORSDOF 10
ENDMDL
