MODEL 1
REMARK VINA RESULT:      -6.2      0.000      0.000
REMARK  Name = 
REMARK  23 active torsions:
REMARK  status: ('A' for Active; 'I' for Inactive)
REMARK    1  A    between atoms: C_1  and  C_2
REMARK    2  A    between atoms: C_2  and  C_3
REMARK    3  A    between atoms: C_2  and  O_4
REMARK    4  A    between atoms: O_4  and  C_5
REMARK    5  A    between atoms: C_5  and  O_7
REMARK    6  A    between atoms: O_7  and  C_8
REMARK    7  A    between atoms: C_8  and  O_9
REMARK    8  A    between atoms: O_9  and  P_10
REMARK    9  A    between atoms: P_10  and  C_12
REMARK   10  A    between atoms: P_10  and  O_27
REMARK   11  A    between atoms: C_12  and  O_13
REMARK   12  A    between atoms: O_13  and  C_14
REMARK   13  A    between atoms: C_14  and  C_15
REMARK   14  A    between atoms: C_14  and  C_16
REMARK   15  A    between atoms: C_16  and  N_17
REMARK   16  A    between atoms: C_21  and  N_26
REMARK   17  A    between atoms: O_27  and  C_28
REMARK   18  A    between atoms: C_28  and  O_29
REMARK   19  A    between atoms: O_29  and  C_30
REMARK   20  A    between atoms: C_30  and  O_32
REMARK   21  A    between atoms: O_32  and  C_33
REMARK   22  A    between atoms: C_33  and  C_34
REMARK   23  A    between atoms: C_33  and  C_35
REMARK                            x       y       z     vdW  Elec       q    Type
REMARK                         _______ _______ _______ _____ _____    ______ ____
ROOT
ATOM      1  P   UNL     1       6.918  -5.612  26.923  0.00  0.00    +0.364 P 
ATOM      2  O   UNL     1       7.347  -6.170  28.288  0.00  0.00    -0.256 OA
ENDROOT
BRANCH   1   3
ATOM      3  C   UNL     1       5.845  -4.027  27.271  0.00  0.00    +0.287 C 
BRANCH   3   4
ATOM      4  O   UNL     1       6.634  -2.868  26.920  0.00  0.00    -0.363 OA
BRANCH   4   5
ATOM      5  C   UNL     1       6.147  -2.168  25.760  0.00  0.00    +0.136 C 
ATOM      6  C   UNL     1       4.634  -2.351  25.581  0.00  0.00    +0.040 C 
BRANCH   5   7
ATOM      7  C   UNL     1       6.486  -0.655  25.820  0.00  0.00    +0.156 C 
BRANCH   7   8
ATOM      8  N   UNL     1       7.178  -0.140  24.651  0.00  0.00    -0.312 N 
ATOM      9  C   UNL     1       8.505   0.170  24.502  0.00  0.00    +0.165 A 
ATOM     10  C   UNL     1       8.581   0.810  23.273  0.00  0.00    +0.147 A 
ATOM     11  C   UNL     1       9.817   1.393  22.933  0.00  0.00    +0.147 A 
ATOM     12  N   UNL     1      10.869   1.215  23.751  0.00  0.00    -0.219 NA
ATOM     13  C   UNL     1      10.680   0.465  24.850  0.00  0.00    +0.225 A 
ATOM     14  N   UNL     1       7.383   0.704  22.599  0.00  0.00    -0.231 NA
ATOM     15  N   UNL     1       9.533  -0.070  25.339  0.00  0.00    -0.216 NA
ATOM     16  C   UNL     1       6.589   0.062  23.430  0.00  0.00    +0.201 A 
BRANCH  11  17
ATOM     17  N   UNL     1      10.071   2.092  21.755  0.00  0.00    -0.341 N 
ATOM     18  H   UNL     1      10.385   3.028  21.994  0.00  0.00    +0.144 HD
ATOM     19  H   UNL     1      10.681   1.564  21.142  0.00  0.00    +0.144 HD
ENDBRANCH  11  17
ENDBRANCH   7   8
ENDBRANCH   5   7
ENDBRANCH   4   5
ENDBRANCH   3   4
ENDBRANCH   1   3
BRANCH   1  20
ATOM     20  O   UNL     1       5.506  -6.611  26.961  0.00  0.00    -0.268 OA
BRANCH  20  21
ATOM     21  C   UNL     1       4.490  -6.253  26.027  0.00  0.00    +0.410 C 
BRANCH  21  22
ATOM     22  O   UNL     1       4.866  -6.191  24.641  0.00  0.00    -0.406 OA
BRANCH  22  23
ATOM     23  C   UNL     1       3.847  -6.428  23.764  0.00  0.00    +0.512 C 
ATOM     24  O   UNL     1       3.466  -5.637  22.917  0.00  0.00    -0.203 OA
BRANCH  23  25
ATOM     25  O   UNL     1       3.359  -7.694  23.935  0.00  0.00    -0.431 OA
BRANCH  25  26
ATOM     26  C   UNL     1       1.919  -7.803  24.082  0.00  0.00    +0.174 C 
ATOM     27  C   UNL     1       1.539  -8.766  25.196  0.00  0.00    +0.052 C 
ATOM     28  C   UNL     1       1.306  -8.319  22.783  0.00  0.00    +0.052 C 
ENDBRANCH  25  26
ENDBRANCH  23  25
ENDBRANCH  22  23
ENDBRANCH  21  22
ENDBRANCH  20  21
ENDBRANCH   1  20
BRANCH   1  29
ATOM     29  O   UNL     1       8.330  -4.613  26.884  0.00  0.00    -0.268 OA
BRANCH  29  30
ATOM     30  C   UNL     1       9.461  -4.970  26.133  0.00  0.00    +0.410 C 
BRANCH  30  31
ATOM     31  O   UNL     1       9.105  -5.288  24.763  0.00  0.00    -0.406 OA
BRANCH  31  32
ATOM     32  C   UNL     1       8.693  -4.238  24.011  0.00  0.00    +0.512 C 
ATOM     33  O   UNL     1       9.343  -3.223  23.782  0.00  0.00    -0.203 OA
BRANCH  32  34
ATOM     34  O   UNL     1       7.399  -4.436  23.592  0.00  0.00    -0.431 OA
BRANCH  34  36
ATOM     35  C   UNL     1       6.851  -5.649  21.556  0.00  0.00    +0.052 C 
ATOM     36  C   UNL     1       7.168  -4.291  22.179  0.00  0.00    +0.174 C 
ATOM     37  C   UNL     1       6.007  -3.328  21.938  0.00  0.00    +0.052 C 
ENDBRANCH  34  36
ENDBRANCH  32  34
ENDBRANCH  31  32
ENDBRANCH  30  31
ENDBRANCH  29  30
ENDBRANCH   1  29
TORSDOF 18
ENDMDL
MODEL 2
REMARK VINA RESULT:      -6.0      1.921      3.433
REMARK  Name = 
REMARK  23 active torsions:
REMARK  status: ('A' for Active; 'I' for Inactive)
REMARK    1  A    between atoms: C_1  and  C_2
REMARK    2  A    between atoms: C_2  and  C_3
REMARK    3  A    between atoms: C_2  and  O_4
REMARK    4  A    between atoms: O_4  and  C_5
REMARK    5  A    between atoms: C_5  and  O_7
REMARK    6  A    between atoms: O_7  and  C_8
REMARK    7  A    between atoms: C_8  and  O_9
REMARK    8  A    between atoms: O_9  and  P_10
REMARK    9  A    between atoms: P_10  and  C_12
REMARK   10  A    between atoms: P_10  and  O_27
REMARK   11  A    between atoms: C_12  and  O_13
REMARK   12  A    between atoms: O_13  and  C_14
REMARK   13  A    between atoms: C_14  and  C_15
REMARK   14  A    between atoms: C_14  and  C_16
REMARK   15  A    between atoms: C_16  and  N_17
REMARK   16  A    between atoms: C_21  and  N_26
REMARK   17  A    between atoms: O_27  and  C_28
REMARK   18  A    between atoms: C_28  and  O_29
REMARK   19  A    between atoms: O_29  and  C_30
REMARK   20  A    between atoms: C_30  and  O_32
REMARK   21  A    between atoms: O_32  and  C_33
REMARK   22  A    between atoms: C_33  and  C_34
REMARK   23  A    between atoms: C_33  and  C_35
REMARK                            x       y       z     vdW  Elec       q    Type
REMARK                         _______ _______ _______ _____ _____    ______ ____
ROOT
ATOM      1  P   UNL     1       8.259  -4.668  25.010  0.00  0.00    +0.364 P 
ATOM      2  O   UNL     1       9.773  -4.922  24.985  0.00  0.00    -0.256 OA
ENDROOT
BRANCH   1   3
ATOM      3  C   UNL     1       7.945  -3.245  26.299  0.00  0.00    +0.287 C 
BRANCH   3   4
ATOM      4  O   UNL     1       6.789  -2.495  25.863  0.00  0.00    -0.363 OA
BRANCH   4   5
ATOM      5  C   UNL     1       6.859  -1.092  26.176  0.00  0.00    +0.136 C 
ATOM      6  C   UNL     1       5.924  -0.723  27.336  0.00  0.00    +0.040 C 
BRANCH   5   7
ATOM      7  C   UNL     1       8.307  -0.651  26.512  0.00  0.00    +0.156 C 
BRANCH   7   8
ATOM      8  N   UNL     1       9.041  -0.071  25.400  0.00  0.00    -0.312 N 
ATOM      9  C   UNL     1       8.912   1.173  24.838  0.00  0.00    +0.165 A 
ATOM     10  C   UNL     1       9.695   1.125  23.693  0.00  0.00    +0.147 A 
ATOM     11  C   UNL     1       9.616   2.226  22.819  0.00  0.00    +0.147 A 
ATOM     12  N   UNL     1       8.882   3.293  23.180  0.00  0.00    -0.219 NA
ATOM     13  C   UNL     1       8.275   3.252  24.379  0.00  0.00    +0.225 A 
ATOM     14  N   UNL     1      10.445  -0.032  23.670  0.00  0.00    -0.231 NA
ATOM     15  N   UNL     1       8.192   2.228  25.266  0.00  0.00    -0.216 NA
ATOM     16  C   UNL     1      10.078  -0.689  24.751  0.00  0.00    +0.201 A 
BRANCH  11  17
ATOM     17  N   UNL     1      10.311   2.342  21.618  0.00  0.00    -0.341 N 
ATOM     18  H   UNL     1       9.695   2.068  20.858  0.00  0.00    +0.144 HD
ATOM     19  H   UNL     1      10.741   3.256  21.531  0.00  0.00    +0.144 HD
ENDBRANCH  11  17
ENDBRANCH   7   8
ENDBRANCH   5   7
ENDBRANCH   4   5
ENDBRANCH   3   4
ENDBRANCH   1   3
BRANCH   1  20
ATOM     20  O   UNL     1       8.082  -5.866  26.247  0.00  0.00    -0.268 OA
BRANCH  20  21
ATOM     21  C   UNL     1       7.007  -5.637  27.156  0.00  0.00    +0.410 C 
BRANCH  21  22
ATOM     22  O   UNL     1       5.799  -6.385  26.943  0.00  0.00    -0.406 OA
BRANCH  22  23
ATOM     23  C   UNL     1       5.288  -6.972  28.065  0.00  0.00    +0.512 C 
ATOM     24  O   UNL     1       5.958  -7.513  28.929  0.00  0.00    -0.203 OA
BRANCH  23  25
ATOM     25  O   UNL     1       3.930  -6.814  28.106  0.00  0.00    -0.431 OA
BRANCH  25  26
ATOM     26  C   UNL     1       3.397  -5.705  27.336  0.00  0.00    +0.174 C 
ATOM     27  C   UNL     1       3.150  -4.483  28.207  0.00  0.00    +0.052 C 
ATOM     28  C   UNL     1       2.069  -6.109  26.702  0.00  0.00    +0.052 C 
ENDBRANCH  25  26
ENDBRANCH  23  25
ENDBRANCH  22  23
ENDBRANCH  21  22
ENDBRANCH  20  21
ENDBRANCH   1  20
BRANCH   1  29
ATOM     29  O   UNL     1       8.436  -3.471  23.774  0.00  0.00    -0.268 OA
BRANCH  29  30
ATOM     30  C   UNL     1       7.743  -3.564  22.557  0.00  0.00    +0.410 C 
BRANCH  30  31
ATOM     31  O   UNL     1       7.136  -4.872  22.395  0.00  0.00    -0.406 OA
BRANCH  31  32
ATOM     32  C   UNL     1       6.029  -4.906  21.614  0.00  0.00    +0.512 C 
ATOM     33  O   UNL     1       5.960  -5.400  20.492  0.00  0.00    -0.203 OA
BRANCH  32  34
ATOM     34  O   UNL     1       4.997  -4.239  22.228  0.00  0.00    -0.431 OA
BRANCH  34  36
ATOM     35  C   UNL     1       3.947  -3.725  24.361  0.00  0.00    +0.052 C 
ATOM     36  C   UNL     1       4.521  -4.815  23.459  0.00  0.00    +0.174 C 
ATOM     37  C   UNL     1       3.448  -5.861  23.164  0.00  0.00    +0.052 C 
ENDBRANCH  34  36
ENDBRANCH  32  34
ENDBRANCH  31  32
ENDBRANCH  30  31
ENDBRANCH  29  30
ENDBRANCH   1  29
TORSDOF 18
ENDMDL
MODEL 3
REMARK VINA RESULT:      -6.0      3.657      6.670
REMARK  Name = 
REMARK  23 active torsions:
REMARK  status: ('A' for Active; 'I' for Inactive)
REMARK    1  A    between atoms: C_1  and  C_2
REMARK    2  A    between atoms: C_2  and  C_3
REMARK    3  A    between atoms: C_2  and  O_4
REMARK    4  A    between atoms: O_4  and  C_5
REMARK    5  A    between atoms: C_5  and  O_7
REMARK    6  A    between atoms: O_7  and  C_8
REMARK    7  A    between atoms: C_8  and  O_9
REMARK    8  A    between atoms: O_9  and  P_10
REMARK    9  A    between atoms: P_10  and  C_12
REMARK   10  A    between atoms: P_10  and  O_27
REMARK   11  A    between atoms: C_12  and  O_13
REMARK   12  A    between atoms: O_13  and  C_14
REMARK   13  A    between atoms: C_14  and  C_15
REMARK   14  A    between atoms: C_14  and  C_16
REMARK   15  A    between atoms: C_16  and  N_17
REMARK   16  A    between atoms: C_21  and  N_26
REMARK   17  A    between atoms: O_27  and  C_28
REMARK   18  A    between atoms: C_28  and  O_29
REMARK   19  A    between atoms: O_29  and  C_30
REMARK   20  A    between atoms: C_30  and  O_32
REMARK   21  A    between atoms: O_32  and  C_33
REMARK   22  A    between atoms: C_33  and  C_34
REMARK   23  A    between atoms: C_33  and  C_35
REMARK                            x       y       z     vdW  Elec       q    Type
REMARK                         _______ _______ _______ _____ _____    ______ ____
ROOT
ATOM      1  P   UNL     1       9.207  -1.646  22.320  0.00  0.00    +0.364 P 
ATOM      2  O   UNL     1      10.633  -2.120  22.637  0.00  0.00    -0.256 OA
ENDROOT
BRANCH   1   3
ATOM      3  C   UNL     1       8.546  -0.737  23.908  0.00  0.00    +0.287 C 
BRANCH   3   4
ATOM      4  O   UNL     1       9.408  -1.087  25.013  0.00  0.00    -0.363 OA
BRANCH   4   5
ATOM      5  C   UNL     1       8.697  -1.533  26.182  0.00  0.00    +0.136 C 
ATOM      6  C   UNL     1       8.433  -0.379  27.160  0.00  0.00    +0.040 C 
BRANCH   5   7
ATOM      7  C   UNL     1       7.356  -2.219  25.811  0.00  0.00    +0.156 C 
BRANCH   7   8
ATOM      8  N   UNL     1       7.195  -3.564  26.336  0.00  0.00    -0.312 N 
ATOM      9  C   UNL     1       6.220  -4.054  27.165  0.00  0.00    +0.165 A 
ATOM     10  C   UNL     1       6.660  -5.323  27.515  0.00  0.00    +0.147 A 
ATOM     11  C   UNL     1       5.925  -6.003  28.505  0.00  0.00    +0.147 A 
ATOM     12  N   UNL     1       4.797  -5.445  28.978  0.00  0.00    -0.219 NA
ATOM     13  C   UNL     1       4.423  -4.263  28.457  0.00  0.00    +0.225 A 
ATOM     14  N   UNL     1       7.755  -5.680  26.757  0.00  0.00    -0.231 NA
ATOM     15  N   UNL     1       5.080  -3.465  27.578  0.00  0.00    -0.216 NA
ATOM     16  C   UNL     1       8.000  -4.624  26.008  0.00  0.00    +0.201 A 
BRANCH  11  17
ATOM     17  N   UNL     1       6.230  -7.271  28.994  0.00  0.00    -0.341 N 
ATOM     18  H   UNL     1       5.543  -7.930  28.641  0.00  0.00    +0.144 HD
ATOM     19  H   UNL     1       7.200  -7.507  28.818  0.00  0.00    +0.144 HD
ENDBRANCH  11  17
ENDBRANCH   7   8
ENDBRANCH   5   7
ENDBRANCH   4   5
ENDBRANCH   3   4
ENDBRANCH   1   3
BRANCH   1  20
ATOM     20  O   UNL     1       8.582  -3.156  22.889  0.00  0.00    -0.268 OA
BRANCH  20  21
ATOM     21  C   UNL     1       7.363  -3.572  22.276  0.00  0.00    +0.410 C 
BRANCH  21  22
ATOM     22  O   UNL     1       6.901  -4.901  22.572  0.00  0.00    -0.406 OA
BRANCH  22  23
ATOM     23  C   UNL     1       5.783  -5.280  21.887  0.00  0.00    +0.512 C 
ATOM     24  O   UNL     1       5.789  -5.952  20.869  0.00  0.00    -0.203 OA
BRANCH  23  25
ATOM     25  O   UNL     1       4.660  -4.846  22.538  0.00  0.00    -0.431 OA
BRANCH  25  26
ATOM     26  C   UNL     1       3.819  -5.882  23.109  0.00  0.00    +0.174 C 
ATOM     27  C   UNL     1       2.401  -5.388  23.348  0.00  0.00    +0.052 C 
ATOM     28  C   UNL     1       4.395  -6.330  24.451  0.00  0.00    +0.052 C 
ENDBRANCH  25  26
ENDBRANCH  23  25
ENDBRANCH  22  23
ENDBRANCH  21  22
ENDBRANCH  20  21
ENDBRANCH   1  20
BRANCH   1  29
ATOM     29  O   UNL     1       9.831  -0.137  21.750  0.00  0.00    -0.268 OA
BRANCH  29  30
ATOM     30  C   UNL     1       9.304   1.087  22.186  0.00  0.00    +0.410 C 
BRANCH  30  31
ATOM     31  O   UNL     1      10.293   2.146  22.106  0.00  0.00    -0.406 OA
BRANCH  31  32
ATOM     32  C   UNL     1      10.476   2.858  23.245  0.00  0.00    +0.512 C 
ATOM     33  O   UNL     1      11.431   3.590  23.485  0.00  0.00    -0.203 OA
BRANCH  32  34
ATOM     34  O   UNL     1       9.466   2.589  24.137  0.00  0.00    -0.431 OA
BRANCH  34  36
ATOM     35  C   UNL     1       8.014   4.445  23.532  0.00  0.00    +0.052 C 
ATOM     36  C   UNL     1       8.765   3.735  24.656  0.00  0.00    +0.174 C 
ATOM     37  C   UNL     1       7.782   3.296  25.739  0.00  0.00    +0.052 C 
ENDBRANCH  34  36
ENDBRANCH  32  34
ENDBRANCH  31  32
ENDBRANCH  30  31
ENDBRANCH  29  30
ENDBRANCH   1  29
TORSDOF 18
ENDMDL
MODEL 4
REMARK VINA RESULT:      -6.0      3.053      5.702
REMARK  Name = 
REMARK  23 active torsions:
REMARK  status: ('A' for Active; 'I' for Inactive)
REMARK    1  A    between atoms: C_1  and  C_2
REMARK    2  A    between atoms: C_2  and  C_3
REMARK    3  A    between atoms: C_2  and  O_4
REMARK    4  A    between atoms: O_4  and  C_5
REMARK    5  A    between atoms: C_5  and  O_7
REMARK    6  A    between atoms: O_7  and  C_8
REMARK    7  A    between atoms: C_8  and  O_9
REMARK    8  A    between atoms: O_9  and  P_10
REMARK    9  A    between atoms: P_10  and  C_12
REMARK   10  A    between atoms: P_10  and  O_27
REMARK   11  A    between atoms: C_12  and  O_13
REMARK   12  A    between atoms: O_13  and  C_14
REMARK   13  A    between atoms: C_14  and  C_15
REMARK   14  A    between atoms: C_14  and  C_16
REMARK   15  A    between atoms: C_16  and  N_17
REMARK   16  A    between atoms: C_21  and  N_26
REMARK   17  A    between atoms: O_27  and  C_28
REMARK   18  A    between atoms: C_28  and  O_29
REMARK   19  A    between atoms: O_29  and  C_30
REMARK   20  A    between atoms: C_30  and  O_32
REMARK   21  A    between atoms: O_32  and  C_33
REMARK   22  A    between atoms: C_33  and  C_34
REMARK   23  A    between atoms: C_33  and  C_35
REMARK                            x       y       z     vdW  Elec       q    Type
REMARK                         _______ _______ _______ _____ _____    ______ ____
ROOT
ATOM      1  P   UNL     1       8.881  -3.897  24.724  0.00  0.00    +0.364 P 
ATOM      2  O   UNL     1      10.120  -4.736  25.067  0.00  0.00    -0.256 OA
ENDROOT
BRANCH   1   3
ATOM      3  C   UNL     1       8.430  -2.875  26.317  0.00  0.00    +0.287 C 
BRANCH   3   4
ATOM      4  O   UNL     1       7.881  -1.607  25.893  0.00  0.00    -0.363 OA
BRANCH   4   5
ATOM      5  C   UNL     1       6.742  -1.184  26.665  0.00  0.00    +0.136 C 
ATOM      6  C   UNL     1       6.946   0.218  27.254  0.00  0.00    +0.040 C 
BRANCH   5   7
ATOM      7  C   UNL     1       5.438  -1.213  25.826  0.00  0.00    +0.156 C 
BRANCH   7   8
ATOM      8  N   UNL     1       5.001  -2.540  25.427  0.00  0.00    -0.312 N 
ATOM      9  C   UNL     1       5.165  -3.174  24.222  0.00  0.00    +0.165 A 
ATOM     10  C   UNL     1       4.383  -4.317  24.317  0.00  0.00    +0.147 A 
ATOM     11  C   UNL     1       4.228  -5.083  23.146  0.00  0.00    +0.147 A 
ATOM     12  N   UNL     1       4.915  -4.735  22.044  0.00  0.00    -0.219 NA
ATOM     13  C   UNL     1       5.735  -3.674  22.133  0.00  0.00    +0.225 A 
ATOM     14  N   UNL     1       3.929  -4.486  25.608  0.00  0.00    -0.231 NA
ATOM     15  N   UNL     1       5.904  -2.802  23.159  0.00  0.00    -0.216 NA
ATOM     16  C   UNL     1       4.385  -3.436  26.261  0.00  0.00    +0.201 A 
BRANCH  11  17
ATOM     17  N   UNL     1       3.465  -6.245  23.048  0.00  0.00    -0.341 N 
ATOM     18  H   UNL     1       2.843  -6.293  23.849  0.00  0.00    +0.144 HD
ATOM     19  H   UNL     1       3.023  -6.316  22.139  0.00  0.00    +0.144 HD
ENDBRANCH  11  17
ENDBRANCH   7   8
ENDBRANCH   5   7
ENDBRANCH   4   5
ENDBRANCH   3   4
ENDBRANCH   1   3
BRANCH   1  20
ATOM     20  O   UNL     1       7.861  -5.198  25.235  0.00  0.00    -0.268 OA
BRANCH  20  21
ATOM     21  C   UNL     1       7.561  -5.215  26.629  0.00  0.00    +0.410 C 
BRANCH  21  22
ATOM     22  O   UNL     1       6.562  -6.148  27.072  0.00  0.00    -0.406 OA
BRANCH  22  23
ATOM     23  C   UNL     1       6.434  -6.243  28.428  0.00  0.00    +0.512 C 
ATOM     24  O   UNL     1       6.781  -7.207  29.090  0.00  0.00    -0.203 OA
BRANCH  23  25
ATOM     25  O   UNL     1       5.915  -5.084  28.937  0.00  0.00    -0.431 OA
BRANCH  25  26
ATOM     26  C   UNL     1       4.702  -5.224  29.720  0.00  0.00    +0.174 C 
ATOM     27  C   UNL     1       3.612  -5.949  28.946  0.00  0.00    +0.052 C 
ATOM     28  C   UNL     1       4.171  -3.843  30.099  0.00  0.00    +0.052 C 
ENDBRANCH  25  26
ENDBRANCH  23  25
ENDBRANCH  22  23
ENDBRANCH  21  22
ENDBRANCH  20  21
ENDBRANCH   1  20
BRANCH   1  29
ATOM     29  O   UNL     1       9.901  -2.596  24.212  0.00  0.00    -0.268 OA
BRANCH  29  30
ATOM     30  C   UNL     1       9.960  -2.194  22.869  0.00  0.00    +0.410 C 
BRANCH  30  31
ATOM     31  O   UNL     1       8.757  -1.483  22.478  0.00  0.00    -0.406 OA
BRANCH  31  32
ATOM     32  C   UNL     1       8.906  -0.149  22.289  0.00  0.00    +0.512 C 
ATOM     33  O   UNL     1       9.388   0.383  21.294  0.00  0.00    -0.203 OA
BRANCH  32  34
ATOM     34  O   UNL     1       8.503   0.534  23.411  0.00  0.00    -0.431 OA
BRANCH  34  36
ATOM     35  C   UNL     1       8.722   2.509  24.814  0.00  0.00    +0.052 C 
ATOM     36  C   UNL     1       9.444   1.488  23.938  0.00  0.00    +0.174 C 
ATOM     37  C   UNL     1      10.511   0.766  24.757  0.00  0.00    +0.052 C 
ENDBRANCH  34  36
ENDBRANCH  32  34
ENDBRANCH  31  32
ENDBRANCH  30  31
ENDBRANCH  29  30
ENDBRANCH   1  29
TORSDOF 18
ENDMDL
MODEL 5
REMARK VINA RESULT:      -5.8      1.313      4.025
REMARK  Name = 
REMARK  23 active torsions:
REMARK  status: ('A' for Active; 'I' for Inactive)
REMARK    1  A    between atoms: C_1  and  C_2
REMARK    2  A    between atoms: C_2  and  C_3
REMARK    3  A    between atoms: C_2  and  O_4
REMARK    4  A    between atoms: O_4  and  C_5
REMARK    5  A    between atoms: C_5  and  O_7
REMARK    6  A    between atoms: O_7  and  C_8
REMARK    7  A    between atoms: C_8  and  O_9
REMARK    8  A    between atoms: O_9  and  P_10
REMARK    9  A    between atoms: P_10  and  C_12
REMARK   10  A    between atoms: P_10  and  O_27
REMARK   11  A    between atoms: C_12  and  O_13
REMARK   12  A    between atoms: O_13  and  C_14
REMARK   13  A    between atoms: C_14  and  C_15
REMARK   14  A    between atoms: C_14  and  C_16
REMARK   15  A    between atoms: C_16  and  N_17
REMARK   16  A    between atoms: C_21  and  N_26
REMARK   17  A    between atoms: O_27  and  C_28
REMARK   18  A    between atoms: C_28  and  O_29
REMARK   19  A    between atoms: O_29  and  C_30
REMARK   20  A    between atoms: C_30  and  O_32
REMARK   21  A    between atoms: O_32  and  C_33
REMARK   22  A    between atoms: C_33  and  C_34
REMARK   23  A    between atoms: C_33  and  C_35
REMARK                            x       y       z     vdW  Elec       q    Type
REMARK                         _______ _______ _______ _____ _____    ______ ____
ROOT
ATOM      1  P   UNL     1       7.521  -5.058  26.672  0.00  0.00    +0.364 P 
ATOM      2  O   UNL     1       7.525  -5.586  25.230  0.00  0.00    -0.256 OA
ENDROOT
BRANCH   1   3
ATOM      3  C   UNL     1       6.064  -3.775  26.800  0.00  0.00    +0.287 C 
BRANCH   3   4
ATOM      4  O   UNL     1       6.640  -2.463  26.989  0.00  0.00    -0.363 OA
BRANCH   4   5
ATOM      5  C   UNL     1       5.900  -1.409  26.346  0.00  0.00    +0.136 C 
ATOM      6  C   UNL     1       4.536  -1.187  27.013  0.00  0.00    +0.040 C 
BRANCH   5   7
ATOM      7  C   UNL     1       6.696  -0.078  26.330  0.00  0.00    +0.156 C 
BRANCH   7   8
ATOM      8  N   UNL     1       7.192   0.318  25.022  0.00  0.00    -0.312 N 
ATOM      9  C   UNL     1       8.479   0.588  24.635  0.00  0.00    +0.165 A 
ATOM     10  C   UNL     1       8.359   1.115  23.357  0.00  0.00    +0.147 A 
ATOM     11  C   UNL     1       9.526   1.641  22.771  0.00  0.00    +0.147 A 
ATOM     12  N   UNL     1      10.695   1.516  23.423  0.00  0.00    -0.219 NA
ATOM     13  C   UNL     1      10.683   0.870  24.601  0.00  0.00    +0.225 A 
ATOM     14  N   UNL     1       7.067   0.973  22.896  0.00  0.00    -0.231 NA
ATOM     15  N   UNL     1       9.628   0.403  25.315  0.00  0.00    -0.216 NA
ATOM     16  C   UNL     1       6.414   0.422  23.898  0.00  0.00    +0.201 A 
BRANCH  11  17
ATOM     17  N   UNL     1       9.590   2.228  21.509  0.00  0.00    -0.341 N 
ATOM     18  H   UNL     1       9.102   1.631  20.849  0.00  0.00    +0.144 HD
ATOM     19  H   UNL     1       9.287   3.195  21.540  0.00  0.00    +0.144 HD
ENDBRANCH  11  17
ENDBRANCH   7   8
ENDBRANCH   5   7
ENDBRANCH   4   5
ENDBRANCH   3   4
ENDBRANCH   1   3
BRANCH   1  20
ATOM     20  O   UNL     1       8.623  -3.805  26.214  0.00  0.00    -0.268 OA
BRANCH  20  21
ATOM     21  C   UNL     1       8.963  -3.779  24.829  0.00  0.00    +0.410 C 
BRANCH  21  22
ATOM     22  O   UNL     1       8.649  -2.582  24.100  0.00  0.00    -0.406 OA
BRANCH  22  23
ATOM     23  C   UNL     1       8.365  -2.778  22.779  0.00  0.00    +0.512 C 
ATOM     24  O   UNL     1       8.654  -1.999  21.886  0.00  0.00    -0.203 OA
BRANCH  23  25
ATOM     25  O   UNL     1       7.762  -3.993  22.600  0.00  0.00    -0.431 OA
BRANCH  25  26
ATOM     26  C   UNL     1       6.453  -3.965  21.975  0.00  0.00    +0.174 C 
ATOM     27  C   UNL     1       5.449  -3.182  22.808  0.00  0.00    +0.052 C 
ATOM     28  C   UNL     1       5.926  -5.389  21.818  0.00  0.00    +0.052 C 
ENDBRANCH  25  26
ENDBRANCH  23  25
ENDBRANCH  22  23
ENDBRANCH  21  22
ENDBRANCH  20  21
ENDBRANCH   1  20
BRANCH   1  29
ATOM     29  O   UNL     1       6.420  -6.311  27.131  0.00  0.00    -0.268 OA
BRANCH  29  30
ATOM     30  C   UNL     1       5.057  -6.051  27.342  0.00  0.00    +0.410 C 
BRANCH  30  31
ATOM     31  O   UNL     1       4.223  -6.943  26.559  0.00  0.00    -0.406 OA
BRANCH  31  32
ATOM     32  C   UNL     1       4.217  -6.710  25.223  0.00  0.00    +0.512 C 
ATOM     33  O   UNL     1       4.540  -7.515  24.356  0.00  0.00    -0.203 OA
BRANCH  32  34
ATOM     34  O   UNL     1       3.863  -5.406  24.972  0.00  0.00    -0.431 OA
BRANCH  34  36
ATOM     35  C   UNL     1       2.279  -3.579  25.238  0.00  0.00    +0.052 C 
ATOM     36  C   UNL     1       2.468  -5.091  25.139  0.00  0.00    +0.174 C 
ATOM     37  C   UNL     1       1.667  -5.637  23.959  0.00  0.00    +0.052 C 
ENDBRANCH  34  36
ENDBRANCH  32  34
ENDBRANCH  31  32
ENDBRANCH  30  31
ENDBRANCH  29  30
ENDBRANCH   1  29
TORSDOF 18
ENDMDL
MODEL 6
REMARK VINA RESULT:      -5.8      4.332      7.744
REMARK  Name = 
REMARK  23 active torsions:
REMARK  status: ('A' for Active; 'I' for Inactive)
REMARK    1  A    between atoms: C_1  and  C_2
REMARK    2  A    between atoms: C_2  and  C_3
REMARK    3  A    between atoms: C_2  and  O_4
REMARK    4  A    between atoms: O_4  and  C_5
REMARK    5  A    between atoms: C_5  and  O_7
REMARK    6  A    between atoms: O_7  and  C_8
REMARK    7  A    between atoms: C_8  and  O_9
REMARK    8  A    between atoms: O_9  and  P_10
REMARK    9  A    between atoms: P_10  and  C_12
REMARK   10  A    between atoms: P_10  and  O_27
REMARK   11  A    between atoms: C_12  and  O_13
REMARK   12  A    between atoms: O_13  and  C_14
REMARK   13  A    between atoms: C_14  and  C_15
REMARK   14  A    between atoms: C_14  and  C_16
REMARK   15  A    between atoms: C_16  and  N_17
REMARK   16  A    between atoms: C_21  and  N_26
REMARK   17  A    between atoms: O_27  and  C_28
REMARK   18  A    between atoms: C_28  and  O_29
REMARK   19  A    between atoms: O_29  and  C_30
REMARK   20  A    between atoms: C_30  and  O_32
REMARK   21  A    between atoms: O_32  and  C_33
REMARK   22  A    between atoms: C_33  and  C_34
REMARK   23  A    between atoms: C_33  and  C_35
REMARK                            x       y       z     vdW  Elec       q    Type
REMARK                         _______ _______ _______ _____ _____    ______ ____
ROOT
ATOM      1  P   UNL     1       9.778   0.271  24.045  0.00  0.00    +0.364 P 
ATOM      2  O   UNL     1      11.094   0.635  24.749  0.00  0.00    -0.256 OA
ENDROOT
BRANCH   1   3
ATOM      3  C   UNL     1       8.350   0.543  25.339  0.00  0.00    +0.287 C 
BRANCH   3   4
ATOM      4  O   UNL     1       8.600  -0.325  26.467  0.00  0.00    -0.363 OA
BRANCH   4   5
ATOM      5  C   UNL     1       7.406  -0.901  27.028  0.00  0.00    +0.136 C 
ATOM      6  C   UNL     1       6.399   0.179  27.448  0.00  0.00    +0.040 C 
BRANCH   5   7
ATOM      7  C   UNL     1       6.729  -1.890  26.043  0.00  0.00    +0.156 C 
BRANCH   7   8
ATOM      8  N   UNL     1       6.723  -3.276  26.480  0.00  0.00    -0.312 N 
ATOM      9  C   UNL     1       5.664  -4.138  26.593  0.00  0.00    +0.165 A 
ATOM     10  C   UNL     1       6.181  -5.248  27.247  0.00  0.00    +0.147 A 
ATOM     11  C   UNL     1       5.264  -6.237  27.649  0.00  0.00    +0.147 A 
ATOM     12  N   UNL     1       3.973  -6.111  27.296  0.00  0.00    -0.219 NA
ATOM     13  C   UNL     1       3.634  -5.043  26.553  0.00  0.00    +0.225 A 
ATOM     14  N   UNL     1       7.555  -5.157  27.337  0.00  0.00    -0.231 NA
ATOM     15  N   UNL     1       4.391  -3.980  26.182  0.00  0.00    -0.216 NA
ATOM     16  C   UNL     1       7.848  -3.992  26.798  0.00  0.00    +0.201 A 
BRANCH  11  17
ATOM     17  N   UNL     1       5.599  -7.404  28.333  0.00  0.00    -0.341 N 
ATOM     18  H   UNL     1       6.608  -7.517  28.307  0.00  0.00    +0.144 HD
ATOM     19  H   UNL     1       5.175  -7.422  29.254  0.00  0.00    +0.144 HD
ENDBRANCH  11  17
ENDBRANCH   7   8
ENDBRANCH   5   7
ENDBRANCH   4   5
ENDBRANCH   3   4
ENDBRANCH   1   3
BRANCH   1  20
ATOM     20  O   UNL     1       9.963  -1.373  24.552  0.00  0.00    -0.268 OA
BRANCH  20  21
ATOM     21  C   UNL     1       9.979  -2.330  23.496  0.00  0.00    +0.410 C 
BRANCH  21  22
ATOM     22  O   UNL     1       9.110  -3.467  23.629  0.00  0.00    -0.406 OA
BRANCH  22  23
ATOM     23  C   UNL     1       7.922  -3.355  22.965  0.00  0.00    +0.512 C 
ATOM     24  O   UNL     1       7.657  -2.472  22.166  0.00  0.00    -0.203 OA
BRANCH  23  25
ATOM     25  O   UNL     1       7.102  -4.403  23.281  0.00  0.00    -0.431 OA
BRANCH  25  26
ATOM     26  C   UNL     1       6.141  -4.786  22.263  0.00  0.00    +0.174 C 
ATOM     27  C   UNL     1       4.889  -5.398  22.872  0.00  0.00    +0.052 C 
ATOM     28  C   UNL     1       6.765  -5.820  21.329  0.00  0.00    +0.052 C 
ENDBRANCH  25  26
ENDBRANCH  23  25
ENDBRANCH  22  23
ENDBRANCH  21  22
ENDBRANCH  20  21
ENDBRANCH   1  20
BRANCH   1  29
ATOM     29  O   UNL     1       9.592   1.915  23.537  0.00  0.00    -0.268 OA
BRANCH  29  30
ATOM     30  C   UNL     1       9.245   2.928  24.443  0.00  0.00    +0.410 C 
BRANCH  30  31
ATOM     31  O   UNL     1       8.691   4.081  23.757  0.00  0.00    -0.406 OA
BRANCH  31  32
ATOM     32  C   UNL     1       9.498   5.169  23.704  0.00  0.00    +0.512 C 
ATOM     33  O   UNL     1       9.135   6.318  23.475  0.00  0.00    -0.203 OA
BRANCH  32  34
ATOM     34  O   UNL     1      10.809   4.793  23.876  0.00  0.00    -0.431 OA
BRANCH  34  36
ATOM     35  C   UNL     1      12.134   6.558  24.897  0.00  0.00    +0.052 C 
ATOM     36  C   UNL     1      11.793   5.809  23.611  0.00  0.00    +0.174 C 
ATOM     37  C   UNL     1      13.055   5.173  23.033  0.00  0.00    +0.052 C 
ENDBRANCH  34  36
ENDBRANCH  32  34
ENDBRANCH  31  32
ENDBRANCH  30  31
ENDBRANCH  29  30
ENDBRANCH   1  29
TORSDOF 18
ENDMDL
MODEL 7
REMARK VINA RESULT:      -5.8      3.643      7.737
REMARK  Name = 
REMARK  23 active torsions:
REMARK  status: ('A' for Active; 'I' for Inactive)
REMARK    1  A    between atoms: C_1  and  C_2
REMARK    2  A    between atoms: C_2  and  C_3
REMARK    3  A    between atoms: C_2  and  O_4
REMARK    4  A    between atoms: O_4  and  C_5
REMARK    5  A    between atoms: C_5  and  O_7
REMARK    6  A    between atoms: O_7  and  C_8
REMARK    7  A    between atoms: C_8  and  O_9
REMARK    8  A    between atoms: O_9  and  P_10
REMARK    9  A    between atoms: P_10  and  C_12
REMARK   10  A    between atoms: P_10  and  O_27
REMARK   11  A    between atoms: C_12  and  O_13
REMARK   12  A    between atoms: O_13  and  C_14
REMARK   13  A    between atoms: C_14  and  C_15
REMARK   14  A    between atoms: C_14  and  C_16
REMARK   15  A    between atoms: C_16  and  N_17
REMARK   16  A    between atoms: C_21  and  N_26
REMARK   17  A    between atoms: O_27  and  C_28
REMARK   18  A    between atoms: C_28  and  O_29
REMARK   19  A    between atoms: O_29  and  C_30
REMARK   20  A    between atoms: C_30  and  O_32
REMARK   21  A    between atoms: O_32  and  C_33
REMARK   22  A    between atoms: C_33  and  C_34
REMARK   23  A    between atoms: C_33  and  C_35
REMARK                            x       y       z     vdW  Elec       q    Type
REMARK                         _______ _______ _______ _____ _____    ______ ____
ROOT
ATOM      1  P   UNL     1       9.463  -1.585  22.916  0.00  0.00    +0.364 P 
ATOM      2  O   UNL     1       9.085  -1.178  21.484  0.00  0.00    -0.256 OA
ENDROOT
BRANCH   1   3
ATOM      3  C   UNL     1       8.150  -0.773  24.101  0.00  0.00    +0.287 C 
BRANCH   3   4
ATOM      4  O   UNL     1       8.807  -0.465  25.350  0.00  0.00    -0.363 OA
BRANCH   4   5
ATOM      5  C   UNL     1       8.115  -0.972  26.506  0.00  0.00    +0.136 C 
ATOM      6  C   UNL     1       7.648   0.161  27.429  0.00  0.00    +0.040 C 
BRANCH   5   7
ATOM      7  C   UNL     1       6.903  -1.854  26.108  0.00  0.00    +0.156 C 
BRANCH   7   8
ATOM      8  N   UNL     1       6.971  -3.229  26.576  0.00  0.00    -0.312 N 
ATOM      9  C   UNL     1       5.970  -4.016  27.083  0.00  0.00    +0.165 A 
ATOM     10  C   UNL     1       6.619  -5.146  27.560  0.00  0.00    +0.147 A 
ATOM     11  C   UNL     1       5.844  -6.065  28.294  0.00  0.00    +0.147 A 
ATOM     12  N   UNL     1       4.520  -5.858  28.405  0.00  0.00    -0.219 NA
ATOM     13  C   UNL     1       4.005  -4.783  27.784  0.00  0.00    +0.225 A 
ATOM     14  N   UNL     1       7.940  -5.146  27.166  0.00  0.00    -0.231 NA
ATOM     15  N   UNL     1       4.644  -3.780  27.131  0.00  0.00    -0.216 NA
ATOM     16  C   UNL     1       8.093  -4.013  26.513  0.00  0.00    +0.201 A 
BRANCH  11  17
ATOM     17  N   UNL     1       6.329  -7.239  28.866  0.00  0.00    -0.341 N 
ATOM     18  H   UNL     1       5.676  -7.546  29.580  0.00  0.00    +0.144 HD
ATOM     19  H   UNL     1       6.560  -7.923  28.154  0.00  0.00    +0.144 HD
ENDBRANCH  11  17
ENDBRANCH   7   8
ENDBRANCH   5   7
ENDBRANCH   4   5
ENDBRANCH   3   4
ENDBRANCH   1   3
BRANCH   1  20
ATOM     20  O   UNL     1      10.480  -0.190  23.041  0.00  0.00    -0.268 OA
BRANCH  20  21
ATOM     21  C   UNL     1      10.029   0.950  22.312  0.00  0.00    +0.410 C 
BRANCH  21  22
ATOM     22  O   UNL     1       9.818   2.162  23.056  0.00  0.00    -0.406 OA
BRANCH  22  23
ATOM     23  C   UNL     1       8.632   2.787  22.800  0.00  0.00    +0.512 C 
ATOM     24  O   UNL     1       7.940   2.583  21.817  0.00  0.00    -0.203 OA
BRANCH  23  25
ATOM     25  O   UNL     1       8.308   3.628  23.830  0.00  0.00    -0.431 OA
BRANCH  25  26
ATOM     26  C   UNL     1       7.739   2.998  25.007  0.00  0.00    +0.174 C 
ATOM     27  C   UNL     1       6.364   2.413  24.722  0.00  0.00    +0.052 C 
ATOM     28  C   UNL     1       7.589   4.030  26.122  0.00  0.00    +0.052 C 
ENDBRANCH  25  26
ENDBRANCH  23  25
ENDBRANCH  22  23
ENDBRANCH  21  22
ENDBRANCH  20  21
ENDBRANCH   1  20
BRANCH   1  29
ATOM     29  O   UNL     1       8.448  -2.980  22.792  0.00  0.00    -0.268 OA
BRANCH  29  30
ATOM     30  C   UNL     1       7.109  -2.879  22.385  0.00  0.00    +0.410 C 
BRANCH  30  31
ATOM     31  O   UNL     1       6.642  -4.121  21.798  0.00  0.00    -0.406 OA
BRANCH  31  32
ATOM     32  C   UNL     1       6.879  -5.236  22.532  0.00  0.00    +0.512 C 
ATOM     33  O   UNL     1       7.589  -6.178  22.192  0.00  0.00    -0.203 OA
BRANCH  32  34
ATOM     34  O   UNL     1       6.149  -5.200  23.695  0.00  0.00    -0.431 OA
BRANCH  34  36
ATOM     35  C   UNL     1       4.631  -6.781  24.749  0.00  0.00    +0.052 C 
ATOM     36  C   UNL     1       4.827  -5.767  23.624  0.00  0.00    +0.174 C 
ATOM     37  C   UNL     1       3.781  -4.661  23.737  0.00  0.00    +0.052 C 
ENDBRANCH  34  36
ENDBRANCH  32  34
ENDBRANCH  31  32
ENDBRANCH  30  31
ENDBRANCH  29  30
ENDBRANCH   1  29
TORSDOF 18
ENDMDL
MODEL 8
REMARK VINA RESULT:      -5.7      2.628      4.286
REMARK  Name = 
REMARK  23 active torsions:
REMARK  status: ('A' for Active; 'I' for Inactive)
REMARK    1  A    between atoms: C_1  and  C_2
REMARK    2  A    between atoms: C_2  and  C_3
REMARK    3  A    between atoms: C_2  and  O_4
REMARK    4  A    between atoms: O_4  and  C_5
REMARK    5  A    between atoms: C_5  and  O_7
REMARK    6  A    between atoms: O_7  and  C_8
REMARK    7  A    between atoms: C_8  and  O_9
REMARK    8  A    between atoms: O_9  and  P_10
REMARK    9  A    between atoms: P_10  and  C_12
REMARK   10  A    between atoms: P_10  and  O_27
REMARK   11  A    between atoms: C_12  and  O_13
REMARK   12  A    between atoms: O_13  and  C_14
REMARK   13  A    between atoms: C_14  and  C_15
REMARK   14  A    between atoms: C_14  and  C_16
REMARK   15  A    between atoms: C_16  and  N_17
REMARK   16  A    between atoms: C_21  and  N_26
REMARK   17  A    between atoms: O_27  and  C_28
REMARK   18  A    between atoms: C_28  and  O_29
REMARK   19  A    between atoms: O_29  and  C_30
REMARK   20  A    between atoms: C_30  and  O_32
REMARK   21  A    between atoms: O_32  and  C_33
REMARK   22  A    between atoms: C_33  and  C_34
REMARK   23  A    between atoms: C_33  and  C_35
REMARK                            x       y       z     vdW  Elec       q    Type
REMARK                         _______ _______ _______ _____ _____    ______ ____
ROOT
ATOM      1  P   UNL     1       7.262  -2.674  25.481  0.00  0.00    +0.364 P 
ATOM      2  O   UNL     1       8.712  -2.337  25.856  0.00  0.00    -0.256 OA
ENDROOT
BRANCH   1   3
ATOM      3  C   UNL     1       6.142  -1.268  26.225  0.00  0.00    +0.287 C 
BRANCH   3   4
ATOM      4  O   UNL     1       5.429  -0.642  25.135  0.00  0.00    -0.363 OA
BRANCH   4   5
ATOM      5  C   UNL     1       5.330   0.789  25.255  0.00  0.00    +0.136 C 
ATOM      6  C   UNL     1       4.624   1.201  26.554  0.00  0.00    +0.040 C 
BRANCH   5   7
ATOM      7  C   UNL     1       6.723   1.468  25.180  0.00  0.00    +0.156 C 
BRANCH   7   8
ATOM      8  N   UNL     1       6.889   2.394  24.073  0.00  0.00    -0.312 N 
ATOM      9  C   UNL     1       7.584   3.575  24.035  0.00  0.00    +0.165 A 
ATOM     10  C   UNL     1       7.241   4.146  22.818  0.00  0.00    +0.147 A 
ATOM     11  C   UNL     1       7.686   5.461  22.582  0.00  0.00    +0.147 A 
ATOM     12  N   UNL     1       8.491   6.048  23.484  0.00  0.00    -0.219 NA
ATOM     13  C   UNL     1       8.845   5.328  24.562  0.00  0.00    +0.225 A 
ATOM     14  N   UNL     1       6.533   3.249  22.046  0.00  0.00    -0.231 NA
ATOM     15  N   UNL     1       8.418   4.101  24.954  0.00  0.00    -0.216 NA
ATOM     16  C   UNL     1       6.406   2.182  22.807  0.00  0.00    +0.201 A 
BRANCH  11  17
ATOM     17  N   UNL     1       7.419   6.199  21.430  0.00  0.00    -0.341 N 
ATOM     18  H   UNL     1       6.758   6.934  21.661  0.00  0.00    +0.144 HD
ATOM     19  H   UNL     1       8.277   6.501  20.983  0.00  0.00    +0.144 HD
ENDBRANCH  11  17
ENDBRANCH   7   8
ENDBRANCH   5   7
ENDBRANCH   4   5
ENDBRANCH   3   4
ENDBRANCH   1   3
BRANCH   1  20
ATOM     20  O   UNL     1       7.105  -3.606  26.931  0.00  0.00    -0.268 OA
BRANCH  20  21
ATOM     21  C   UNL     1       7.688  -4.906  26.876  0.00  0.00    +0.410 C 
BRANCH  21  22
ATOM     22  O   UNL     1       7.286  -5.846  27.886  0.00  0.00    -0.406 OA
BRANCH  22  23
ATOM     23  C   UNL     1       5.964  -6.183  27.856  0.00  0.00    +0.512 C 
ATOM     24  O   UNL     1       5.208  -6.104  28.811  0.00  0.00    -0.203 OA
BRANCH  23  25
ATOM     25  O   UNL     1       5.600  -6.565  26.594  0.00  0.00    -0.431 OA
BRANCH  25  26
ATOM     26  C   UNL     1       4.204  -6.372  26.251  0.00  0.00    +0.174 C 
ATOM     27  C   UNL     1       3.750  -7.343  25.172  0.00  0.00    +0.052 C 
ATOM     28  C   UNL     1       3.994  -4.953  25.727  0.00  0.00    +0.052 C 
ENDBRANCH  25  26
ENDBRANCH  23  25
ENDBRANCH  22  23
ENDBRANCH  21  22
ENDBRANCH  20  21
ENDBRANCH   1  20
BRANCH   1  29
ATOM     29  O   UNL     1       7.418  -1.744  24.030  0.00  0.00    -0.268 OA
BRANCH  29  30
ATOM     30  C   UNL     1       7.653  -2.353  22.789  0.00  0.00    +0.410 C 
BRANCH  30  31
ATOM     31  O   UNL     1       8.672  -1.644  22.039  0.00  0.00    -0.406 OA
BRANCH  31  32
ATOM     32  C   UNL     1       9.922  -1.696  22.562  0.00  0.00    +0.512 C 
ATOM     33  O   UNL     1      10.416  -2.659  23.140  0.00  0.00    -0.203 OA
BRANCH  32  34
ATOM     34  O   UNL     1      10.545  -0.479  22.419  0.00  0.00    -0.431 OA
BRANCH  34  36
ATOM     35  C   UNL     1      10.368   0.855  24.445  0.00  0.00    +0.052 C 
ATOM     36  C   UNL     1       9.872   0.645  23.016  0.00  0.00    +0.174 C 
ATOM     37  C   UNL     1      10.128   1.903  22.189  0.00  0.00    +0.052 C 
ENDBRANCH  34  36
ENDBRANCH  32  34
ENDBRANCH  31  32
ENDBRANCH  30  31
ENDBRANCH  29  30
ENDBRANCH   1  29
TORSDOF 18
ENDMDL
MODEL 9
REMARK VINA RESULT:      -5.7      1.857      3.850
REMARK  Name = 
REMARK  23 active torsions:
REMARK  status: ('A' for Active; 'I' for Inactive)
REMARK    1  A    between atoms: C_1  and  C_2
REMARK    2  A    between atoms: C_2  and  C_3
REMARK    3  A    between atoms: C_2  and  O_4
REMARK    4  A    between atoms: O_4  and  C_5
REMARK    5  A    between atoms: C_5  and  O_7
REMARK    6  A    between atoms: O_7  and  C_8
REMARK    7  A    between atoms: C_8  and  O_9
REMARK    8  A    between atoms: O_9  and  P_10
REMARK    9  A    between atoms: P_10  and  C_12
REMARK   10  A    between atoms: P_10  and  O_27
REMARK   11  A    between atoms: C_12  and  O_13
REMARK   12  A    between atoms: O_13  and  C_14
REMARK   13  A    between atoms: C_14  and  C_15
REMARK   14  A    between atoms: C_14  and  C_16
REMARK   15  A    between atoms: C_16  and  N_17
REMARK   16  A    between atoms: C_21  and  N_26
REMARK   17  A    between atoms: O_27  and  C_28
REMARK   18  A    between atoms: C_28  and  O_29
REMARK   19  A    between atoms: O_29  and  C_30
REMARK   20  A    between atoms: C_30  and  O_32
REMARK   21  A    between atoms: O_32  and  C_33
REMARK   22  A    between atoms: C_33  and  C_34
REMARK   23  A    between atoms: C_33  and  C_35
REMARK                            x       y       z     vdW  Elec       q    Type
REMARK                         _______ _______ _______ _____ _____    ______ ____
ROOT
ATOM      1  P   UNL     1       8.139  -5.216  24.770  0.00  0.00    +0.364 P 
ATOM      2  O   UNL     1       9.631  -4.871  24.890  0.00  0.00    -0.256 OA
ENDROOT
BRANCH   1   3
ATOM      3  C   UNL     1       7.148  -3.606  25.230  0.00  0.00    +0.287 C 
BRANCH   3   4
ATOM      4  O   UNL     1       8.074  -2.663  25.813  0.00  0.00    -0.363 OA
BRANCH   4   5
ATOM      5  C   UNL     1       7.434  -1.535  26.437  0.00  0.00    +0.136 C 
ATOM      6  C   UNL     1       8.459  -0.560  27.033  0.00  0.00    +0.040 C 
BRANCH   5   7
ATOM      7  C   UNL     1       6.509  -0.780  25.447  0.00  0.00    +0.156 C 
BRANCH   7   8
ATOM      8  N   UNL     1       7.193   0.153  24.567  0.00  0.00    -0.312 N 
ATOM      9  C   UNL     1       7.954  -0.111  23.458  0.00  0.00    +0.165 A 
ATOM     10  C   UNL     1       8.530   1.109  23.129  0.00  0.00    +0.147 A 
ATOM     11  C   UNL     1       9.506   1.101  22.114  0.00  0.00    +0.147 A 
ATOM     12  N   UNL     1       9.752  -0.045  21.456  0.00  0.00    -0.219 NA
ATOM     13  C   UNL     1       9.028  -1.125  21.798  0.00  0.00    +0.225 A 
ATOM     14  N   UNL     1       7.972   2.123  23.878  0.00  0.00    -0.231 NA
ATOM     15  N   UNL     1       8.135  -1.277  22.808  0.00  0.00    -0.216 NA
ATOM     16  C   UNL     1       7.119   1.517  24.678  0.00  0.00    +0.201 A 
BRANCH  11  17
ATOM     17  N   UNL     1      10.202   2.222  21.669  0.00  0.00    -0.341 N 
ATOM     18  H   UNL     1       9.602   3.036  21.764  0.00  0.00    +0.144 HD
ATOM     19  H   UNL     1      11.111   2.288  22.113  0.00  0.00    +0.144 HD
ENDBRANCH  11  17
ENDBRANCH   7   8
ENDBRANCH   5   7
ENDBRANCH   4   5
ENDBRANCH   3   4
ENDBRANCH   1   3
BRANCH   1  20
ATOM     20  O   UNL     1       8.127  -5.730  26.421  0.00  0.00    -0.268 OA
BRANCH  20  21
ATOM     21  C   UNL     1       6.872  -5.594  27.085  0.00  0.00    +0.410 C 
BRANCH  21  22
ATOM     22  O   UNL     1       6.886  -5.615  28.522  0.00  0.00    -0.406 OA
BRANCH  22  23
ATOM     23  C   UNL     1       6.034  -6.521  29.085  0.00  0.00    +0.512 C 
ATOM     24  O   UNL     1       6.214  -7.063  30.164  0.00  0.00    -0.203 OA
BRANCH  23  25
ATOM     25  O   UNL     1       4.930  -6.688  28.295  0.00  0.00    -0.431 OA
BRANCH  25  26
ATOM     26  C   UNL     1       3.659  -6.332  28.899  0.00  0.00    +0.174 C 
ATOM     27  C   UNL     1       2.489  -6.967  28.163  0.00  0.00    +0.052 C 
ATOM     28  C   UNL     1       3.475  -4.817  28.857  0.00  0.00    +0.052 C 
ENDBRANCH  25  26
ENDBRANCH  23  25
ENDBRANCH  22  23
ENDBRANCH  21  22
ENDBRANCH  20  21
ENDBRANCH   1  20
BRANCH   1  29
ATOM     29  O   UNL     1       8.151  -4.702  23.118  0.00  0.00    -0.268 OA
BRANCH  29  30
ATOM     30  C   UNL     1       7.421  -5.383  22.132  0.00  0.00    +0.410 C 
BRANCH  30  31
ATOM     31  O   UNL     1       6.117  -5.785  22.625  0.00  0.00    -0.406 OA
BRANCH  31  32
ATOM     32  C   UNL     1       5.107  -4.917  22.370  0.00  0.00    +0.512 C 
ATOM     33  O   UNL     1       5.224  -3.821  21.830  0.00  0.00    -0.203 OA
BRANCH  32  34
ATOM     34  O   UNL     1       3.925  -5.407  22.871  0.00  0.00    -0.431 OA
BRANCH  34  36
ATOM     35  C   UNL     1       2.956  -4.775  25.011  0.00  0.00    +0.052 C 
ATOM     36  C   UNL     1       3.918  -5.709  24.279  0.00  0.00    +0.174 C 
ATOM     37  C   UNL     1       3.496  -7.160  24.497  0.00  0.00    +0.052 C 
ENDBRANCH  34  36
ENDBRANCH  32  34
ENDBRANCH  31  32
ENDBRANCH  30  31
ENDBRANCH  29  30
ENDBRANCH   1  29
TORSDOF 18
ENDMDL
