MODEL 1
REMARK VINA RESULT:      -7.1      0.000      0.000
REMARK  Name = 
REMARK  5 active torsions:
REMARK  status: ('A' for Active; 'I' for Inactive)
REMARK    1  A    between atoms: C_3  and  N_4
REMARK    2  A    between atoms: N_4  and  C_5
REMARK    3  A    between atoms: N_12  and  C_15
REMARK    4  A    between atoms: C_18  and  C_22
REMARK    5  A    between atoms: C_22  and  O_23
REMARK                            x       y       z     vdW  Elec       q    Type
REMARK                         _______ _______ _______ _____ _____    ______ ____
ROOT
ATOM      1  C   UNL     1       7.027  -4.306  24.674  0.00  0.00    +0.152 A 
ATOM      2  N   UNL     1       8.045  -5.051  25.184  0.00  0.00    -0.198 NA
ATOM      3  C   UNL     1       9.313  -4.643  25.021  0.00  0.00    +0.216 A 
ATOM      4  N   UNL     1      10.288  -5.458  25.565  0.00  0.00    -0.327 N 
ATOM      5  H   UNL     1       9.914  -6.392  25.666  0.00  0.00    +0.145 HD
ATOM      6  H   UNL     1      11.151  -5.357  25.049  0.00  0.00    +0.145 HD
ATOM      7  N   UNL     1       9.731  -3.554  24.357  0.00  0.00    -0.195 NA
ATOM      8  C   UNL     1       8.706  -2.838  23.869  0.00  0.00    +0.168 A 
ATOM      9  N   UNL     1       8.757  -1.668  23.148  0.00  0.00    -0.308 N 
ATOM     10  C   UNL     1       7.461  -1.285  22.919  0.00  0.00    +0.202 A 
ATOM     11  N   UNL     1       6.592  -2.153  23.396  0.00  0.00    -0.231 NA
ATOM     12  C   UNL     1       7.362  -3.130  23.985  0.00  0.00    +0.148 A 
ENDROOT
BRANCH   9  13
ATOM     13  C   UNL     1       9.984  -0.995  22.759  0.00  0.00    +0.113 C 
ATOM     14  C   UNL     1       9.747  -0.021  21.634  0.00  0.00    -0.006 C 
ATOM     15  C   UNL     1       9.862   1.254  22.021  0.00  0.00    -0.023 C 
ATOM     16  C   UNL     1      10.206   1.361  23.473  0.00  0.00    +0.039 C 
ATOM     17  C   UNL     1      10.654  -0.079  23.804  0.00  0.00    +0.039 C 
BRANCH  16  18
ATOM     18  C   UNL     1       9.030   1.857  24.317  0.00  0.00    +0.163 C 
BRANCH  18  19
ATOM     19  O   UNL     1       8.939   1.108  25.525  0.00  0.00    -0.394 OA
ATOM     20  H   UNL     1       8.530   0.253  25.307  0.00  0.00    +0.209 HD
ENDBRANCH  18  19
ENDBRANCH  16  18
ENDBRANCH   9  13
BRANCH   1  21
ATOM     21  N   UNL     1       5.680  -4.682  24.851  0.00  0.00    -0.324 N 
ATOM     22  H   UNL     1       5.449  -4.647  25.843  0.00  0.00    +0.148 HD
BRANCH  21  24
ATOM     23  C   UNL     1       5.324  -5.787  22.552  0.00  0.00    +0.024 C 
ATOM     24  C   UNL     1       5.154  -5.776  24.043  0.00  0.00    +0.072 C 
ATOM     25  C   UNL     1       3.967  -5.551  23.149  0.00  0.00    +0.024 C 
ENDBRANCH  21  24
ENDBRANCH   1  21
TORSDOF 5
ENDMDL
MODEL 2
REMARK VINA RESULT:      -6.7      1.974      2.628
REMARK  Name = 
REMARK  5 active torsions:
REMARK  status: ('A' for Active; 'I' for Inactive)
REMARK    1  A    between atoms: C_3  and  N_4
REMARK    2  A    between atoms: N_4  and  C_5
REMARK    3  A    between atoms: N_12  and  C_15
REMARK    4  A    between atoms: C_18  and  C_22
REMARK    5  A    between atoms: C_22  and  O_23
REMARK                            x       y       z     vdW  Elec       q    Type
REMARK                         _______ _______ _______ _____ _____    ______ ____
ROOT
ATOM      1  C   UNL     1       7.909  -4.230  24.166  0.00  0.00    +0.152 A 
ATOM      2  N   UNL     1       7.093  -4.211  25.255  0.00  0.00    -0.198 NA
ATOM      3  C   UNL     1       7.086  -3.137  26.061  0.00  0.00    +0.216 A 
ATOM      4  N   UNL     1       6.234  -3.199  27.147  0.00  0.00    -0.327 N 
ATOM      5  H   UNL     1       6.041  -4.169  27.356  0.00  0.00    +0.145 HD
ATOM      6  H   UNL     1       6.589  -2.624  27.898  0.00  0.00    +0.145 HD
ATOM      7  N   UNL     1       7.842  -2.035  25.942  0.00  0.00    -0.195 NA
ATOM      8  C   UNL     1       8.633  -2.080  24.858  0.00  0.00    +0.168 A 
ATOM      9  N   UNL     1       9.527  -1.132  24.421  0.00  0.00    -0.308 N 
ATOM     10  C   UNL     1      10.058  -1.598  23.246  0.00  0.00    +0.202 A 
ATOM     11  N   UNL     1       9.606  -2.795  22.934  0.00  0.00    -0.231 NA
ATOM     12  C   UNL     1       8.720  -3.107  23.940  0.00  0.00    +0.148 A 
ENDROOT
BRANCH   9  13
ATOM     13  C   UNL     1       9.792   0.123  25.101  0.00  0.00    +0.113 C 
ATOM     14  C   UNL     1      11.051   0.774  24.589  0.00  0.00    -0.006 C 
ATOM     15  C   UNL     1      10.808   1.884  23.882  0.00  0.00    -0.023 C 
ATOM     16  C   UNL     1       9.343   2.180  23.806  0.00  0.00    +0.039 C 
ATOM     17  C   UNL     1       8.772   1.265  24.910  0.00  0.00    +0.039 C 
BRANCH  16  18
ATOM     18  C   UNL     1       8.766   1.911  22.415  0.00  0.00    +0.163 C 
BRANCH  18  19
ATOM     19  O   UNL     1       9.786   2.022  21.427  0.00  0.00    -0.394 OA
ATOM     20  H   UNL     1       9.587   1.374  20.729  0.00  0.00    +0.209 HD
ENDBRANCH  18  19
ENDBRANCH  16  18
ENDBRANCH   9  13
BRANCH   1  21
ATOM     21  N   UNL     1       7.923  -5.324  23.278  0.00  0.00    -0.324 N 
ATOM     22  H   UNL     1       8.835  -5.778  23.319  0.00  0.00    +0.148 HD
BRANCH  21  24
ATOM     23  C   UNL     1       5.887  -4.594  21.880  0.00  0.00    +0.024 C 
ATOM     24  C   UNL     1       7.267  -5.176  21.985  0.00  0.00    +0.072 C 
ATOM     25  C   UNL     1       6.104  -6.056  21.623  0.00  0.00    +0.024 C 
ENDBRANCH  21  24
ENDBRANCH   1  21
TORSDOF 5
ENDMDL
MODEL 3
REMARK VINA RESULT:      -6.3      2.692      6.591
REMARK  Name = 
REMARK  5 active torsions:
REMARK  status: ('A' for Active; 'I' for Inactive)
REMARK    1  A    between atoms: C_3  and  N_4
REMARK    2  A    between atoms: N_4  and  C_5
REMARK    3  A    between atoms: N_12  and  C_15
REMARK    4  A    between atoms: C_18  and  C_22
REMARK    5  A    between atoms: C_22  and  O_23
REMARK                            x       y       z     vdW  Elec       q    Type
REMARK                         _______ _______ _______ _____ _____    ______ ____
ROOT
ATOM      1  C   UNL     1       8.350  -3.256  23.637  0.00  0.00    +0.152 A 
ATOM      2  N   UNL     1       9.386  -3.939  24.197  0.00  0.00    -0.198 NA
ATOM      3  C   UNL     1       9.150  -4.796  25.202  0.00  0.00    +0.216 A 
ATOM      4  N   UNL     1      10.256  -5.445  25.719  0.00  0.00    -0.327 N 
ATOM      5  H   UNL     1      11.081  -4.900  25.510  0.00  0.00    +0.145 HD
ATOM      6  H   UNL     1      10.093  -5.690  26.685  0.00  0.00    +0.145 HD
ATOM      7  N   UNL     1       7.966  -5.059  25.777  0.00  0.00    -0.195 NA
ATOM      8  C   UNL     1       6.964  -4.375  25.202  0.00  0.00    +0.168 A 
ATOM      9  N   UNL     1       5.628  -4.399  25.523  0.00  0.00    -0.308 N 
ATOM     10  C   UNL     1       4.988  -3.582  24.628  0.00  0.00    +0.202 A 
ATOM     11  N   UNL     1       5.827  -3.000  23.796  0.00  0.00    -0.231 NA
ATOM     12  C   UNL     1       7.065  -3.485  24.152  0.00  0.00    +0.148 A 
ENDROOT
BRANCH   9  13
ATOM     13  C   UNL     1       5.056  -5.189  26.601  0.00  0.00    +0.113 C 
ATOM     14  C   UNL     1       3.610  -4.836  26.836  0.00  0.00    -0.006 C 
ATOM     15  C   UNL     1       2.773  -5.811  26.464  0.00  0.00    -0.023 C 
ATOM     16  C   UNL     1       3.511  -6.996  25.924  0.00  0.00    +0.039 C 
ATOM     17  C   UNL     1       4.956  -6.713  26.389  0.00  0.00    +0.039 C 
BRANCH  16  18
ATOM     18  C   UNL     1       3.361  -7.135  24.408  0.00  0.00    +0.163 C 
BRANCH  18  19
ATOM     19  O   UNL     1       4.629  -7.378  23.807  0.00  0.00    -0.394 OA
ATOM     20  H   UNL     1       4.836  -6.611  23.245  0.00  0.00    +0.209 HD
ENDBRANCH  18  19
ENDBRANCH  16  18
ENDBRANCH   9  13
BRANCH   1  21
ATOM     21  N   UNL     1       8.551  -2.371  22.559  0.00  0.00    -0.324 N 
ATOM     22  H   UNL     1       8.166  -2.783  21.710  0.00  0.00    +0.148 HD
BRANCH  21  24
ATOM     23  C   UNL     1      10.058  -0.425  23.318  0.00  0.00    +0.024 C 
ATOM     24  C   UNL     1       9.814  -1.647  22.482  0.00  0.00    +0.072 C 
ATOM     25  C   UNL     1       9.870  -0.292  21.835  0.00  0.00    +0.024 C 
ENDBRANCH  21  24
ENDBRANCH   1  21
TORSDOF 5
ENDMDL
MODEL 4
REMARK VINA RESULT:      -6.3      2.748      6.576
REMARK  Name = 
REMARK  5 active torsions:
REMARK  status: ('A' for Active; 'I' for Inactive)
REMARK    1  A    between atoms: C_3  and  N_4
REMARK    2  A    between atoms: N_4  and  C_5
REMARK    3  A    between atoms: N_12  and  C_15
REMARK    4  A    between atoms: C_18  and  C_22
REMARK    5  A    between atoms: C_22  and  O_23
REMARK                            x       y       z     vdW  Elec       q    Type
REMARK                         _______ _______ _______ _____ _____    ______ ____
ROOT
ATOM      1  C   UNL     1       8.284   1.337  22.356  0.00  0.00    +0.152 A 
ATOM      2  N   UNL     1       7.220   1.897  22.994  0.00  0.00    -0.198 NA
ATOM      3  C   UNL     1       6.306   1.107  23.579  0.00  0.00    +0.216 A 
ATOM      4  N   UNL     1       5.254   1.753  24.200  0.00  0.00    -0.327 N 
ATOM      5  H   UNL     1       5.154   2.676  23.799  0.00  0.00    +0.145 HD
ATOM      6  H   UNL     1       4.437   1.158  24.206  0.00  0.00    +0.145 HD
ATOM      7  N   UNL     1       6.287  -0.235  23.589  0.00  0.00    -0.195 NA
ATOM      8  C   UNL     1       7.350  -0.758  22.957  0.00  0.00    +0.168 A 
ATOM      9  N   UNL     1       7.661  -2.085  22.778  0.00  0.00    -0.308 N 
ATOM     10  C   UNL     1       8.864  -2.127  22.123  0.00  0.00    +0.202 A 
ATOM     11  N   UNL     1       9.313  -0.925  21.827  0.00  0.00    -0.231 NA
ATOM     12  C   UNL     1       8.369  -0.063  22.337  0.00  0.00    +0.148 A 
ENDROOT
BRANCH   9  13
ATOM     13  C   UNL     1       6.844  -3.191  23.247  0.00  0.00    +0.113 C 
ATOM     14  C   UNL     1       7.249  -4.490  22.600  0.00  0.00    -0.006 C 
ATOM     15  C   UNL     1       7.841  -5.332  23.455  0.00  0.00    -0.023 C 
ATOM     16  C   UNL     1       7.927  -4.749  24.831  0.00  0.00    +0.039 C 
ATOM     17  C   UNL     1       6.942  -3.564  24.741  0.00  0.00    +0.039 C 
BRANCH  16  18
ATOM     18  C   UNL     1       9.355  -4.346  25.204  0.00  0.00    +0.163 C 
BRANCH  18  19
ATOM     19  O   UNL     1      10.255  -5.417  24.943  0.00  0.00    -0.394 OA
ATOM     20  H   UNL     1      10.182  -5.634  23.997  0.00  0.00    +0.209 HD
ENDBRANCH  18  19
ENDBRANCH  16  18
ENDBRANCH   9  13
BRANCH   1  21
ATOM     21  N   UNL     1       9.283   2.131  21.758  0.00  0.00    -0.324 N 
ATOM     22  H   UNL     1       9.267   1.987  20.749  0.00  0.00    +0.148 HD
BRANCH  21  24
ATOM     23  C   UNL     1      10.685   2.063  23.917  0.00  0.00    +0.024 C 
ATOM     24  C   UNL     1      10.569   2.253  22.432  0.00  0.00    +0.072 C 
ATOM     25  C   UNL     1      10.846   3.431  23.323  0.00  0.00    +0.024 C 
ENDBRANCH  21  24
ENDBRANCH   1  21
TORSDOF 5
ENDMDL
MODEL 5
REMARK VINA RESULT:      -5.9      2.544      4.112
REMARK  Name = 
REMARK  5 active torsions:
REMARK  status: ('A' for Active; 'I' for Inactive)
REMARK    1  A    between atoms: C_3  and  N_4
REMARK    2  A    between atoms: N_4  and  C_5
REMARK    3  A    between atoms: N_12  and  C_15
REMARK    4  A    between atoms: C_18  and  C_22
REMARK    5  A    between atoms: C_22  and  O_23
REMARK                            x       y       z     vdW  Elec       q    Type
REMARK                         _______ _______ _______ _____ _____    ______ ____
ROOT
ATOM      1  C   UNL     1       4.061  -6.300  23.773  0.00  0.00    +0.152 A 
ATOM      2  N   UNL     1       4.175  -6.940  24.969  0.00  0.00    -0.198 NA
ATOM      3  C   UNL     1       5.009  -6.456  25.903  0.00  0.00    +0.216 A 
ATOM      4  N   UNL     1       5.071  -7.166  27.087  0.00  0.00    -0.327 N 
ATOM      5  H   UNL     1       4.768  -8.115  26.915  0.00  0.00    +0.145 HD
ATOM      6  H   UNL     1       5.975  -7.038  27.520  0.00  0.00    +0.145 HD
ATOM      7  N   UNL     1       5.810  -5.385  25.793  0.00  0.00    -0.195 NA
ATOM      8  C   UNL     1       5.672  -4.773  24.606  0.00  0.00    +0.168 A 
ATOM      9  N   UNL     1       6.323  -3.651  24.150  0.00  0.00    -0.308 N 
ATOM     10  C   UNL     1       5.815  -3.374  22.907  0.00  0.00    +0.202 A 
ATOM     11  N   UNL     1       4.929  -4.267  22.519  0.00  0.00    -0.231 NA
ATOM     12  C   UNL     1       4.839  -5.150  23.572  0.00  0.00    +0.148 A 
ENDROOT
BRANCH   9  13
ATOM     13  C   UNL     1       7.327  -2.921  24.904  0.00  0.00    +0.113 C 
ATOM     14  C   UNL     1       8.649  -3.645  24.909  0.00  0.00    -0.006 C 
ATOM     15  C   UNL     1       9.584  -3.021  24.184  0.00  0.00    -0.023 C 
ATOM     16  C   UNL     1       9.057  -1.761  23.572  0.00  0.00    +0.039 C 
ATOM     17  C   UNL     1       7.752  -1.538  24.367  0.00  0.00    +0.039 C 
BRANCH  16  18
ATOM     18  C   UNL     1       8.852  -1.888  22.062  0.00  0.00    +0.163 C 
BRANCH  18  19
ATOM     19  O   UNL     1      10.044  -1.533  21.370  0.00  0.00    -0.394 OA
ATOM     20  H   UNL     1      10.795  -1.840  21.907  0.00  0.00    +0.209 HD
ENDBRANCH  18  19
ENDBRANCH  16  18
ENDBRANCH   9  13
BRANCH   1  21
ATOM     21  N   UNL     1       3.173  -6.757  22.778  0.00  0.00    -0.324 N 
ATOM     22  H   UNL     1       3.343  -6.243  21.914  0.00  0.00    +0.148 HD
BRANCH  21  24
ATOM     23  C   UNL     1       1.218  -8.426  22.938  0.00  0.00    +0.024 C 
ATOM     24  C   UNL     1       1.799  -7.059  23.159  0.00  0.00    +0.072 C 
ATOM     25  C   UNL     1       0.751  -7.269  22.104  0.00  0.00    +0.024 C 
ENDBRANCH  21  24
ENDBRANCH   1  21
TORSDOF 5
ENDMDL
MODEL 6
REMARK VINA RESULT:      -5.9      2.541      6.406
REMARK  Name = 
REMARK  5 active torsions:
REMARK  status: ('A' for Active; 'I' for Inactive)
REMARK    1  A    between atoms: C_3  and  N_4
REMARK    2  A    between atoms: N_4  and  C_5
REMARK    3  A    between atoms: N_12  and  C_15
REMARK    4  A    between atoms: C_18  and  C_22
REMARK    5  A    between atoms: C_22  and  O_23
REMARK                            x       y       z     vdW  Elec       q    Type
REMARK                         _______ _______ _______ _____ _____    ______ ____
ROOT
ATOM      1  C   UNL     1       9.196   0.207  24.543  0.00  0.00    +0.152 A 
ATOM      2  N   UNL     1       9.629   0.072  23.261  0.00  0.00    -0.198 NA
ATOM      3  C   UNL     1       9.613  -1.138  22.679  0.00  0.00    +0.216 A 
ATOM      4  N   UNL     1      10.074  -1.191  21.377  0.00  0.00    -0.327 N 
ATOM      5  H   UNL     1      10.681  -0.399  21.212  0.00  0.00    +0.145 HD
ATOM      6  H   UNL     1      10.446  -2.110  21.179  0.00  0.00    +0.145 HD
ATOM      7  N   UNL     1       9.233  -2.297  23.238  0.00  0.00    -0.195 NA
ATOM      8  C   UNL     1       8.808  -2.132  24.500  0.00  0.00    +0.168 A 
ATOM      9  N   UNL     1       8.342  -3.089  25.370  0.00  0.00    -0.308 N 
ATOM     10  C   UNL     1       7.975  -2.438  26.519  0.00  0.00    +0.202 A 
ATOM     11  N   UNL     1       8.223  -1.146  26.462  0.00  0.00    -0.231 NA
ATOM     12  C   UNL     1       8.751  -0.947  25.206  0.00  0.00    +0.148 A 
ENDROOT
BRANCH   9  13
ATOM     13  C   UNL     1       8.249  -4.505  25.060  0.00  0.00    +0.113 C 
ATOM     14  C   UNL     1       7.422  -5.241  26.082  0.00  0.00    -0.006 C 
ATOM     15  C   UNL     1       6.247  -5.657  25.596  0.00  0.00    -0.023 C 
ATOM     16  C   UNL     1       6.083  -5.282  24.156  0.00  0.00    +0.039 C 
ATOM     17  C   UNL     1       7.525  -4.902  23.756  0.00  0.00    +0.039 C 
BRANCH  16  18
ATOM     18  C   UNL     1       5.065  -4.157  23.959  0.00  0.00    +0.163 C 
BRANCH  18  19
ATOM     19  O   UNL     1       4.359  -4.338  22.736  0.00  0.00    -0.394 OA
ATOM     20  H   UNL     1       4.645  -5.188  22.358  0.00  0.00    +0.209 HD
ENDBRANCH  18  19
ENDBRANCH  16  18
ENDBRANCH   9  13
BRANCH   1  21
ATOM     21  N   UNL     1       9.167   1.464  25.180  0.00  0.00    -0.324 N 
ATOM     22  H   UNL     1       9.025   1.331  26.181  0.00  0.00    +0.148 HD
BRANCH  21  24
ATOM     23  C   UNL     1       9.256   3.683  23.876  0.00  0.00    +0.024 C 
ATOM     24  C   UNL     1       8.483   2.565  24.512  0.00  0.00    +0.072 C 
ATOM     25  C   UNL     1       8.472   3.934  25.131  0.00  0.00    +0.024 C 
ENDBRANCH  21  24
ENDBRANCH   1  21
TORSDOF 5
ENDMDL
MODEL 7
REMARK VINA RESULT:      -5.8      2.752      6.727
REMARK  Name = 
REMARK  5 active torsions:
REMARK  status: ('A' for Active; 'I' for Inactive)
REMARK    1  A    between atoms: C_3  and  N_4
REMARK    2  A    between atoms: N_4  and  C_5
REMARK    3  A    between atoms: N_12  and  C_15
REMARK    4  A    between atoms: C_18  and  C_22
REMARK    5  A    between atoms: C_22  and  O_23
REMARK                            x       y       z     vdW  Elec       q    Type
REMARK                         _______ _______ _______ _____ _____    ______ ____
ROOT
ATOM      1  C   UNL     1       7.672   0.586  22.970  0.00  0.00    +0.152 A 
ATOM      2  N   UNL     1       6.816   1.218  23.818  0.00  0.00    -0.198 NA
ATOM      3  C   UNL     1       5.978   0.494  24.576  0.00  0.00    +0.216 A 
ATOM      4  N   UNL     1       5.137   1.212  25.406  0.00  0.00    -0.327 N 
ATOM      5  H   UNL     1       5.037   2.149  25.039  0.00  0.00    +0.145 HD
ATOM      6  H   UNL     1       4.291   0.687  25.579  0.00  0.00    +0.145 HD
ATOM      7  N   UNL     1       5.846  -0.841  24.583  0.00  0.00    -0.195 NA
ATOM      8  C   UNL     1       6.705  -1.437  23.741  0.00  0.00    +0.168 A 
ATOM      9  N   UNL     1       6.856  -2.781  23.495  0.00  0.00    -0.308 N 
ATOM     10  C   UNL     1       7.890  -2.908  22.603  0.00  0.00    +0.202 A 
ATOM     11  N   UNL     1       8.370  -1.742  22.225  0.00  0.00    -0.231 NA
ATOM     12  C   UNL     1       7.630  -0.816  22.926  0.00  0.00    +0.148 A 
ENDROOT
BRANCH   9  13
ATOM     13  C   UNL     1       6.062  -3.825  24.118  0.00  0.00    +0.113 C 
ATOM     14  C   UNL     1       4.740  -4.006  23.418  0.00  0.00    -0.006 C 
ATOM     15  C   UNL     1       4.663  -5.161  22.747  0.00  0.00    -0.023 C 
ATOM     16  C   UNL     1       5.918  -5.965  22.888  0.00  0.00    +0.039 C 
ATOM     17  C   UNL     1       6.617  -5.263  24.073  0.00  0.00    +0.039 C 
BRANCH  16  18
ATOM     18  C   UNL     1       6.745  -5.985  21.602  0.00  0.00    +0.163 C 
BRANCH  18  19
ATOM     19  O   UNL     1       5.996  -5.432  20.525  0.00  0.00    -0.394 OA
ATOM     20  H   UNL     1       6.517  -5.557  19.713  0.00  0.00    +0.209 HD
ENDBRANCH  18  19
ENDBRANCH  16  18
ENDBRANCH   9  13
BRANCH   1  21
ATOM     21  N   UNL     1       8.590   1.308  22.180  0.00  0.00    -0.324 N 
ATOM     22  H   UNL     1       8.395   1.135  21.195  0.00  0.00    +0.148 HD
BRANCH  21  24
ATOM     23  C   UNL     1      10.320   1.537  24.074  0.00  0.00    +0.024 C 
ATOM     24  C   UNL     1       9.978   1.379  22.621  0.00  0.00    +0.072 C 
ATOM     25  C   UNL     1      10.544   2.677  23.124  0.00  0.00    +0.024 C 
ENDBRANCH  21  24
ENDBRANCH   1  21
TORSDOF 5
ENDMDL
MODEL 8
REMARK VINA RESULT:      -5.7      3.079      6.617
REMARK  Name = 
REMARK  5 active torsions:
REMARK  status: ('A' for Active; 'I' for Inactive)
REMARK    1  A    between atoms: C_3  and  N_4
REMARK    2  A    between atoms: N_4  and  C_5
REMARK    3  A    between atoms: N_12  and  C_15
REMARK    4  A    between atoms: C_18  and  C_22
REMARK    5  A    between atoms: C_22  and  O_23
REMARK                            x       y       z     vdW  Elec       q    Type
REMARK                         _______ _______ _______ _____ _____    ______ ____
ROOT
ATOM      1  C   UNL     1       7.001  -0.012  23.182  0.00  0.00    +0.152 A 
ATOM      2  N   UNL     1       8.120  -0.146  22.419  0.00  0.00    -0.198 NA
ATOM      3  C   UNL     1       8.673  -1.359  22.259  0.00  0.00    +0.216 A 
ATOM      4  N   UNL     1       9.810  -1.409  21.474  0.00  0.00    -0.327 N 
ATOM      5  H   UNL     1      10.237  -0.493  21.459  0.00  0.00    +0.145 HD
ATOM      6  H   UNL     1      10.389  -2.188  21.754  0.00  0.00    +0.145 HD
ATOM      7  N   UNL     1       8.262  -2.512  22.809  0.00  0.00    -0.195 NA
ATOM      8  C   UNL     1       7.156  -2.349  23.552  0.00  0.00    +0.168 A 
ATOM      9  N   UNL     1       6.457  -3.304  24.252  0.00  0.00    -0.308 N 
ATOM     10  C   UNL     1       5.373  -2.676  24.809  0.00  0.00    +0.202 A 
ATOM     11  N   UNL     1       5.362  -1.383  24.557  0.00  0.00    -0.231 NA
ATOM     12  C   UNL     1       6.477  -1.169  23.778  0.00  0.00    +0.148 A 
ENDROOT
BRANCH   9  13
ATOM     13  C   UNL     1       6.829  -4.707  24.324  0.00  0.00    +0.113 C 
ATOM     14  C   UNL     1       6.176  -5.392  25.496  0.00  0.00    -0.006 C 
ATOM     15  C   UNL     1       5.233  -6.266  25.125  0.00  0.00    -0.023 C 
ATOM     16  C   UNL     1       5.094  -6.329  23.636  0.00  0.00    +0.039 C 
ATOM     17  C   UNL     1       6.382  -5.621  23.164  0.00  0.00    +0.039 C 
BRANCH  16  18
ATOM     18  C   UNL     1       3.805  -5.671  23.142  0.00  0.00    +0.163 C 
BRANCH  18  19
ATOM     19  O   UNL     1       2.857  -6.664  22.764  0.00  0.00    -0.394 OA
ATOM     20  H   UNL     1       2.569  -6.461  21.858  0.00  0.00    +0.209 HD
ENDBRANCH  18  19
ENDBRANCH  16  18
ENDBRANCH   9  13
BRANCH   1  21
ATOM     21  N   UNL     1       6.372   1.238  23.349  0.00  0.00    -0.324 N 
ATOM     22  H   UNL     1       5.459   1.099  23.782  0.00  0.00    +0.148 HD
BRANCH  21  24
ATOM     23  C   UNL     1       7.437   3.397  22.435  0.00  0.00    +0.024 C 
ATOM     24  C   UNL     1       6.505   2.229  22.289  0.00  0.00    +0.072 C 
ATOM     25  C   UNL     1       5.952   3.613  22.476  0.00  0.00    +0.024 C 
ENDBRANCH  21  24
ENDBRANCH   1  21
TORSDOF 5
ENDMDL
MODEL 9
REMARK VINA RESULT:      -5.7      2.854      6.067
REMARK  Name = 
REMARK  5 active torsions:
REMARK  status: ('A' for Active; 'I' for Inactive)
REMARK    1  A    between atoms: C_3  and  N_4
REMARK    2  A    between atoms: N_4  and  C_5
REMARK    3  A    between atoms: N_12  and  C_15
REMARK    4  A    between atoms: C_18  and  C_22
REMARK    5  A    between atoms: C_22  and  O_23
REMARK                            x       y       z     vdW  Elec       q    Type
REMARK                         _______ _______ _______ _____ _____    ______ ____
ROOT
ATOM      1  C   UNL     1       8.893   0.382  24.037  0.00  0.00    +0.152 A 
ATOM      2  N   UNL     1       9.071   0.470  25.384  0.00  0.00    -0.198 NA
ATOM      3  C   UNL     1       8.986  -0.637  26.138  0.00  0.00    +0.216 A 
ATOM      4  N   UNL     1       9.173  -0.462  27.497  0.00  0.00    -0.327 N 
ATOM      5  H   UNL     1       8.977   0.502  27.732  0.00  0.00    +0.145 HD
ATOM      6  H   UNL     1       8.676  -1.176  28.009  0.00  0.00    +0.145 HD
ATOM      7  N   UNL     1       8.703  -1.880  25.718  0.00  0.00    -0.195 NA
ATOM      8  C   UNL     1       8.536  -1.936  24.388  0.00  0.00    +0.168 A 
ATOM      9  N   UNL     1       8.245  -3.036  23.616  0.00  0.00    -0.308 N 
ATOM     10  C   UNL     1       8.227  -2.614  22.312  0.00  0.00    +0.202 A 
ATOM     11  N   UNL     1       8.432  -1.317  22.204  0.00  0.00    -0.231 NA
ATOM     12  C   UNL     1       8.619  -0.884  23.498  0.00  0.00    +0.148 A 
ENDROOT
BRANCH   9  13
ATOM     13  C   UNL     1       8.039  -4.376  24.138  0.00  0.00    +0.113 C 
ATOM     14  C   UNL     1       6.795  -4.453  24.984  0.00  0.00    -0.006 C 
ATOM     15  C   UNL     1       5.819  -5.162  24.406  0.00  0.00    -0.023 C 
ATOM     16  C   UNL     1       6.241  -5.696  23.073  0.00  0.00    +0.039 C 
ATOM     17  C   UNL     1       7.773  -5.503  23.120  0.00  0.00    +0.039 C 
BRANCH  16  18
ATOM     18  C   UNL     1       5.558  -4.970  21.912  0.00  0.00    +0.163 C 
BRANCH  18  19
ATOM     19  O   UNL     1       5.986  -5.516  20.668  0.00  0.00    -0.394 OA
ATOM     20  H   UNL     1       6.922  -5.766  20.767  0.00  0.00    +0.209 HD
ENDBRANCH  18  19
ENDBRANCH  16  18
ENDBRANCH   9  13
BRANCH   1  21
ATOM     21  N   UNL     1       9.005   1.514  23.206  0.00  0.00    -0.324 N 
ATOM     22  H   UNL     1       9.976   1.825  23.191  0.00  0.00    +0.148 HD
BRANCH  21  24
ATOM     23  C   UNL     1       6.524   2.149  22.934  0.00  0.00    +0.024 C 
ATOM     24  C   UNL     1       7.946   2.515  23.249  0.00  0.00    +0.072 C 
ATOM     25  C   UNL     1       7.310   2.997  21.976  0.00  0.00    +0.024 C 
ENDBRANCH  21  24
ENDBRANCH   1  21
TORSDOF 5
ENDMDL
