MODEL 1
REMARK VINA RESULT:      -6.2      0.000      0.000
REMARK  Name = 
REMARK  5 active torsions:
REMARK  status: ('A' for Active; 'I' for Inactive)
REMARK    1  A    between atoms: C5M_1  and  C5_2
REMARK    2  A    between atoms: N1_4  and  C1*_10
REMARK    3  A    between atoms: C3*_13  and  O3*_20
REMARK    4  A    between atoms: C4*_15  and  C5*_18
REMARK    5  A    between atoms: C5*_18  and  O5*_19
REMARK                            x       y       z     vdW  Elec       q    Type
REMARK                         _______ _______ _______ _____ _____    ______ ____
ROOT
ATOM      1  C5M   T A   1       5.347  -6.178  26.534  0.00  0.00    +0.051 C 
ATOM      2  C5    T A   1       5.540  -5.891  25.080  0.00  0.00    +0.030 A 
ATOM      3  C4    T A   1       4.808  -6.748  24.119  0.00  0.00    +0.257 A 
ATOM      4  O4    T A   1       4.062  -7.648  24.488  0.00  0.00    -0.267 OA
ATOM      5  N3    T A   1       5.005  -6.465  22.799  0.00  0.00    -0.275 N 
ATOM      6  H3    T A   1       4.496  -7.023  22.132  0.00  0.00    +0.173 HD
ATOM      7  C2    T A   1       5.753  -5.438  22.299  0.00  0.00    +0.331 A 
ATOM      8  O2    T A   1       5.774  -5.219  21.088  0.00  0.00    -0.246 OA
ATOM      9  N1    T A   1       6.452  -4.686  23.233  0.00  0.00    -0.274 N 
ATOM     10  C6    T A   1       6.320  -4.917  24.590  0.00  0.00    +0.101 A 
ENDROOT
BRANCH   9  11
ATOM     11  C1*   T A   1       7.262  -3.592  22.716  0.00  0.00    +0.226 C 
ATOM     12  O4*   T A   1       8.474  -3.427  23.477  0.00  0.00    -0.348 OA
ATOM     13  C4*   T A   1       8.807  -2.018  23.467  0.00  0.00    +0.175 C 
ATOM     14  C3*   T A   1       7.738  -1.309  22.632  0.00  0.00    +0.150 C 
ATOM     15  C2*   T A   1       6.561  -2.246  22.751  0.00  0.00    +0.088 C 
BRANCH  14  16
ATOM     16  O3*   T A   1       7.437  -0.006  23.109  0.00  0.00    -0.389 OA
ATOM     17  H3*   T A   1       7.635   0.039  24.060  0.00  0.00    +0.210 HD
ENDBRANCH  14  16
BRANCH  13  18
ATOM     18  C5*   T A   1      10.220  -1.844  22.908  0.00  0.00    +0.190 C 
BRANCH  18  19
ATOM     19  O5*   T A   1      10.178  -1.523  21.519  0.00  0.00    -0.392 OA
ATOM     20  H5*   T A   1      11.053  -1.756  21.159  0.00  0.00    +0.210 HD
ENDBRANCH  18  19
ENDBRANCH  13  18
ENDBRANCH   9  11
TORSDOF 4
ENDMDL
MODEL 2
REMARK VINA RESULT:      -6.0      2.841      2.964
REMARK  Name = 
REMARK  5 active torsions:
REMARK  status: ('A' for Active; 'I' for Inactive)
REMARK    1  A    between atoms: C5M_1  and  C5_2
REMARK    2  A    between atoms: N1_4  and  C1*_10
REMARK    3  A    between atoms: C3*_13  and  O3*_20
REMARK    4  A    between atoms: C4*_15  and  C5*_18
REMARK    5  A    between atoms: C5*_18  and  O5*_19
REMARK                            x       y       z     vdW  Elec       q    Type
REMARK                         _______ _______ _______ _____ _____    ______ ____
ROOT
ATOM      1  C5M   T A   1       5.317  -4.136  28.004  0.00  0.00    +0.051 C 
ATOM      2  C5    T A   1       6.469  -4.348  27.077  0.00  0.00    +0.030 A 
ATOM      3  C4    T A   1       7.353  -5.506  27.349  0.00  0.00    +0.257 A 
ATOM      4  O4    T A   1       7.148  -6.273  28.283  0.00  0.00    -0.267 OA
ATOM      5  N3    T A   1       8.397  -5.673  26.488  0.00  0.00    -0.275 N 
ATOM      6  H3    T A   1       8.994  -6.470  26.644  0.00  0.00    +0.173 HD
ATOM      7  C2    T A   1       8.656  -4.918  25.380  0.00  0.00    +0.331 A 
ATOM      8  O2    T A   1       9.572  -5.227  24.619  0.00  0.00    -0.246 OA
ATOM      9  N1    T A   1       7.828  -3.820  25.187  0.00  0.00    -0.274 N 
ATOM     10  C6    T A   1       6.755  -3.571  26.022  0.00  0.00    +0.101 A 
ENDROOT
BRANCH   9  11
ATOM     11  C1*   T A   1       8.096  -2.999  24.015  0.00  0.00    +0.226 C 
ATOM     12  O4*   T A   1       9.170  -2.070  24.256  0.00  0.00    -0.348 OA
ATOM     13  C4*   T A   1       8.900  -0.878  23.480  0.00  0.00    +0.175 C 
ATOM     14  C3*   T A   1       7.596  -1.124  22.717  0.00  0.00    +0.150 C 
ATOM     15  C2*   T A   1       6.910  -2.159  23.577  0.00  0.00    +0.088 C 
BRANCH  14  16
ATOM     16  O3*   T A   1       6.814   0.051  22.565  0.00  0.00    -0.389 OA
ATOM     17  H3*   T A   1       7.394   0.790  22.317  0.00  0.00    +0.210 HD
ENDBRANCH  14  16
BRANCH  13  18
ATOM     18  C5*   T A   1      10.091  -0.601  22.561  0.00  0.00    +0.190 C 
BRANCH  18  19
ATOM     19  O5*   T A   1      10.124  -1.534  21.483  0.00  0.00    -0.392 OA
ATOM     20  H5*   T A   1       9.355  -2.120  21.606  0.00  0.00    +0.210 HD
ENDBRANCH  18  19
ENDBRANCH  13  18
ENDBRANCH   9  11
TORSDOF 4
ENDMDL
MODEL 3
REMARK VINA RESULT:      -6.0      3.351      6.442
REMARK  Name = 
REMARK  5 active torsions:
REMARK  status: ('A' for Active; 'I' for Inactive)
REMARK    1  A    between atoms: C5M_1  and  C5_2
REMARK    2  A    between atoms: N1_4  and  C1*_10
REMARK    3  A    between atoms: C3*_13  and  O3*_20
REMARK    4  A    between atoms: C4*_15  and  C5*_18
REMARK    5  A    between atoms: C5*_18  and  O5*_19
REMARK                            x       y       z     vdW  Elec       q    Type
REMARK                         _______ _______ _______ _____ _____    ______ ____
ROOT
ATOM      1  C5M   T A   1      11.222   1.123  24.334  0.00  0.00    +0.051 C 
ATOM      2  C5    T A   1      10.002   0.339  23.975  0.00  0.00    +0.030 A 
ATOM      3  C4    T A   1       9.052   0.964  23.025  0.00  0.00    +0.257 A 
ATOM      4  O4    T A   1       9.254   2.070  22.537  0.00  0.00    -0.267 OA
ATOM      5  N3    T A   1       7.947   0.226  22.717  0.00  0.00    -0.275 N 
ATOM      6  H3    T A   1       7.302   0.625  22.054  0.00  0.00    +0.173 HD
ATOM      7  C2    T A   1       7.678  -1.041  23.150  0.00  0.00    +0.331 A 
ATOM      8  O2    T A   1       6.696  -1.647  22.722  0.00  0.00    -0.246 OA
ATOM      9  N1    T A   1       8.574  -1.571  24.068  0.00  0.00    -0.274 N 
ATOM     10  C6    T A   1       9.712  -0.882  24.445  0.00  0.00    +0.101 A 
ENDROOT
BRANCH   9  11
ATOM     11  C1*   T A   1       8.298  -2.918  24.547  0.00  0.00    +0.226 C 
ATOM     12  O4*   T A   1       7.929  -2.918  25.939  0.00  0.00    -0.348 OA
ATOM     13  C4*   T A   1       8.402  -4.158  26.517  0.00  0.00    +0.175 C 
ATOM     14  C3*   T A   1       9.076  -4.950  25.392  0.00  0.00    +0.150 C 
ATOM     15  C2*   T A   1       9.483  -3.860  24.430  0.00  0.00    +0.088 C 
BRANCH  14  16
ATOM     16  O3*   T A   1      10.186  -5.712  25.841  0.00  0.00    -0.389 OA
ATOM     17  H3*   T A   1       9.942  -6.184  26.655  0.00  0.00    +0.210 HD
ENDBRANCH  14  16
BRANCH  13  18
ATOM     18  C5*   T A   1       7.222  -4.897  27.148  0.00  0.00    +0.190 C 
BRANCH  18  19
ATOM     19  O5*   T A   1       7.666  -6.068  27.831  0.00  0.00    -0.392 OA
ATOM     20  H5*   T A   1       7.929  -6.703  27.140  0.00  0.00    +0.210 HD
ENDBRANCH  18  19
ENDBRANCH  13  18
ENDBRANCH   9  11
TORSDOF 4
ENDMDL
MODEL 4
REMARK VINA RESULT:      -5.9      2.762      3.306
REMARK  Name = 
REMARK  5 active torsions:
REMARK  status: ('A' for Active; 'I' for Inactive)
REMARK    1  A    between atoms: C5M_1  and  C5_2
REMARK    2  A    between atoms: N1_4  and  C1*_10
REMARK    3  A    between atoms: C3*_13  and  O3*_20
REMARK    4  A    between atoms: C4*_15  and  C5*_18
REMARK    5  A    between atoms: C5*_18  and  O5*_19
REMARK                            x       y       z     vdW  Elec       q    Type
REMARK                         _______ _______ _______ _____ _____    ______ ____
ROOT
ATOM      1  C5M   T A   1       4.842  -4.213  25.364  0.00  0.00    +0.051 C 
ATOM      2  C5    T A   1       6.329  -4.357  25.370  0.00  0.00    +0.030 A 
ATOM      3  C4    T A   1       6.892  -5.540  26.061  0.00  0.00    +0.257 A 
ATOM      4  O4    T A   1       6.177  -6.381  26.596  0.00  0.00    -0.267 OA
ATOM      5  N3    T A   1       8.251  -5.644  26.052  0.00  0.00    -0.275 N 
ATOM      6  H3    T A   1       8.650  -6.455  26.497  0.00  0.00    +0.173 HD
ATOM      7  C2    T A   1       9.119  -4.801  25.418  0.00  0.00    +0.331 A 
ATOM      8  O2    T A   1      10.323  -5.054  25.394  0.00  0.00    -0.246 OA
ATOM      9  N1    T A   1       8.552  -3.685  24.818  0.00  0.00    -0.274 N 
ATOM     10  C6    T A   1       7.182  -3.498  24.794  0.00  0.00    +0.101 A 
ENDROOT
BRANCH   9  11
ATOM     11  C1*   T A   1       9.464  -2.772  24.144  0.00  0.00    +0.226 C 
ATOM     12  O4*   T A   1       9.354  -1.435  24.668  0.00  0.00    -0.348 OA
ATOM     13  C4*   T A   1       9.623  -0.516  23.583  0.00  0.00    +0.175 C 
ATOM     14  C3*   T A   1       9.930  -1.361  22.344  0.00  0.00    +0.150 C 
ATOM     15  C2*   T A   1       9.215  -2.655  22.651  0.00  0.00    +0.088 C 
BRANCH  14  16
ATOM     16  O3*   T A   1       9.470  -0.766  21.140  0.00  0.00    -0.389 OA
ATOM     17  H3*   T A   1       9.532  -1.416  20.419  0.00  0.00    +0.210 HD
ENDBRANCH  14  16
BRANCH  13  18
ATOM     18  C5*   T A   1      10.777   0.405  23.983  0.00  0.00    +0.190 C 
BRANCH  18  19
ATOM     19  O5*   T A   1      10.774   0.635  25.391  0.00  0.00    -0.392 OA
ATOM     20  H5*   T A   1      10.827  -0.244  25.810  0.00  0.00    +0.210 HD
ENDBRANCH  18  19
ENDBRANCH  13  18
ENDBRANCH   9  11
TORSDOF 4
ENDMDL
MODEL 5
REMARK VINA RESULT:      -5.8      5.201      8.835
REMARK  Name = 
REMARK  5 active torsions:
REMARK  status: ('A' for Active; 'I' for Inactive)
REMARK    1  A    between atoms: C5M_1  and  C5_2
REMARK    2  A    between atoms: N1_4  and  C1*_10
REMARK    3  A    between atoms: C3*_13  and  O3*_20
REMARK    4  A    between atoms: C4*_15  and  C5*_18
REMARK    5  A    between atoms: C5*_18  and  O5*_19
REMARK                            x       y       z     vdW  Elec       q    Type
REMARK                         _______ _______ _______ _____ _____    ______ ____
ROOT
ATOM      1  C5M   T A   1      12.611   5.008  23.172  0.00  0.00    +0.051 C 
ATOM      2  C5    T A   1      11.277   4.434  23.524  0.00  0.00    +0.030 A 
ATOM      3  C4    T A   1      10.270   5.361  24.089  0.00  0.00    +0.257 A 
ATOM      4  O4    T A   1      10.503   6.553  24.252  0.00  0.00    -0.267 OA
ATOM      5  N3    T A   1       9.063   4.809  24.403  0.00  0.00    -0.275 N 
ATOM      6  H3    T A   1       8.357   5.430  24.766  0.00  0.00    +0.173 HD
ATOM      7  C2    T A   1       8.689   3.513  24.185  0.00  0.00    +0.331 A 
ATOM      8  O2    T A   1       7.535   3.154  24.417  0.00  0.00    -0.246 OA
ATOM      9  N1    T A   1       9.676   2.672  23.692  0.00  0.00    -0.274 N 
ATOM     10  C6    T A   1      10.931   3.149  23.361  0.00  0.00    +0.101 A 
ENDROOT
BRANCH   9  11
ATOM     11  C1*   T A   1       9.297   1.285  23.462  0.00  0.00    +0.226 C 
ATOM     12  O4*   T A   1       9.850   0.413  24.467  0.00  0.00    -0.348 OA
ATOM     13  C4*   T A   1      10.114  -0.865  23.840  0.00  0.00    +0.175 C 
ATOM     14  C3*   T A   1       9.671  -0.748  22.378  0.00  0.00    +0.150 C 
ATOM     15  C2*   T A   1       9.773   0.737  22.129  0.00  0.00    +0.088 C 
BRANCH  14  16
ATOM     16  O3*   T A   1      10.488  -1.499  21.492  0.00  0.00    -0.389 OA
ATOM     17  H3*   T A   1       9.997  -1.666  20.670  0.00  0.00    +0.210 HD
ENDBRANCH  14  16
BRANCH  13  18
ATOM     18  C5*   T A   1       9.371  -1.960  24.607  0.00  0.00    +0.190 C 
BRANCH  18  19
ATOM     19  O5*   T A   1       9.731  -3.251  24.119  0.00  0.00    -0.392 OA
ATOM     20  H5*   T A   1       8.934  -3.806  24.205  0.00  0.00    +0.210 HD
ENDBRANCH  18  19
ENDBRANCH  13  18
ENDBRANCH   9  11
TORSDOF 4
ENDMDL
MODEL 6
REMARK VINA RESULT:      -5.7      2.388      3.560
REMARK  Name = 
REMARK  5 active torsions:
REMARK  status: ('A' for Active; 'I' for Inactive)
REMARK    1  A    between atoms: C5M_1  and  C5_2
REMARK    2  A    between atoms: N1_4  and  C1*_10
REMARK    3  A    between atoms: C3*_13  and  O3*_20
REMARK    4  A    between atoms: C4*_15  and  C5*_18
REMARK    5  A    between atoms: C5*_18  and  O5*_19
REMARK                            x       y       z     vdW  Elec       q    Type
REMARK                         _______ _______ _______ _____ _____    ______ ____
ROOT
ATOM      1  C5M   T A   1       4.850  -3.776  22.685  0.00  0.00    +0.051 C 
ATOM      2  C5    T A   1       6.264  -3.682  23.158  0.00  0.00    +0.030 A 
ATOM      3  C4    T A   1       6.834  -4.874  23.828  0.00  0.00    +0.257 A 
ATOM      4  O4    T A   1       6.187  -5.904  23.981  0.00  0.00    -0.267 OA
ATOM      5  N3    T A   1       8.125  -4.759  24.251  0.00  0.00    -0.275 N 
ATOM      6  H3    T A   1       8.537  -5.568  24.688  0.00  0.00    +0.173 HD
ATOM      7  C2    T A   1       8.943  -3.683  24.055  0.00  0.00    +0.331 A 
ATOM      8  O2    T A   1      10.125  -3.733  24.393  0.00  0.00    -0.246 OA
ATOM      9  N1    T A   1       8.356  -2.575  23.460  0.00  0.00    -0.274 N 
ATOM     10  C6    T A   1       7.047  -2.604  23.015  0.00  0.00    +0.101 A 
ENDROOT
BRANCH   9  11
ATOM     11  C1*   T A   1       9.212  -1.415  23.251  0.00  0.00    +0.226 C 
ATOM     12  O4*   T A   1       8.893  -0.352  24.169  0.00  0.00    -0.348 OA
ATOM     13  C4*   T A   1       9.153   0.901  23.494  0.00  0.00    +0.175 C 
ATOM     14  C3*   T A   1       9.677   0.559  22.096  0.00  0.00    +0.150 C 
ATOM     15  C2*   T A   1       9.096  -0.815  21.862  0.00  0.00    +0.088 C 
BRANCH  14  16
ATOM     16  O3*   T A   1       9.266   1.491  21.108  0.00  0.00    -0.389 OA
ATOM     17  H3*   T A   1       8.362   1.276  20.822  0.00  0.00    +0.210 HD
ENDBRANCH  14  16
BRANCH  13  18
ATOM     18  C5*   T A   1      10.144   1.719  24.323  0.00  0.00    +0.190 C 
BRANCH  18  19
ATOM     19  O5*   T A   1      10.863   2.631  23.495  0.00  0.00    -0.392 OA
ATOM     20  H5*   T A   1      10.193   3.129  22.992  0.00  0.00    +0.210 HD
ENDBRANCH  18  19
ENDBRANCH  13  18
ENDBRANCH   9  11
TORSDOF 4
ENDMDL
MODEL 7
REMARK VINA RESULT:      -5.7      2.757      6.211
REMARK  Name = 
REMARK  5 active torsions:
REMARK  status: ('A' for Active; 'I' for Inactive)
REMARK    1  A    between atoms: C5M_1  and  C5_2
REMARK    2  A    between atoms: N1_4  and  C1*_10
REMARK    3  A    between atoms: C3*_13  and  O3*_20
REMARK    4  A    between atoms: C4*_15  and  C5*_18
REMARK    5  A    between atoms: C5*_18  and  O5*_19
REMARK                            x       y       z     vdW  Elec       q    Type
REMARK                         _______ _______ _______ _____ _____    ______ ____
ROOT
ATOM      1  C5M   T A   1       9.216   1.270  21.787  0.00  0.00    +0.051 C 
ATOM      2  C5    T A   1       9.055   0.286  22.899  0.00  0.00    +0.030 A 
ATOM      3  C4    T A   1       9.584   0.675  24.227  0.00  0.00    +0.257 A 
ATOM      4  O4    T A   1      10.119   1.761  24.421  0.00  0.00    -0.267 OA
ATOM      5  N3    T A   1       9.425  -0.244  25.223  0.00  0.00    -0.275 N 
ATOM      6  H3    T A   1       9.757   0.014  26.139  0.00  0.00    +0.173 HD
ATOM      7  C2    T A   1       8.776  -1.441  25.119  0.00  0.00    +0.331 A 
ATOM      8  O2    T A   1       8.607  -2.143  26.115  0.00  0.00    -0.246 OA
ATOM      9  N1    T A   1       8.332  -1.781  23.848  0.00  0.00    -0.274 N 
ATOM     10  C6    T A   1       8.467  -0.913  22.781  0.00  0.00    +0.101 A 
ENDROOT
BRANCH   9  11
ATOM     11  C1*   T A   1       7.646  -3.058  23.717  0.00  0.00    +0.226 C 
ATOM     12  O4*   T A   1       7.965  -3.704  22.469  0.00  0.00    -0.348 OA
ATOM     13  C4*   T A   1       6.800  -4.457  22.056  0.00  0.00    +0.175 C 
ATOM     14  C3*   T A   1       5.732  -4.261  23.136  0.00  0.00    +0.150 C 
ATOM     15  C2*   T A   1       6.132  -2.942  23.750  0.00  0.00    +0.088 C 
BRANCH  14  16
ATOM     16  O3*   T A   1       4.413  -4.230  22.610  0.00  0.00    -0.389 OA
ATOM     17  H3*   T A   1       4.250  -5.048  22.110  0.00  0.00    +0.210 HD
ENDBRANCH  14  16
BRANCH  13  18
ATOM     18  C5*   T A   1       7.196  -5.921  21.861  0.00  0.00    +0.190 C 
BRANCH  18  19
ATOM     19  O5*   T A   1       6.048  -6.766  21.918  0.00  0.00    -0.392 OA
ATOM     20  H5*   T A   1       6.384  -7.676  22.016  0.00  0.00    +0.210 HD
ENDBRANCH  18  19
ENDBRANCH  13  18
ENDBRANCH   9  11
TORSDOF 4
ENDMDL
MODEL 8
REMARK VINA RESULT:      -5.7      2.612      6.196
REMARK  Name = 
REMARK  5 active torsions:
REMARK  status: ('A' for Active; 'I' for Inactive)
REMARK    1  A    between atoms: C5M_1  and  C5_2
REMARK    2  A    between atoms: N1_4  and  C1*_10
REMARK    3  A    between atoms: C3*_13  and  O3*_20
REMARK    4  A    between atoms: C4*_15  and  C5*_18
REMARK    5  A    between atoms: C5*_18  and  O5*_19
REMARK                            x       y       z     vdW  Elec       q    Type
REMARK                         _______ _______ _______ _____ _____    ______ ____
ROOT
ATOM      1  C5M   T A   1       7.570   1.851  22.205  0.00  0.00    +0.051 C 
ATOM      2  C5    T A   1       8.225   0.558  22.566  0.00  0.00    +0.030 A 
ATOM      3  C4    T A   1       9.678   0.592  22.852  0.00  0.00    +0.257 A 
ATOM      4  O4    T A   1      10.323   1.634  22.813  0.00  0.00    -0.267 OA
ATOM      5  N3    T A   1      10.250  -0.603  23.177  0.00  0.00    -0.275 N 
ATOM      6  H3    T A   1      11.233  -0.593  23.398  0.00  0.00    +0.173 HD
ATOM      7  C2    T A   1       9.598  -1.794  23.321  0.00  0.00    +0.331 A 
ATOM      8  O2    T A   1      10.205  -2.789  23.717  0.00  0.00    -0.246 OA
ATOM      9  N1    T A   1       8.247  -1.789  23.004  0.00  0.00    -0.274 N 
ATOM     10  C6    T A   1       7.594  -0.622  22.652  0.00  0.00    +0.101 A 
ENDROOT
BRANCH   9  11
ATOM     11  C1*   T A   1       7.538  -3.053  23.144  0.00  0.00    +0.226 C 
ATOM     12  O4*   T A   1       7.630  -3.844  21.944  0.00  0.00    -0.348 OA
ATOM     13  C4*   T A   1       6.405  -4.608  21.829  0.00  0.00    +0.175 C 
ATOM     14  C3*   T A   1       5.543  -4.261  23.046  0.00  0.00    +0.150 C 
ATOM     15  C2*   T A   1       6.055  -2.891  23.423  0.00  0.00    +0.088 C 
BRANCH  14  16
ATOM     16  O3*   T A   1       4.153  -4.253  22.756  0.00  0.00    -0.389 OA
ATOM     17  H3*   T A   1       3.791  -3.373  22.952  0.00  0.00    +0.210 HD
ENDBRANCH  14  16
BRANCH  13  18
ATOM     18  C5*   T A   1       6.750  -6.095  21.741  0.00  0.00    +0.190 C 
BRANCH  18  19
ATOM     19  O5*   T A   1       5.798  -6.877  22.460  0.00  0.00    -0.392 OA
ATOM     20  H5*   T A   1       5.029  -6.298  22.613  0.00  0.00    +0.210 HD
ENDBRANCH  18  19
ENDBRANCH  13  18
ENDBRANCH   9  11
TORSDOF 4
ENDMDL
MODEL 9
REMARK VINA RESULT:      -5.5      3.294      6.659
REMARK  Name = 
REMARK  5 active torsions:
REMARK  status: ('A' for Active; 'I' for Inactive)
REMARK    1  A    between atoms: C5M_1  and  C5_2
REMARK    2  A    between atoms: N1_4  and  C1*_10
REMARK    3  A    between atoms: C3*_13  and  O3*_20
REMARK    4  A    between atoms: C4*_15  and  C5*_18
REMARK    5  A    between atoms: C5*_18  and  O5*_19
REMARK                            x       y       z     vdW  Elec       q    Type
REMARK                         _______ _______ _______ _____ _____    ______ ____
ROOT
ATOM      1  C5M   T A   1       9.822   1.255  21.843  0.00  0.00    +0.051 C 
ATOM      2  C5    T A   1       9.394   0.778  23.192  0.00  0.00    +0.030 A 
ATOM      3  C4    T A   1       9.368   1.777  24.286  0.00  0.00    +0.257 A 
ATOM      4  O4    T A   1       9.668   2.951  24.101  0.00  0.00    -0.267 OA
ATOM      5  N3    T A   1       8.975   1.313  25.507  0.00  0.00    -0.275 N 
ATOM      6  H3    T A   1       8.928   1.984  26.257  0.00  0.00    +0.173 HD
ATOM      7  C2    T A   1       8.550   0.046  25.788  0.00  0.00    +0.331 A 
ATOM      8  O2    T A   1       8.122  -0.231  26.908  0.00  0.00    -0.246 OA
ATOM      9  N1    T A   1       8.629  -0.866  24.744  0.00  0.00    -0.274 N 
ATOM     10  C6    T A   1       9.031  -0.480  23.478  0.00  0.00    +0.101 A 
ENDROOT
BRANCH   9  11
ATOM     11  C1*   T A   1       8.188  -2.224  25.029  0.00  0.00    +0.226 C 
ATOM     12  O4*   T A   1       9.242  -3.179  24.804  0.00  0.00    -0.348 OA
ATOM     13  C4*   T A   1       8.627  -4.411  24.356  0.00  0.00    +0.175 C 
ATOM     14  C3*   T A   1       7.114  -4.177  24.333  0.00  0.00    +0.150 C 
ATOM     15  C2*   T A   1       7.023  -2.679  24.168  0.00  0.00    +0.088 C 
BRANCH  14  16
ATOM     16  O3*   T A   1       6.462  -4.873  23.282  0.00  0.00    -0.389 OA
ATOM     17  H3*   T A   1       6.892  -4.654  22.438  0.00  0.00    +0.210 HD
ENDBRANCH  14  16
BRANCH  13  18
ATOM     18  C5*   T A   1       9.045  -5.547  25.291  0.00  0.00    +0.190 C 
BRANCH  18  19
ATOM     19  O5*   T A   1      10.462  -5.572  25.453  0.00  0.00    -0.392 OA
ATOM     20  H5*   T A   1      10.835  -5.724  24.565  0.00  0.00    +0.210 HD
ENDBRANCH  18  19
ENDBRANCH  13  18
ENDBRANCH   9  11
TORSDOF 4
ENDMDL
