MODEL 1
REMARK VINA RESULT:      -6.1      0.000      0.000
REMARK  Name = 
REMARK  11 active torsions:
REMARK  status: ('A' for Active; 'I' for Inactive)
REMARK    1  A    between atoms: C_1  and  C_2
REMARK    2  A    between atoms: N_4  and  C_5
REMARK    3  A    between atoms: C_7  and  C_20
REMARK    4  A    between atoms: C_10  and  C_17
REMARK    5  A    between atoms: C_12  and  N_13
REMARK    6  A    between atoms: C_17  and  O_19
REMARK    7  A    between atoms: C_20  and  C_22
REMARK    8  A    between atoms: C_20  and  O_27
REMARK    9  A    between atoms: C_22  and  C_24
REMARK   10  A    between atoms: C_22  and  O_26
REMARK   11  A    between atoms: C_24  and  O_25
REMARK                            x       y       z     vdW  Elec       q    Type
REMARK                         _______ _______ _______ _____ _____    ______ ____
ROOT
ATOM      1  C   UNL     1       7.181  -2.476  24.291  0.00  0.00    +0.170 C 
ATOM      2  C   UNL     1       7.445  -3.020  22.904  0.00  0.00    +0.141 C 
ATOM      3  C   UNL     1       6.903  -4.180  22.523  0.00  0.00    +0.059 C 
ATOM      4  C   UNL     1       6.079  -5.062  23.383  0.00  0.00    +0.253 C 
ATOM      5  O   UNL     1       6.124  -4.787  24.779  0.00  0.00    -0.353 OA
ATOM      6  C   UNL     1       6.575  -3.508  25.288  0.00  0.00    +0.178 C 
ENDROOT
BRANCH   2   7
ATOM      7  N   UNL     1       8.155  -2.194  22.064  0.00  0.00    -0.076 NA
ATOM      8  C   UNL     1       9.378  -1.859  22.308  0.00  0.00    +0.382 C 
ATOM      9  N   UNL     1      10.022  -1.031  21.455  0.00  0.00    -0.289 N 
ATOM     10  H   UNL     1      10.957  -1.346  21.229  0.00  0.00    +0.255 HD
ATOM     11  H   UNL     1       9.474  -0.901  20.610  0.00  0.00    +0.255 HD
ATOM     12  N   UNL     1      10.213  -2.189  23.323  0.00  0.00    -0.289 N 
ATOM     13  H   UNL     1      10.839  -1.435  23.580  0.00  0.00    +0.255 HD
ATOM     14  H   UNL     1       9.761  -2.587  24.134  0.00  0.00    +0.255 HD
ENDBRANCH   2   7
BRANCH   1  17
ATOM     15  C   UNL     1       5.524   0.938  24.647  0.00  0.00    +0.109 C 
ATOM     16  C   UNL     1       6.600  -0.102  24.750  0.00  0.00    +0.211 C 
ATOM     17  N   UNL     1       6.294  -1.314  24.173  0.00  0.00    -0.303 N 
ATOM     18  H   UNL     1       5.465  -1.395  23.588  0.00  0.00    +0.149 HD
ATOM     19  O   UNL     1       7.637   0.100  25.371  0.00  0.00    -0.276 OA
ENDBRANCH   1  17
BRANCH   4  20
ATOM     20  C   UNL     1       4.631  -5.111  22.846  0.00  0.00    +0.338 C 
ATOM     21  O   UNL     1       3.803  -4.221  22.978  0.00  0.00    -0.248 OA
BRANCH  20  22
ATOM     22  O   UNL     1       4.372  -6.258  22.169  0.00  0.00    -0.479 OA
ATOM     23  H   UNL     1       4.355  -7.018  22.790  0.00  0.00    +0.295 HD
ENDBRANCH  20  22
ENDBRANCH   4  20
BRANCH   6  24
ATOM     24  C   UNL     1       7.553  -3.848  26.448  0.00  0.00    +0.176 C 
BRANCH  24  25
ATOM     25  O   UNL     1       8.562  -2.812  26.511  0.00  0.00    -0.387 OA
ATOM     26  H   UNL     1       9.413  -3.257  26.338  0.00  0.00    +0.210 HD
ENDBRANCH  24  25
BRANCH  24  27
ATOM     27  C   UNL     1       8.259  -5.224  26.353  0.00  0.00    +0.171 C 
BRANCH  27  28
ATOM     28  O   UNL     1       8.043  -5.933  27.588  0.00  0.00    -0.387 OA
ATOM     29  H   UNL     1       7.240  -6.470  27.481  0.00  0.00    +0.210 HD
ENDBRANCH  27  28
BRANCH  27  30
ATOM     30  C   UNL     1       9.780  -5.132  26.120  0.00  0.00    +0.189 C 
BRANCH  30  31
ATOM     31  O   UNL     1      10.123  -4.912  24.752  0.00  0.00    -0.392 OA
ATOM     32  H   UNL     1      10.708  -5.656  24.492  0.00  0.00    +0.210 HD
ENDBRANCH  30  31
ENDBRANCH  27  30
ENDBRANCH  24  27
ENDBRANCH   6  24
TORSDOF 10
ENDMDL
MODEL 2
REMARK VINA RESULT:      -5.9      1.852      4.445
REMARK  Name = 
REMARK  11 active torsions:
REMARK  status: ('A' for Active; 'I' for Inactive)
REMARK    1  A    between atoms: C_1  and  C_2
REMARK    2  A    between atoms: N_4  and  C_5
REMARK    3  A    between atoms: C_7  and  C_20
REMARK    4  A    between atoms: C_10  and  C_17
REMARK    5  A    between atoms: C_12  and  N_13
REMARK    6  A    between atoms: C_17  and  O_19
REMARK    7  A    between atoms: C_20  and  C_22
REMARK    8  A    between atoms: C_20  and  O_27
REMARK    9  A    between atoms: C_22  and  C_24
REMARK   10  A    between atoms: C_22  and  O_26
REMARK   11  A    between atoms: C_24  and  O_25
REMARK                            x       y       z     vdW  Elec       q    Type
REMARK                         _______ _______ _______ _____ _____    ______ ____
ROOT
ATOM      1  C   UNL     1       7.123  -3.275  23.779  0.00  0.00    +0.170 C 
ATOM      2  C   UNL     1       8.519  -3.190  24.357  0.00  0.00    +0.141 C 
ATOM      3  C   UNL     1       8.735  -3.506  25.637  0.00  0.00    +0.059 C 
ATOM      4  C   UNL     1       7.686  -3.891  26.612  0.00  0.00    +0.253 C 
ATOM      5  O   UNL     1       6.345  -3.615  26.223  0.00  0.00    -0.353 OA
ATOM      6  C   UNL     1       5.987  -3.387  24.838  0.00  0.00    +0.178 C 
ENDROOT
BRANCH   2   7
ATOM      7  N   UNL     1       9.520  -2.896  23.462  0.00  0.00    -0.076 NA
ATOM      8  C   UNL     1       9.740  -1.690  23.055  0.00  0.00    +0.382 C 
ATOM      9  N   UNL     1      10.728  -1.462  22.161  0.00  0.00    -0.289 N 
ATOM     10  H   UNL     1      11.309  -0.670  22.407  0.00  0.00    +0.255 HD
ATOM     11  H   UNL     1      11.294  -2.297  22.041  0.00  0.00    +0.255 HD
ATOM     12  N   UNL     1       9.136  -0.516  23.361  0.00  0.00    -0.289 N 
ATOM     13  H   UNL     1       9.097   0.123  22.575  0.00  0.00    +0.255 HD
ATOM     14  H   UNL     1       8.237  -0.604  23.812  0.00  0.00    +0.255 HD
ENDBRANCH   2   7
BRANCH   1  17
ATOM     15  C   UNL     1       6.225  -5.720  20.996  0.00  0.00    +0.109 C 
ATOM     16  C   UNL     1       6.262  -4.423  21.747  0.00  0.00    +0.211 C 
ATOM     17  N   UNL     1       7.069  -4.419  22.863  0.00  0.00    -0.303 N 
ATOM     18  H   UNL     1       7.700  -5.201  23.026  0.00  0.00    +0.149 HD
ATOM     19  O   UNL     1       5.563  -3.469  21.425  0.00  0.00    -0.276 OA
ENDBRANCH   1  17
BRANCH   4  20
ATOM     20  C   UNL     1       7.880  -5.364  27.034  0.00  0.00    +0.338 C 
ATOM     21  O   UNL     1       7.290  -5.914  27.953  0.00  0.00    -0.248 OA
BRANCH  20  22
ATOM     22  O   UNL     1       8.769  -6.014  26.241  0.00  0.00    -0.479 OA
ATOM     23  H   UNL     1       8.642  -6.984  26.320  0.00  0.00    +0.295 HD
ENDBRANCH  20  22
ENDBRANCH   4  20
BRANCH   6  24
ATOM     24  C   UNL     1       5.069  -2.132  24.852  0.00  0.00    +0.176 C 
BRANCH  24  25
ATOM     25  O   UNL     1       5.466  -1.267  23.760  0.00  0.00    -0.387 OA
ATOM     26  H   UNL     1       5.446  -0.360  24.118  0.00  0.00    +0.210 HD
ENDBRANCH  24  25
BRANCH  24  27
ATOM     27  C   UNL     1       5.074  -1.309  26.164  0.00  0.00    +0.171 C 
BRANCH  27  28
ATOM     28  O   UNL     1       3.715  -0.949  26.480  0.00  0.00    -0.387 OA
ATOM     29  H   UNL     1       3.746  -0.171  27.063  0.00  0.00    +0.210 HD
ENDBRANCH  27  28
BRANCH  27  30
ATOM     30  C   UNL     1       5.901  -0.011  26.086  0.00  0.00    +0.189 C 
BRANCH  30  31
ATOM     31  O   UNL     1       7.283  -0.245  25.819  0.00  0.00    -0.392 OA
ATOM     32  H   UNL     1       7.704  -0.424  26.687  0.00  0.00    +0.210 HD
ENDBRANCH  30  31
ENDBRANCH  27  30
ENDBRANCH  24  27
ENDBRANCH   6  24
TORSDOF 10
ENDMDL
MODEL 3
REMARK VINA RESULT:      -5.8      2.264      3.646
REMARK  Name = 
REMARK  11 active torsions:
REMARK  status: ('A' for Active; 'I' for Inactive)
REMARK    1  A    between atoms: C_1  and  C_2
REMARK    2  A    between atoms: N_4  and  C_5
REMARK    3  A    between atoms: C_7  and  C_20
REMARK    4  A    between atoms: C_10  and  C_17
REMARK    5  A    between atoms: C_12  and  N_13
REMARK    6  A    between atoms: C_17  and  O_19
REMARK    7  A    between atoms: C_20  and  C_22
REMARK    8  A    between atoms: C_20  and  O_27
REMARK    9  A    between atoms: C_22  and  C_24
REMARK   10  A    between atoms: C_22  and  O_26
REMARK   11  A    between atoms: C_24  and  O_25
REMARK                            x       y       z     vdW  Elec       q    Type
REMARK                         _______ _______ _______ _____ _____    ______ ____
ROOT
ATOM      1  C   UNL     1       7.686  -2.711  23.883  0.00  0.00    +0.170 C 
ATOM      2  C   UNL     1       7.971  -4.196  23.949  0.00  0.00    +0.141 C 
ATOM      3  C   UNL     1       7.081  -5.072  23.478  0.00  0.00    +0.059 C 
ATOM      4  C   UNL     1       5.750  -4.725  22.924  0.00  0.00    +0.253 C 
ATOM      5  O   UNL     1       5.291  -3.405  23.192  0.00  0.00    -0.353 OA
ATOM      6  C   UNL     1       6.202  -2.349  23.585  0.00  0.00    +0.178 C 
ENDROOT
BRANCH   2   7
ATOM      7  N   UNL     1       9.223  -4.544  24.401  0.00  0.00    -0.076 NA
ATOM      8  C   UNL     1       9.395  -5.206  25.496  0.00  0.00    +0.382 C 
ATOM      9  N   UNL     1      10.650  -5.507  25.899  0.00  0.00    -0.289 N 
ATOM     10  H   UNL     1      10.749  -6.470  26.198  0.00  0.00    +0.255 HD
ATOM     11  H   UNL     1      11.317  -5.291  25.164  0.00  0.00    +0.255 HD
ATOM     12  N   UNL     1       8.508  -5.698  26.395  0.00  0.00    -0.289 N 
ATOM     13  H   UNL     1       8.855  -5.668  27.347  0.00  0.00    +0.255 HD
ATOM     14  H   UNL     1       7.576  -5.316  26.327  0.00  0.00    +0.255 HD
ENDBRANCH   2   7
BRANCH   1  17
ATOM     15  C   UNL     1       9.808  -0.333  21.793  0.00  0.00    +0.109 C 
ATOM     16  C   UNL     1       9.040  -0.830  22.982  0.00  0.00    +0.211 C 
ATOM     17  N   UNL     1       8.561  -2.116  22.868  0.00  0.00    -0.303 N 
ATOM     18  H   UNL     1       8.873  -2.699  22.093  0.00  0.00    +0.149 HD
ATOM     19  O   UNL     1       8.800  -0.110  23.944  0.00  0.00    -0.276 OA
ENDBRANCH   1  17
BRANCH   4  20
ATOM     20  C   UNL     1       5.705  -5.063  21.418  0.00  0.00    +0.338 C 
ATOM     21  O   UNL     1       5.750  -4.242  20.513  0.00  0.00    -0.248 OA
BRANCH  20  22
ATOM     22  O   UNL     1       5.641  -6.400  21.192  0.00  0.00    -0.479 OA
ATOM     23  H   UNL     1       6.543  -6.786  21.206  0.00  0.00    +0.295 HD
ENDBRANCH  20  22
ENDBRANCH   4  20
BRANCH   6  24
ATOM     24  C   UNL     1       5.516  -1.641  24.787  0.00  0.00    +0.176 C 
BRANCH  24  25
ATOM     25  O   UNL     1       6.541  -0.988  25.574  0.00  0.00    -0.387 OA
ATOM     26  H   UNL     1       7.007  -1.700  26.050  0.00  0.00    +0.210 HD
ENDBRANCH  24  25
BRANCH  24  27
ATOM     27  C   UNL     1       4.681  -2.554  25.720  0.00  0.00    +0.171 C 
BRANCH  27  28
ATOM     28  O   UNL     1       3.376  -1.966  25.883  0.00  0.00    -0.387 OA
ATOM     29  H   UNL     1       2.719  -2.676  25.778  0.00  0.00    +0.210 HD
ENDBRANCH  27  28
BRANCH  27  30
ATOM     30  C   UNL     1       5.293  -2.744  27.122  0.00  0.00    +0.189 C 
BRANCH  30  31
ATOM     31  O   UNL     1       6.512  -3.486  27.102  0.00  0.00    -0.392 OA
ATOM     32  H   UNL     1       6.265  -4.415  26.905  0.00  0.00    +0.210 HD
ENDBRANCH  30  31
ENDBRANCH  27  30
ENDBRANCH  24  27
ENDBRANCH   6  24
TORSDOF 10
ENDMDL
MODEL 4
REMARK VINA RESULT:      -5.8      1.452      1.977
REMARK  Name = 
REMARK  11 active torsions:
REMARK  status: ('A' for Active; 'I' for Inactive)
REMARK    1  A    between atoms: C_1  and  C_2
REMARK    2  A    between atoms: N_4  and  C_5
REMARK    3  A    between atoms: C_7  and  C_20
REMARK    4  A    between atoms: C_10  and  C_17
REMARK    5  A    between atoms: C_12  and  N_13
REMARK    6  A    between atoms: C_17  and  O_19
REMARK    7  A    between atoms: C_20  and  C_22
REMARK    8  A    between atoms: C_20  and  O_27
REMARK    9  A    between atoms: C_22  and  C_24
REMARK   10  A    between atoms: C_22  and  O_26
REMARK   11  A    between atoms: C_24  and  O_25
REMARK                            x       y       z     vdW  Elec       q    Type
REMARK                         _______ _______ _______ _____ _____    ______ ____
ROOT
ATOM      1  C   UNL     1       7.663  -1.840  24.278  0.00  0.00    +0.170 C 
ATOM      2  C   UNL     1       7.692  -1.619  22.780  0.00  0.00    +0.141 C 
ATOM      3  C   UNL     1       7.469  -2.640  21.948  0.00  0.00    +0.059 C 
ATOM      4  C   UNL     1       7.246  -4.046  22.359  0.00  0.00    +0.253 C 
ATOM      5  O   UNL     1       7.587  -4.362  23.705  0.00  0.00    -0.353 OA
ATOM      6  C   UNL     1       7.724  -3.333  24.715  0.00  0.00    +0.178 C 
ENDROOT
BRANCH   2   7
ATOM      7  N   UNL     1       7.836  -0.314  22.371  0.00  0.00    -0.076 NA
ATOM      8  C   UNL     1       8.904   0.102  21.777  0.00  0.00    +0.382 C 
ATOM      9  N   UNL     1       8.996   1.400  21.411  0.00  0.00    -0.289 N 
ATOM     10  H   UNL     1       9.344   1.522  20.468  0.00  0.00    +0.255 HD
ATOM     11  H   UNL     1       8.098   1.862  21.524  0.00  0.00    +0.255 HD
ATOM     12  N   UNL     1      10.040  -0.543  21.419  0.00  0.00    -0.289 N 
ATOM     13  H   UNL     1      10.865   0.042  21.491  0.00  0.00    +0.255 HD
ATOM     14  H   UNL     1      10.181  -1.438  21.866  0.00  0.00    +0.255 HD
ENDBRANCH   2   7
BRANCH   1  17
ATOM     15  C   UNL     1       5.184   0.233  26.299  0.00  0.00    +0.109 C 
ATOM     16  C   UNL     1       6.512  -0.207  25.758  0.00  0.00    +0.211 C 
ATOM     17  N   UNL     1       6.454  -1.209  24.816  0.00  0.00    -0.303 N 
ATOM     18  H   UNL     1       5.552  -1.478  24.427  0.00  0.00    +0.149 HD
ATOM     19  O   UNL     1       7.566   0.248  26.186  0.00  0.00    -0.276 OA
ENDBRANCH   1  17
BRANCH   4  20
ATOM     20  C   UNL     1       5.803  -4.471  22.009  0.00  0.00    +0.338 C 
ATOM     21  O   UNL     1       4.790  -3.966  22.473  0.00  0.00    -0.248 OA
BRANCH  20  22
ATOM     22  O   UNL     1       5.768  -5.465  21.086  0.00  0.00    -0.479 OA
ATOM     23  H   UNL     1       6.051  -6.312  21.494  0.00  0.00    +0.295 HD
ENDBRANCH  20  22
ENDBRANCH   4  20
BRANCH   6  24
ATOM     24  C   UNL     1       9.041  -3.671  25.470  0.00  0.00    +0.176 C 
BRANCH  24  25
ATOM     25  O   UNL     1      10.085  -3.884  24.489  0.00  0.00    -0.387 OA
ATOM     26  H   UNL     1      10.456  -4.766  24.682  0.00  0.00    +0.210 HD
ENDBRANCH  24  25
BRANCH  24  27
ATOM     27  C   UNL     1       8.982  -4.904  26.407  0.00  0.00    +0.171 C 
BRANCH  27  28
ATOM     28  O   UNL     1       9.453  -6.053  25.678  0.00  0.00    -0.387 OA
ATOM     29  H   UNL     1       9.990  -5.728  24.934  0.00  0.00    +0.210 HD
ENDBRANCH  27  28
BRANCH  27  30
ATOM     30  C   UNL     1       7.569  -5.224  26.933  0.00  0.00    +0.189 C 
BRANCH  30  31
ATOM     31  O   UNL     1       7.567  -6.218  27.957  0.00  0.00    -0.392 OA
ATOM     32  H   UNL     1       7.001  -5.868  28.679  0.00  0.00    +0.210 HD
ENDBRANCH  30  31
ENDBRANCH  27  30
ENDBRANCH  24  27
ENDBRANCH   6  24
TORSDOF 10
ENDMDL
MODEL 5
REMARK VINA RESULT:      -5.7      1.956      4.674
REMARK  Name = 
REMARK  11 active torsions:
REMARK  status: ('A' for Active; 'I' for Inactive)
REMARK    1  A    between atoms: C_1  and  C_2
REMARK    2  A    between atoms: N_4  and  C_5
REMARK    3  A    between atoms: C_7  and  C_20
REMARK    4  A    between atoms: C_10  and  C_17
REMARK    5  A    between atoms: C_12  and  N_13
REMARK    6  A    between atoms: C_17  and  O_19
REMARK    7  A    between atoms: C_20  and  C_22
REMARK    8  A    between atoms: C_20  and  O_27
REMARK    9  A    between atoms: C_22  and  C_24
REMARK   10  A    between atoms: C_22  and  O_26
REMARK   11  A    between atoms: C_24  and  O_25
REMARK                            x       y       z     vdW  Elec       q    Type
REMARK                         _______ _______ _______ _____ _____    ______ ____
ROOT
ATOM      1  C   UNL     1       7.566  -2.004  23.520  0.00  0.00    +0.170 C 
ATOM      2  C   UNL     1       7.360  -1.977  25.020  0.00  0.00    +0.141 C 
ATOM      3  C   UNL     1       7.579  -3.075  25.747  0.00  0.00    +0.059 C 
ATOM      4  C   UNL     1       7.962  -4.399  25.202  0.00  0.00    +0.253 C 
ATOM      5  O   UNL     1       7.794  -4.566  23.798  0.00  0.00    -0.353 OA
ATOM      6  C   UNL     1       7.678  -3.430  22.907  0.00  0.00    +0.178 C 
ENDROOT
BRANCH   2   7
ATOM      7  N   UNL     1       7.064  -0.747  25.560  0.00  0.00    -0.076 NA
ATOM      8  C   UNL     1       7.919  -0.090  26.271  0.00  0.00    +0.382 C 
ATOM      9  N   UNL     1       7.567   1.108  26.791  0.00  0.00    -0.289 N 
ATOM     10  H   UNL     1       8.278   1.818  26.663  0.00  0.00    +0.255 HD
ATOM     11  H   UNL     1       6.681   1.414  26.400  0.00  0.00    +0.255 HD
ATOM     12  N   UNL     1       9.192  -0.377  26.635  0.00  0.00    -0.289 N 
ATOM     13  H   UNL     1       9.425  -0.034  27.560  0.00  0.00    +0.255 HD
ATOM     14  H   UNL     1       9.461  -1.343  26.519  0.00  0.00    +0.255 HD
ENDBRANCH   2   7
BRANCH   1  17
ATOM     15  C   UNL     1      10.020   0.616  22.238  0.00  0.00    +0.109 C 
ATOM     16  C   UNL     1       8.698   0.018  22.617  0.00  0.00    +0.211 C 
ATOM     17  N   UNL     1       8.768  -1.226  23.203  0.00  0.00    -0.303 N 
ATOM     18  H   UNL     1       9.673  -1.594  23.489  0.00  0.00    +0.149 HD
ATOM     19  O   UNL     1       7.638   0.573  22.351  0.00  0.00    -0.276 OA
ENDBRANCH   1  17
BRANCH   4  20
ATOM     20  C   UNL     1       9.391  -4.761  25.664  0.00  0.00    +0.338 C 
ATOM     21  O   UNL     1      10.349  -4.925  24.921  0.00  0.00    -0.248 OA
BRANCH  20  22
ATOM     22  O   UNL     1       9.488  -4.851  27.015  0.00  0.00    -0.479 OA
ATOM     23  H   UNL     1       9.489  -5.793  27.289  0.00  0.00    +0.295 HD
ENDBRANCH  20  22
ENDBRANCH   4  20
BRANCH   6  24
ATOM     24  C   UNL     1       6.482  -3.763  21.970  0.00  0.00    +0.176 C 
BRANCH  24  25
ATOM     25  O   UNL     1       5.320  -3.039  22.442  0.00  0.00    -0.387 OA
ATOM     26  H   UNL     1       5.655  -2.385  23.084  0.00  0.00    +0.210 HD
ENDBRANCH  24  25
BRANCH  24  27
ATOM     27  C   UNL     1       6.116  -5.264  21.852  0.00  0.00    +0.171 C 
BRANCH  27  28
ATOM     28  O   UNL     1       5.955  -5.585  20.458  0.00  0.00    -0.387 OA
ATOM     29  H   UNL     1       6.646  -6.228  20.223  0.00  0.00    +0.210 HD
ENDBRANCH  27  28
BRANCH  27  30
ATOM     30  C   UNL     1       4.814  -5.651  22.581  0.00  0.00    +0.189 C 
BRANCH  30  31
ATOM     31  O   UNL     1       4.907  -5.516  23.999  0.00  0.00    -0.392 OA
ATOM     32  H   UNL     1       4.582  -4.615  24.211  0.00  0.00    +0.210 HD
ENDBRANCH  30  31
ENDBRANCH  27  30
ENDBRANCH  24  27
ENDBRANCH   6  24
TORSDOF 10
ENDMDL
MODEL 6
REMARK VINA RESULT:      -5.6      2.783      4.889
REMARK  Name = 
REMARK  11 active torsions:
REMARK  status: ('A' for Active; 'I' for Inactive)
REMARK    1  A    between atoms: C_1  and  C_2
REMARK    2  A    between atoms: N_4  and  C_5
REMARK    3  A    between atoms: C_7  and  C_20
REMARK    4  A    between atoms: C_10  and  C_17
REMARK    5  A    between atoms: C_12  and  N_13
REMARK    6  A    between atoms: C_17  and  O_19
REMARK    7  A    between atoms: C_20  and  C_22
REMARK    8  A    between atoms: C_20  and  O_27
REMARK    9  A    between atoms: C_22  and  C_24
REMARK   10  A    between atoms: C_22  and  O_26
REMARK   11  A    between atoms: C_24  and  O_25
REMARK                            x       y       z     vdW  Elec       q    Type
REMARK                         _______ _______ _______ _____ _____    ______ ____
ROOT
ATOM      1  C   UNL     1       7.030  -2.021  24.227  0.00  0.00    +0.170 C 
ATOM      2  C   UNL     1       6.869  -3.435  23.710  0.00  0.00    +0.141 C 
ATOM      3  C   UNL     1       7.855  -4.322  23.867  0.00  0.00    +0.059 C 
ATOM      4  C   UNL     1       9.178  -4.033  24.468  0.00  0.00    +0.253 C 
ATOM      5  O   UNL     1       9.508  -2.656  24.612  0.00  0.00    -0.353 OA
ATOM      6  C   UNL     1       8.491  -1.624  24.587  0.00  0.00    +0.178 C 
ENDROOT
BRANCH   2   7
ATOM      7  N   UNL     1       5.630  -3.748  23.203  0.00  0.00    -0.076 NA
ATOM      8  C   UNL     1       4.805  -4.512  23.839  0.00  0.00    +0.382 C 
ATOM      9  N   UNL     1       3.606  -4.799  23.284  0.00  0.00    -0.289 N 
ATOM     10  H   UNL     1       2.837  -4.712  23.938  0.00  0.00    +0.255 HD
ATOM     11  H   UNL     1       3.448  -4.218  22.467  0.00  0.00    +0.255 HD
ATOM     12  N   UNL     1       4.902  -5.135  25.038  0.00  0.00    -0.289 N 
ATOM     13  H   UNL     1       4.435  -6.035  25.054  0.00  0.00    +0.255 HD
ATOM     14  H   UNL     1       5.838  -5.197  25.412  0.00  0.00    +0.255 HD
ENDBRANCH   2   7
BRANCH   1  17
ATOM     15  C   UNL     1       4.679  -0.652  26.897  0.00  0.00    +0.109 C 
ATOM     16  C   UNL     1       5.403  -0.719  25.585  0.00  0.00    +0.211 C 
ATOM     17  N   UNL     1       6.162  -1.853  25.397  0.00  0.00    -0.303 N 
ATOM     18  H   UNL     1       6.071  -2.630  26.049  0.00  0.00    +0.149 HD
ATOM     19  O   UNL     1       5.374   0.206  24.782  0.00  0.00    -0.276 OA
ENDBRANCH   1  17
BRANCH   4  20
ATOM     20  C   UNL     1       9.331  -4.810  25.795  0.00  0.00    +0.338 C 
ATOM     21  O   UNL     1       8.896  -4.442  26.877  0.00  0.00    -0.248 OA
BRANCH  20  22
ATOM     22  O   UNL     1       9.985  -5.987  25.630  0.00  0.00    -0.479 OA
ATOM     23  H   UNL     1      10.434  -6.241  26.465  0.00  0.00    +0.295 HD
ENDBRANCH  20  22
ENDBRANCH   4  20
BRANCH   6  24
ATOM     24  C   UNL     1       9.050  -0.519  23.646  0.00  0.00    +0.176 C 
BRANCH  24  25
ATOM     25  O   UNL     1       8.213   0.655  23.778  0.00  0.00    -0.387 OA
ATOM     26  H   UNL     1       7.735   0.739  22.932  0.00  0.00    +0.210 HD
ENDBRANCH  24  25
BRANCH  24  27
ATOM     27  C   UNL     1       9.144  -0.895  22.146  0.00  0.00    +0.171 C 
BRANCH  27  28
ATOM     28  O   UNL     1      10.368  -1.624  21.936  0.00  0.00    -0.387 OA
ATOM     29  H   UNL     1      10.560  -1.607  20.983  0.00  0.00    +0.210 HD
ENDBRANCH  27  28
BRANCH  27  30
ATOM     30  C   UNL     1       9.146   0.318  21.196  0.00  0.00    +0.189 C 
BRANCH  30  31
ATOM     31  O   UNL     1      10.005   1.370  21.635  0.00  0.00    -0.392 OA
ATOM     32  H   UNL     1      10.920   1.082  21.429  0.00  0.00    +0.210 HD
ENDBRANCH  30  31
ENDBRANCH  27  30
ENDBRANCH  24  27
ENDBRANCH   6  24
TORSDOF 10
ENDMDL
MODEL 7
REMARK VINA RESULT:      -5.6      1.769      2.478
REMARK  Name = 
REMARK  11 active torsions:
REMARK  status: ('A' for Active; 'I' for Inactive)
REMARK    1  A    between atoms: C_1  and  C_2
REMARK    2  A    between atoms: N_4  and  C_5
REMARK    3  A    between atoms: C_7  and  C_20
REMARK    4  A    between atoms: C_10  and  C_17
REMARK    5  A    between atoms: C_12  and  N_13
REMARK    6  A    between atoms: C_17  and  O_19
REMARK    7  A    between atoms: C_20  and  C_22
REMARK    8  A    between atoms: C_20  and  O_27
REMARK    9  A    between atoms: C_22  and  C_24
REMARK   10  A    between atoms: C_22  and  O_26
REMARK   11  A    between atoms: C_24  and  O_25
REMARK                            x       y       z     vdW  Elec       q    Type
REMARK                         _______ _______ _______ _____ _____    ______ ____
ROOT
ATOM      1  C   UNL     1       7.627  -3.433  25.465  0.00  0.00    +0.170 C 
ATOM      2  C   UNL     1       8.260  -3.838  24.151  0.00  0.00    +0.141 C 
ATOM      3  C   UNL     1       7.647  -4.716  23.353  0.00  0.00    +0.059 C 
ATOM      4  C   UNL     1       6.378  -5.415  23.666  0.00  0.00    +0.253 C 
ATOM      5  O   UNL     1       5.956  -5.359  25.025  0.00  0.00    -0.353 OA
ATOM      6  C   UNL     1       6.468  -4.357  25.938  0.00  0.00    +0.178 C 
ENDROOT
BRANCH   2   7
ATOM      7  N   UNL     1       9.406  -3.160  23.806  0.00  0.00    -0.076 NA
ATOM      8  C   UNL     1       9.410  -2.240  22.900  0.00  0.00    +0.382 C 
ATOM      9  N   UNL     1      10.570  -1.618  22.591  0.00  0.00    -0.289 N 
ATOM     10  H   UNL     1      10.474  -0.612  22.528  0.00  0.00    +0.255 HD
ATOM     11  H   UNL     1      11.292  -1.868  23.260  0.00  0.00    +0.255 HD
ATOM     12  N   UNL     1       8.413  -1.731  22.136  0.00  0.00    -0.289 N 
ATOM     13  H   UNL     1       8.724  -1.471  21.206  0.00  0.00    +0.255 HD
ATOM     14  H   UNL     1       7.573  -2.290  22.102  0.00  0.00    +0.255 HD
ENDBRANCH   2   7
BRANCH   1  17
ATOM     15  C   UNL     1       7.015   0.302  25.919  0.00  0.00    +0.109 C 
ATOM     16  C   UNL     1       7.710  -1.020  26.060  0.00  0.00    +0.211 C 
ATOM     17  N   UNL     1       7.149  -2.052  25.342  0.00  0.00    -0.303 N 
ATOM     18  H   UNL     1       6.426  -1.848  24.654  0.00  0.00    +0.149 HD
ATOM     19  O   UNL     1       8.660  -1.173  26.820  0.00  0.00    -0.276 OA
ENDBRANCH   1  17
BRANCH   4  20
ATOM     20  C   UNL     1       5.271  -4.951  22.694  0.00  0.00    +0.338 C 
ATOM     21  O   UNL     1       5.124  -3.804  22.293  0.00  0.00    -0.248 OA
BRANCH  20  22
ATOM     22  O   UNL     1       4.476  -5.974  22.291  0.00  0.00    -0.479 OA
ATOM     23  H   UNL     1       3.725  -6.079  22.913  0.00  0.00    +0.295 HD
ENDBRANCH  20  22
ENDBRANCH   4  20
BRANCH   6  24
ATOM     24  C   UNL     1       6.826  -5.132  27.238  0.00  0.00    +0.176 C 
BRANCH  24  25
ATOM     25  O   UNL     1       8.000  -5.938  26.978  0.00  0.00    -0.387 OA
ATOM     26  H   UNL     1       8.497  -5.966  27.817  0.00  0.00    +0.210 HD
ENDBRANCH  24  25
BRANCH  24  27
ATOM     27  C   UNL     1       5.712  -6.047  27.806  0.00  0.00    +0.171 C 
BRANCH  27  28
ATOM     28  O   UNL     1       4.462  -5.334  27.744  0.00  0.00    -0.387 OA
ATOM     29  H   UNL     1       4.269  -5.161  26.807  0.00  0.00    +0.210 HD
ENDBRANCH  27  28
BRANCH  27  30
ATOM     30  C   UNL     1       5.940  -6.478  29.268  0.00  0.00    +0.189 C 
BRANCH  30  31
ATOM     31  O   UNL     1       6.859  -7.563  29.394  0.00  0.00    -0.392 OA
ATOM     32  H   UNL     1       6.991  -7.701  30.356  0.00  0.00    +0.210 HD
ENDBRANCH  30  31
ENDBRANCH  27  30
ENDBRANCH  24  27
ENDBRANCH   6  24
TORSDOF 10
ENDMDL
MODEL 8
REMARK VINA RESULT:      -5.6      1.978      2.879
REMARK  Name = 
REMARK  11 active torsions:
REMARK  status: ('A' for Active; 'I' for Inactive)
REMARK    1  A    between atoms: C_1  and  C_2
REMARK    2  A    between atoms: N_4  and  C_5
REMARK    3  A    between atoms: C_7  and  C_20
REMARK    4  A    between atoms: C_10  and  C_17
REMARK    5  A    between atoms: C_12  and  N_13
REMARK    6  A    between atoms: C_17  and  O_19
REMARK    7  A    between atoms: C_20  and  C_22
REMARK    8  A    between atoms: C_20  and  O_27
REMARK    9  A    between atoms: C_22  and  C_24
REMARK   10  A    between atoms: C_22  and  O_26
REMARK   11  A    between atoms: C_24  and  O_25
REMARK                            x       y       z     vdW  Elec       q    Type
REMARK                         _______ _______ _______ _____ _____    ______ ____
ROOT
ATOM      1  C   UNL     1       6.171  -3.648  24.608  0.00  0.00    +0.170 C 
ATOM      2  C   UNL     1       6.352  -2.875  23.319  0.00  0.00    +0.141 C 
ATOM      3  C   UNL     1       6.738  -3.507  22.207  0.00  0.00    +0.059 C 
ATOM      4  C   UNL     1       7.083  -4.946  22.117  0.00  0.00    +0.253 C 
ATOM      5  O   UNL     1       7.296  -5.613  23.356  0.00  0.00    -0.353 OA
ATOM      6  C   UNL     1       6.801  -5.072  24.605  0.00  0.00    +0.178 C 
ENDROOT
BRANCH   2   7
ATOM      7  N   UNL     1       5.981  -1.552  23.359  0.00  0.00    -0.076 NA
ATOM      8  C   UNL     1       6.848  -0.597  23.309  0.00  0.00    +0.382 C 
ATOM      9  N   UNL     1       6.426   0.686  23.367  0.00  0.00    -0.289 N 
ATOM     10  H   UNL     1       6.866   1.279  22.674  0.00  0.00    +0.255 HD
ATOM     11  H   UNL     1       5.414   0.728  23.284  0.00  0.00    +0.255 HD
ATOM     12  N   UNL     1       8.199  -0.617  23.203  0.00  0.00    -0.289 N 
ATOM     13  H   UNL     1       8.645   0.138  23.713  0.00  0.00    +0.255 HD
ATOM     14  H   UNL     1       8.629  -1.507  23.408  0.00  0.00    +0.255 HD
ENDBRANCH   2   7
BRANCH   1  17
ATOM     15  C   UNL     1       2.773  -3.908  26.315  0.00  0.00    +0.109 C 
ATOM     16  C   UNL     1       4.248  -3.667  26.184  0.00  0.00    +0.211 C 
ATOM     17  N   UNL     1       4.737  -3.735  24.899  0.00  0.00    -0.303 N 
ATOM     18  H   UNL     1       4.085  -3.778  24.118  0.00  0.00    +0.149 HD
ATOM     19  O   UNL     1       4.964  -3.498  27.164  0.00  0.00    -0.276 OA
ENDBRANCH   1  17
BRANCH   4  20
ATOM     20  C   UNL     1       6.050  -5.676  21.232  0.00  0.00    +0.338 C 
ATOM     21  O   UNL     1       6.022  -5.641  20.009  0.00  0.00    -0.248 OA
BRANCH  20  22
ATOM     22  O   UNL     1       5.170  -6.407  21.963  0.00  0.00    -0.479 OA
ATOM     23  H   UNL     1       5.414  -6.373  22.912  0.00  0.00    +0.295 HD
ENDBRANCH  20  22
ENDBRANCH   4  20
BRANCH   6  24
ATOM     24  C   UNL     1       7.986  -5.193  25.604  0.00  0.00    +0.176 C 
BRANCH  24  25
ATOM     25  O   UNL     1       7.736  -4.299  26.716  0.00  0.00    -0.387 OA
ATOM     26  H   UNL     1       7.728  -4.861  27.514  0.00  0.00    +0.210 HD
ENDBRANCH  24  25
BRANCH  24  27
ATOM     27  C   UNL     1       9.390  -4.885  25.025  0.00  0.00    +0.171 C 
BRANCH  27  28
ATOM     28  O   UNL     1      10.378  -5.485  25.884  0.00  0.00    -0.387 OA
ATOM     29  H   UNL     1      10.001  -6.311  26.232  0.00  0.00    +0.210 HD
ENDBRANCH  27  28
BRANCH  27  30
ATOM     30  C   UNL     1       9.706  -3.380  24.918  0.00  0.00    +0.189 C 
BRANCH  30  31
ATOM     31  O   UNL     1      10.007  -2.967  23.586  0.00  0.00    -0.392 OA
ATOM     32  H   UNL     1      10.963  -3.143  23.452  0.00  0.00    +0.210 HD
ENDBRANCH  30  31
ENDBRANCH  27  30
ENDBRANCH  24  27
ENDBRANCH   6  24
TORSDOF 10
ENDMDL
MODEL 9
REMARK VINA RESULT:      -5.6      2.616      5.337
REMARK  Name = 
REMARK  11 active torsions:
REMARK  status: ('A' for Active; 'I' for Inactive)
REMARK    1  A    between atoms: C_1  and  C_2
REMARK    2  A    between atoms: N_4  and  C_5
REMARK    3  A    between atoms: C_7  and  C_20
REMARK    4  A    between atoms: C_10  and  C_17
REMARK    5  A    between atoms: C_12  and  N_13
REMARK    6  A    between atoms: C_17  and  O_19
REMARK    7  A    between atoms: C_20  and  C_22
REMARK    8  A    between atoms: C_20  and  O_27
REMARK    9  A    between atoms: C_22  and  C_24
REMARK   10  A    between atoms: C_22  and  O_26
REMARK   11  A    between atoms: C_24  and  O_25
REMARK                            x       y       z     vdW  Elec       q    Type
REMARK                         _______ _______ _______ _____ _____    ______ ____
ROOT
ATOM      1  C   UNL     1       7.085  -3.390  24.405  0.00  0.00    +0.170 C 
ATOM      2  C   UNL     1       6.876  -3.120  25.880  0.00  0.00    +0.141 C 
ATOM      3  C   UNL     1       6.690  -1.871  26.314  0.00  0.00    +0.059 C 
ATOM      4  C   UNL     1       6.730  -0.656  25.466  0.00  0.00    +0.253 C 
ATOM      5  O   UNL     1       7.294  -0.821  24.169  0.00  0.00    -0.353 OA
ATOM      6  C   UNL     1       7.419  -2.128  23.556  0.00  0.00    +0.178 C 
ENDROOT
BRANCH   2   7
ATOM      7  N   UNL     1       6.773  -4.233  26.681  0.00  0.00    -0.076 NA
ATOM      8  C   UNL     1       7.779  -5.012  26.903  0.00  0.00    +0.382 C 
ATOM      9  N   UNL     1       7.615  -6.101  27.687  0.00  0.00    -0.289 N 
ATOM     10  H   UNL     1       8.355  -6.212  28.369  0.00  0.00    +0.255 HD
ATOM     11  H   UNL     1       6.708  -6.071  28.144  0.00  0.00    +0.255 HD
ATOM     12  N   UNL     1       9.064  -4.959  26.476  0.00  0.00    -0.289 N 
ATOM     13  H   UNL     1       9.464  -5.877  26.318  0.00  0.00    +0.255 HD
ATOM     14  H   UNL     1       9.229  -4.343  25.694  0.00  0.00    +0.255 HD
ENDBRANCH   2   7
BRANCH   1  17
ATOM     15  C   UNL     1       4.640  -5.687  22.595  0.00  0.00    +0.109 C 
ATOM     16  C   UNL     1       5.944  -5.227  23.178  0.00  0.00    +0.211 C 
ATOM     17  N   UNL     1       5.882  -4.043  23.878  0.00  0.00    -0.303 N 
ATOM     18  H   UNL     1       4.974  -3.640  24.100  0.00  0.00    +0.149 HD
ATOM     19  O   UNL     1       6.991  -5.829  22.973  0.00  0.00    -0.276 OA
ENDBRANCH   1  17
BRANCH   4  20
ATOM     20  C   UNL     1       5.329  -0.008  25.413  0.00  0.00    +0.338 C 
ATOM     21  O   UNL     1       4.413  -0.254  26.185  0.00  0.00    -0.248 OA
BRANCH  20  22
ATOM     22  O   UNL     1       5.222   0.909  24.419  0.00  0.00    -0.479 OA
ATOM     23  H   UNL     1       6.048   0.928  23.890  0.00  0.00    +0.295 HD
ENDBRANCH  20  22
ENDBRANCH   4  20
BRANCH   6  24
ATOM     24  C   UNL     1       8.862  -2.174  22.977  0.00  0.00    +0.176 C 
BRANCH  24  25
ATOM     25  O   UNL     1       9.735  -2.750  23.978  0.00  0.00    -0.387 OA
ATOM     26  H   UNL     1      10.456  -2.106  24.106  0.00  0.00    +0.210 HD
ENDBRANCH  24  25
BRANCH  24  27
ATOM     27  C   UNL     1       9.452  -0.813  22.529  0.00  0.00    +0.171 C 
BRANCH  27  28
ATOM     28  O   UNL     1       9.987  -0.965  21.201  0.00  0.00    -0.387 OA
ATOM     29  H   UNL     1      10.308  -1.879  21.116  0.00  0.00    +0.210 HD
ENDBRANCH  27  28
BRANCH  27  30
ATOM     30  C   UNL     1      10.581  -0.290  23.438  0.00  0.00    +0.189 C 
BRANCH  30  31
ATOM     31  O   UNL     1      10.148  -0.030  24.773  0.00  0.00    -0.392 OA
ATOM     32  H   UNL     1       9.312  -0.530  24.893  0.00  0.00    +0.210 HD
ENDBRANCH  30  31
ENDBRANCH  27  30
ENDBRANCH  24  27
ENDBRANCH   6  24
TORSDOF 10
ENDMDL
