MODEL 1
REMARK VINA RESULT:      -5.8      0.000      0.000
REMARK  Name = 
REMARK  13 active torsions:
REMARK  status: ('A' for Active; 'I' for Inactive)
REMARK    1  A    between atoms: C_1  and  C_2
REMARK    2  A    between atoms: C_2  and  C_3
REMARK    3  A    between atoms: C_3  and  C_4
REMARK    4  A    between atoms: C_3  and  O_6
REMARK    5  A    between atoms: C_4  and  C_5
REMARK    6  A    between atoms: O_6  and  C_7
REMARK    7  A    between atoms: C_9  and  C_19
REMARK    8  A    between atoms: C_11  and  N_18
REMARK    9  A    between atoms: C_12  and  N_14
REMARK   10  A    between atoms: C_15  and  C_17
REMARK   11  A    between atoms: C_19  and  O_21
REMARK   12  A    between atoms: O_21  and  C_22
REMARK   13  A    between atoms: C_22  and  C_23
REMARK                            x       y       z     vdW  Elec       q    Type
REMARK                         _______ _______ _______ _____ _____    ______ ____
ROOT
ATOM      1  C   UNL     1       7.232  -4.287  23.438  0.00  0.00    +0.164 C 
ATOM      2  C   UNL     1       7.782  -4.685  24.846  0.00  0.00    +0.122 C 
ATOM      3  C   UNL     1       9.185  -4.137  25.244  0.00  0.00    +0.078 C 
ATOM      4  C   UNL     1       9.763  -2.976  24.427  0.00  0.00    +0.062 C 
ATOM      5  C   UNL     1       9.018  -2.541  23.206  0.00  0.00    +0.037 C 
ATOM      6  C   UNL     1       7.877  -3.106  22.784  0.00  0.00    +0.016 C 
ENDROOT
BRANCH   2   7
ATOM      7  N   UNL     1       6.806  -4.431  25.916  0.00  0.00    -0.308 N 
ATOM      8  H   UNL     1       5.960  -3.953  25.620  0.00  0.00    +0.149 HD
ATOM      9  C   UNL     1       6.784  -5.202  27.054  0.00  0.00    +0.210 C 
ATOM     10  C   UNL     1       5.707  -4.832  28.034  0.00  0.00    +0.109 C 
ATOM     11  O   UNL     1       7.597  -6.093  27.285  0.00  0.00    -0.276 OA
ENDBRANCH   2   7
BRANCH   3  12
ATOM     12  N   UNL     1      10.192  -5.214  25.370  0.00  0.00    -0.325 NA
ATOM     13  H   UNL     1       9.678  -6.102  25.377  0.00  0.00    +0.119 HD
ATOM     14  H   UNL     1      10.792  -5.243  24.548  0.00  0.00    +0.119 HD
ENDBRANCH   3  12
BRANCH   5  15
ATOM     15  C   UNL     1       9.665  -1.379  22.521  0.00  0.00    +0.335 C 
ATOM     16  O   UNL     1       9.429  -1.082  21.359  0.00  0.00    -0.245 OA
BRANCH  15  17
ATOM     17  O   UNL     1      10.598  -0.790  23.307  0.00  0.00    -0.462 OA
BRANCH  17  18
ATOM     18  C   UNL     1      10.429   0.626  23.451  0.00  0.00    +0.229 C 
ATOM     19  C   UNL     1       9.623   0.859  24.718  0.00  0.00    +0.048 C 
ENDBRANCH  17  18
ENDBRANCH  15  17
ENDBRANCH   5  15
BRANCH   1  20
ATOM     20  O   UNL     1       5.802  -4.097  23.560  0.00  0.00    -0.367 OA
BRANCH  20  21
ATOM     21  C   UNL     1       4.916  -4.995  22.866  0.00  0.00    +0.119 C 
BRANCH  21  23
ATOM     22  C   UNL     1       6.070  -5.818  20.711  0.00  0.00    +0.006 C 
ATOM     23  C   UNL     1       5.685  -6.124  22.151  0.00  0.00    +0.028 C 
ENDBRANCH  21  23
BRANCH  21  24
ATOM     24  C   UNL     1       3.965  -5.589  23.931  0.00  0.00    +0.028 C 
ATOM     25  C   UNL     1       4.453  -6.894  24.551  0.00  0.00    +0.006 C 
ENDBRANCH  21  24
ENDBRANCH  20  21
ENDBRANCH   1  20
TORSDOF 9
ENDMDL
MODEL 2
REMARK VINA RESULT:      -5.4      1.925      2.568
REMARK  Name = 
REMARK  13 active torsions:
REMARK  status: ('A' for Active; 'I' for Inactive)
REMARK    1  A    between atoms: C_1  and  C_2
REMARK    2  A    between atoms: C_2  and  C_3
REMARK    3  A    between atoms: C_3  and  C_4
REMARK    4  A    between atoms: C_3  and  O_6
REMARK    5  A    between atoms: C_4  and  C_5
REMARK    6  A    between atoms: O_6  and  C_7
REMARK    7  A    between atoms: C_9  and  C_19
REMARK    8  A    between atoms: C_11  and  N_18
REMARK    9  A    between atoms: C_12  and  N_14
REMARK   10  A    between atoms: C_15  and  C_17
REMARK   11  A    between atoms: C_19  and  O_21
REMARK   12  A    between atoms: O_21  and  C_22
REMARK   13  A    between atoms: C_22  and  C_23
REMARK                            x       y       z     vdW  Elec       q    Type
REMARK                         _______ _______ _______ _____ _____    ______ ____
ROOT
ATOM      1  C   UNL     1       8.847  -3.344  25.090  0.00  0.00    +0.164 C 
ATOM      2  C   UNL     1       8.151  -2.554  26.246  0.00  0.00    +0.122 C 
ATOM      3  C   UNL     1       8.418  -1.020  26.322  0.00  0.00    +0.078 C 
ATOM      4  C   UNL     1       9.015  -0.332  25.090  0.00  0.00    +0.062 C 
ATOM      5  C   UNL     1       9.448  -1.192  23.948  0.00  0.00    +0.037 C 
ATOM      6  C   UNL     1       9.346  -2.531  23.938  0.00  0.00    +0.016 C 
ENDROOT
BRANCH   2   7
ATOM      7  N   UNL     1       6.709  -2.831  26.319  0.00  0.00    -0.308 N 
ATOM      8  H   UNL     1       6.167  -2.493  25.530  0.00  0.00    +0.149 HD
ATOM      9  C   UNL     1       6.225  -3.871  27.077  0.00  0.00    +0.210 C 
ATOM     10  C   UNL     1       4.733  -4.039  27.019  0.00  0.00    +0.109 C 
ATOM     11  O   UNL     1       6.934  -4.585  27.781  0.00  0.00    -0.276 OA
ENDBRANCH   2   7
BRANCH   3  12
ATOM     12  N   UNL     1       9.184  -0.644  27.530  0.00  0.00    -0.325 NA
ATOM     13  H   UNL     1       8.836   0.273  27.830  0.00  0.00    +0.119 HD
ATOM     14  H   UNL     1       8.984  -1.284  28.296  0.00  0.00    +0.119 HD
ENDBRANCH   3  12
BRANCH   5  15
ATOM     15  C   UNL     1       9.977  -0.399  22.797  0.00  0.00    +0.335 C 
ATOM     16  O   UNL     1      10.164  -0.882  21.690  0.00  0.00    -0.245 OA
BRANCH  15  17
ATOM     17  O   UNL     1      10.315   0.860  23.169  0.00  0.00    -0.462 OA
BRANCH  17  18
ATOM     18  C   UNL     1      10.107   1.845  22.149  0.00  0.00    +0.229 C 
ATOM     19  C   UNL     1       8.613   2.116  22.079  0.00  0.00    +0.048 C 
ENDBRANCH  17  18
ENDBRANCH  15  17
ENDBRANCH   5  15
BRANCH   1  20
ATOM     20  O   UNL     1       7.931  -4.372  24.644  0.00  0.00    -0.367 OA
BRANCH  20  21
ATOM     21  C   UNL     1       7.553  -4.417  23.256  0.00  0.00    +0.119 C 
BRANCH  21  23
ATOM     22  C   UNL     1       6.512  -6.253  21.772  0.00  0.00    +0.006 C 
ATOM     23  C   UNL     1       7.665  -5.841  22.676  0.00  0.00    +0.028 C 
ENDBRANCH  21  23
BRANCH  21  24
ATOM     24  C   UNL     1       6.089  -3.923  23.180  0.00  0.00    +0.028 C 
ATOM     25  C   UNL     1       5.932  -2.510  22.627  0.00  0.00    +0.006 C 
ENDBRANCH  21  24
ENDBRANCH  20  21
ENDBRANCH   1  20
TORSDOF 9
ENDMDL
MODEL 3
REMARK VINA RESULT:      -5.3      2.236      2.625
REMARK  Name = 
REMARK  13 active torsions:
REMARK  status: ('A' for Active; 'I' for Inactive)
REMARK    1  A    between atoms: C_1  and  C_2
REMARK    2  A    between atoms: C_2  and  C_3
REMARK    3  A    between atoms: C_3  and  C_4
REMARK    4  A    between atoms: C_3  and  O_6
REMARK    5  A    between atoms: C_4  and  C_5
REMARK    6  A    between atoms: O_6  and  C_7
REMARK    7  A    between atoms: C_9  and  C_19
REMARK    8  A    between atoms: C_11  and  N_18
REMARK    9  A    between atoms: C_12  and  N_14
REMARK   10  A    between atoms: C_15  and  C_17
REMARK   11  A    between atoms: C_19  and  O_21
REMARK   12  A    between atoms: O_21  and  C_22
REMARK   13  A    between atoms: C_22  and  C_23
REMARK                            x       y       z     vdW  Elec       q    Type
REMARK                         _______ _______ _______ _____ _____    ______ ____
ROOT
ATOM      1  C   UNL     1       7.104  -2.565  22.804  0.00  0.00    +0.164 C 
ATOM      2  C   UNL     1       8.409  -2.969  23.565  0.00  0.00    +0.122 C 
ATOM      3  C   UNL     1       9.527  -1.890  23.684  0.00  0.00    +0.078 C 
ATOM      4  C   UNL     1       9.154  -0.432  23.395  0.00  0.00    +0.062 C 
ATOM      5  C   UNL     1       7.784  -0.150  22.869  0.00  0.00    +0.037 C 
ATOM      6  C   UNL     1       6.863  -1.098  22.634  0.00  0.00    +0.016 C 
ENDROOT
BRANCH   2   7
ATOM      7  N   UNL     1       8.124  -3.565  24.879  0.00  0.00    -0.308 N 
ATOM      8  H   UNL     1       7.286  -3.217  25.335  0.00  0.00    +0.149 HD
ATOM      9  C   UNL     1       8.611  -4.805  25.216  0.00  0.00    +0.210 C 
ATOM     10  C   UNL     1       8.204  -5.283  26.580  0.00  0.00    +0.109 C 
ATOM     11  O   UNL     1       9.354  -5.462  24.490  0.00  0.00    -0.276 OA
ENDBRANCH   2   7
BRANCH   3  12
ATOM     12  N   UNL     1      10.743  -2.258  22.928  0.00  0.00    -0.325 NA
ATOM     13  H   UNL     1      11.393  -1.469  23.006  0.00  0.00    +0.119 HD
ATOM     14  H   UNL     1      11.211  -3.051  23.362  0.00  0.00    +0.119 HD
ENDBRANCH   3  12
BRANCH   5  15
ATOM     15  C   UNL     1       7.534   1.309  22.665  0.00  0.00    +0.335 C 
ATOM     16  O   UNL     1       6.426   1.763  22.418  0.00  0.00    -0.245 OA
BRANCH  15  17
ATOM     17  O   UNL     1       8.687   2.022  22.680  0.00  0.00    -0.462 OA
BRANCH  17  18
ATOM     18  C   UNL     1       8.574   3.297  23.325  0.00  0.00    +0.229 C 
ATOM     19  C   UNL     1       8.654   3.055  24.823  0.00  0.00    +0.048 C 
ENDBRANCH  17  18
ENDBRANCH  15  17
ENDBRANCH   5  15
BRANCH   1  20
ATOM     20  O   UNL     1       5.988  -3.201  23.472  0.00  0.00    -0.367 OA
BRANCH  20  21
ATOM     21  C   UNL     1       5.306  -4.286  22.815  0.00  0.00    +0.119 C 
BRANCH  21  23
ATOM     22  C   UNL     1       6.904  -6.076  21.867  0.00  0.00    +0.006 C 
ATOM     23  C   UNL     1       6.099  -4.812  21.602  0.00  0.00    +0.028 C 
ENDBRANCH  21  23
BRANCH  21  24
ATOM     24  C   UNL     1       5.136  -5.405  23.869  0.00  0.00    +0.028 C 
ATOM     25  C   UNL     1       4.679  -4.913  25.237  0.00  0.00    +0.006 C 
ENDBRANCH  21  24
ENDBRANCH  20  21
ENDBRANCH   1  20
TORSDOF 9
ENDMDL
MODEL 4
REMARK VINA RESULT:      -5.3      2.108      6.532
REMARK  Name = 
REMARK  13 active torsions:
REMARK  status: ('A' for Active; 'I' for Inactive)
REMARK    1  A    between atoms: C_1  and  C_2
REMARK    2  A    between atoms: C_2  and  C_3
REMARK    3  A    between atoms: C_3  and  C_4
REMARK    4  A    between atoms: C_3  and  O_6
REMARK    5  A    between atoms: C_4  and  C_5
REMARK    6  A    between atoms: O_6  and  C_7
REMARK    7  A    between atoms: C_9  and  C_19
REMARK    8  A    between atoms: C_11  and  N_18
REMARK    9  A    between atoms: C_12  and  N_14
REMARK   10  A    between atoms: C_15  and  C_17
REMARK   11  A    between atoms: C_19  and  O_21
REMARK   12  A    between atoms: O_21  and  C_22
REMARK   13  A    between atoms: C_22  and  C_23
REMARK                            x       y       z     vdW  Elec       q    Type
REMARK                         _______ _______ _______ _____ _____    ______ ____
ROOT
ATOM      1  C   UNL     1       8.251  -2.367  26.122  0.00  0.00    +0.164 C 
ATOM      2  C   UNL     1       8.994  -3.030  24.916  0.00  0.00    +0.122 C 
ATOM      3  C   UNL     1       8.923  -4.582  24.802  0.00  0.00    +0.078 C 
ATOM      4  C   UNL     1       7.859  -5.317  25.625  0.00  0.00    +0.062 C 
ATOM      5  C   UNL     1       7.055  -4.520  26.601  0.00  0.00    +0.037 C 
ATOM      6  C   UNL     1       7.212  -3.202  26.800  0.00  0.00    +0.016 C 
ENDROOT
BRANCH   2   7
ATOM      7  N   UNL     1       8.643  -2.401  23.634  0.00  0.00    -0.308 N 
ATOM      8  H   UNL     1       7.748  -1.921  23.623  0.00  0.00    +0.149 HD
ATOM      9  C   UNL     1       9.614  -2.042  22.730  0.00  0.00    +0.210 C 
ATOM     10  C   UNL     1       9.092  -1.384  21.485  0.00  0.00    +0.109 C 
ATOM     11  O   UNL     1      10.810  -2.272  22.893  0.00  0.00    -0.276 OA
ENDBRANCH   2   7
BRANCH   3  12
ATOM     12  N   UNL     1      10.243  -5.219  25.003  0.00  0.00    -0.325 NA
ATOM     13  H   UNL     1      10.767  -4.621  25.652  0.00  0.00    +0.119 HD
ATOM     14  H   UNL     1      10.142  -6.118  25.469  0.00  0.00    +0.119 HD
ENDBRANCH   3  12
BRANCH   5  15
ATOM     15  C   UNL     1       6.030  -5.344  27.311  0.00  0.00    +0.335 C 
ATOM     16  O   UNL     1       5.489  -4.981  28.344  0.00  0.00    -0.245 OA
BRANCH  15  17
ATOM     17  O   UNL     1       5.871  -6.558  26.728  0.00  0.00    -0.462 OA
BRANCH  17  18
ATOM     18  C   UNL     1       4.519  -6.850  26.350  0.00  0.00    +0.229 C 
ATOM     19  C   UNL     1       4.475  -6.900  24.832  0.00  0.00    +0.048 C 
ENDBRANCH  17  18
ENDBRANCH  15  17
ENDBRANCH   5  15
BRANCH   1  20
ATOM     20  O   UNL     1       7.693  -1.113  25.661  0.00  0.00    -0.367 OA
BRANCH  20  21
ATOM     21  C   UNL     1       8.260   0.122  26.136  0.00  0.00    +0.119 C 
BRANCH  21  23
ATOM     22  C   UNL     1      10.439   0.672  24.868  0.00  0.00    +0.006 C 
ATOM     23  C   UNL     1       8.942   0.913  25.002  0.00  0.00    +0.028 C 
ENDBRANCH  21  23
BRANCH  21  24
ATOM     24  C   UNL     1       7.095   0.942  26.735  0.00  0.00    +0.028 C 
ATOM     25  C   UNL     1       5.711   0.484  26.290  0.00  0.00    +0.006 C 
ENDBRANCH  21  24
ENDBRANCH  20  21
ENDBRANCH   1  20
TORSDOF 9
ENDMDL
MODEL 5
REMARK VINA RESULT:      -5.3      3.916      6.353
REMARK  Name = 
REMARK  13 active torsions:
REMARK  status: ('A' for Active; 'I' for Inactive)
REMARK    1  A    between atoms: C_1  and  C_2
REMARK    2  A    between atoms: C_2  and  C_3
REMARK    3  A    between atoms: C_3  and  C_4
REMARK    4  A    between atoms: C_3  and  O_6
REMARK    5  A    between atoms: C_4  and  C_5
REMARK    6  A    between atoms: O_6  and  C_7
REMARK    7  A    between atoms: C_9  and  C_19
REMARK    8  A    between atoms: C_11  and  N_18
REMARK    9  A    between atoms: C_12  and  N_14
REMARK   10  A    between atoms: C_15  and  C_17
REMARK   11  A    between atoms: C_19  and  O_21
REMARK   12  A    between atoms: O_21  and  C_22
REMARK   13  A    between atoms: C_22  and  C_23
REMARK                            x       y       z     vdW  Elec       q    Type
REMARK                         _______ _______ _______ _____ _____    ______ ____
ROOT
ATOM      1  C   UNL     1       8.236   1.368  24.465  0.00  0.00    +0.164 C 
ATOM      2  C   UNL     1       8.706   0.340  23.385  0.00  0.00    +0.122 C 
ATOM      3  C   UNL     1       9.628   0.873  22.248  0.00  0.00    +0.078 C 
ATOM      4  C   UNL     1      10.307   2.231  22.449  0.00  0.00    +0.062 C 
ATOM      5  C   UNL     1       9.928   3.033  23.651  0.00  0.00    +0.037 C 
ATOM      6  C   UNL     1       9.027   2.634  24.563  0.00  0.00    +0.016 C 
ENDROOT
BRANCH   2   7
ATOM      7  N   UNL     1       9.275  -0.875  23.985  0.00  0.00    -0.308 N 
ATOM      8  H   UNL     1       9.684  -0.748  24.906  0.00  0.00    +0.149 HD
ATOM      9  C   UNL     1       8.845  -2.124  23.605  0.00  0.00    +0.210 C 
ATOM     10  C   UNL     1       9.504  -3.259  24.335  0.00  0.00    +0.109 C 
ATOM     11  O   UNL     1       8.022  -2.315  22.713  0.00  0.00    -0.276 OA
ENDBRANCH   2   7
BRANCH   3  12
ATOM     12  N   UNL     1       8.966   0.831  20.925  0.00  0.00    -0.325 NA
ATOM     13  H   UNL     1       8.688  -0.143  20.761  0.00  0.00    +0.119 HD
ATOM     14  H   UNL     1       8.102   1.371  20.938  0.00  0.00    +0.119 HD
ENDBRANCH   3  12
BRANCH   5  15
ATOM     15  C   UNL     1      10.687   4.317  23.751  0.00  0.00    +0.335 C 
ATOM     16  O   UNL     1      10.159   5.375  24.059  0.00  0.00    -0.245 OA
BRANCH  15  17
ATOM     17  O   UNL     1      11.975   4.169  23.357  0.00  0.00    -0.462 OA
BRANCH  17  18
ATOM     18  C   UNL     1      12.742   5.380  23.405  0.00  0.00    +0.229 C 
ATOM     19  C   UNL     1      13.285   5.626  22.007  0.00  0.00    +0.048 C 
ENDBRANCH  17  18
ENDBRANCH  15  17
ENDBRANCH   5  15
BRANCH   1  20
ATOM     20  O   UNL     1       8.193   0.682  25.739  0.00  0.00    -0.367 OA
BRANCH  20  21
ATOM     21  C   UNL     1       6.917   0.430  26.356  0.00  0.00    +0.119 C 
BRANCH  21  23
ATOM     22  C   UNL     1       5.597  -1.539  25.338  0.00  0.00    +0.006 C 
ATOM     23  C   UNL     1       6.586  -1.075  26.398  0.00  0.00    +0.028 C 
ENDBRANCH  21  23
BRANCH  21  24
ATOM     24  C   UNL     1       7.000   1.000  27.791  0.00  0.00    +0.028 C 
ATOM     25  C   UNL     1       6.898   2.519  27.870  0.00  0.00    +0.006 C 
ENDBRANCH  21  24
ENDBRANCH  20  21
ENDBRANCH   1  20
TORSDOF 9
ENDMDL
MODEL 6
REMARK VINA RESULT:      -5.2      2.718      6.084
REMARK  Name = 
REMARK  13 active torsions:
REMARK  status: ('A' for Active; 'I' for Inactive)
REMARK    1  A    between atoms: C_1  and  C_2
REMARK    2  A    between atoms: C_2  and  C_3
REMARK    3  A    between atoms: C_3  and  C_4
REMARK    4  A    between atoms: C_3  and  O_6
REMARK    5  A    between atoms: C_4  and  C_5
REMARK    6  A    between atoms: O_6  and  C_7
REMARK    7  A    between atoms: C_9  and  C_19
REMARK    8  A    between atoms: C_11  and  N_18
REMARK    9  A    between atoms: C_12  and  N_14
REMARK   10  A    between atoms: C_15  and  C_17
REMARK   11  A    between atoms: C_19  and  O_21
REMARK   12  A    between atoms: O_21  and  C_22
REMARK   13  A    between atoms: C_22  and  C_23
REMARK                            x       y       z     vdW  Elec       q    Type
REMARK                         _______ _______ _______ _____ _____    ______ ____
ROOT
ATOM      1  C   UNL     1       7.085  -1.355  23.235  0.00  0.00    +0.164 C 
ATOM      2  C   UNL     1       6.075  -1.212  24.420  0.00  0.00    +0.122 C 
ATOM      3  C   UNL     1       5.580  -2.526  25.097  0.00  0.00    +0.078 C 
ATOM      4  C   UNL     1       6.364  -3.814  24.828  0.00  0.00    +0.062 C 
ATOM      5  C   UNL     1       7.464  -3.766  23.817  0.00  0.00    +0.037 C 
ATOM      6  C   UNL     1       7.802  -2.664  23.130  0.00  0.00    +0.016 C 
ENDROOT
BRANCH   2   7
ATOM      7  N   UNL     1       6.540  -0.253  25.433  0.00  0.00    -0.308 N 
ATOM      8  H   UNL     1       7.547  -0.141  25.487  0.00  0.00    +0.149 HD
ATOM      9  C   UNL     1       5.722   0.758  25.881  0.00  0.00    +0.210 C 
ATOM     10  C   UNL     1       6.358   1.669  26.892  0.00  0.00    +0.109 C 
ATOM     11  O   UNL     1       4.554   0.892  25.527  0.00  0.00    -0.276 OA
ENDBRANCH   2   7
BRANCH   3  12
ATOM     12  N   UNL     1       4.136  -2.760  24.874  0.00  0.00    -0.325 NA
ATOM     13  H   UNL     1       3.637  -1.968  25.294  0.00  0.00    +0.119 HD
ATOM     14  H   UNL     1       3.917  -2.734  23.880  0.00  0.00    +0.119 HD
ENDBRANCH   3  12
BRANCH   5  15
ATOM     15  C   UNL     1       8.173  -5.074  23.676  0.00  0.00    +0.335 C 
ATOM     16  O   UNL     1       8.877  -5.544  24.558  0.00  0.00    -0.245 OA
BRANCH  15  17
ATOM     17  O   UNL     1       8.022  -5.595  22.434  0.00  0.00    -0.462 OA
BRANCH  17  18
ATOM     18  C   UNL     1       6.770  -6.266  22.232  0.00  0.00    +0.229 C 
ATOM     19  C   UNL     1       6.158  -5.706  20.958  0.00  0.00    +0.048 C 
ENDBRANCH  17  18
ENDBRANCH  15  17
ENDBRANCH   5  15
BRANCH   1  20
ATOM     20  O   UNL     1       8.021  -0.254  23.318  0.00  0.00    -0.367 OA
BRANCH  20  21
ATOM     21  C   UNL     1       9.212  -0.286  22.508  0.00  0.00    +0.119 C 
BRANCH  21  23
ATOM     22  C   UNL     1       8.148   1.888  21.614  0.00  0.00    +0.006 C 
ATOM     23  C   UNL     1       9.189   0.796  21.410  0.00  0.00    +0.028 C 
ENDBRANCH  21  23
BRANCH  21  24
ATOM     24  C   UNL     1      10.403  -0.051  23.465  0.00  0.00    +0.028 C 
ATOM     25  C   UNL     1      10.015   0.526  24.822  0.00  0.00    +0.006 C 
ENDBRANCH  21  24
ENDBRANCH  20  21
ENDBRANCH   1  20
TORSDOF 9
ENDMDL
MODEL 7
REMARK VINA RESULT:      -5.0      2.680      5.858
REMARK  Name = 
REMARK  13 active torsions:
REMARK  status: ('A' for Active; 'I' for Inactive)
REMARK    1  A    between atoms: C_1  and  C_2
REMARK    2  A    between atoms: C_2  and  C_3
REMARK    3  A    between atoms: C_3  and  C_4
REMARK    4  A    between atoms: C_3  and  O_6
REMARK    5  A    between atoms: C_4  and  C_5
REMARK    6  A    between atoms: O_6  and  C_7
REMARK    7  A    between atoms: C_9  and  C_19
REMARK    8  A    between atoms: C_11  and  N_18
REMARK    9  A    between atoms: C_12  and  N_14
REMARK   10  A    between atoms: C_15  and  C_17
REMARK   11  A    between atoms: C_19  and  O_21
REMARK   12  A    between atoms: O_21  and  C_22
REMARK   13  A    between atoms: C_22  and  C_23
REMARK                            x       y       z     vdW  Elec       q    Type
REMARK                         _______ _______ _______ _____ _____    ______ ____
ROOT
ATOM      1  C   UNL     1       5.848  -2.758  23.049  0.00  0.00    +0.164 C 
ATOM      2  C   UNL     1       6.570  -1.431  23.453  0.00  0.00    +0.122 C 
ATOM      3  C   UNL     1       6.033  -0.682  24.710  0.00  0.00    +0.078 C 
ATOM      4  C   UNL     1       5.113  -1.448  25.665  0.00  0.00    +0.062 C 
ATOM      5  C   UNL     1       4.661  -2.813  25.259  0.00  0.00    +0.037 C 
ATOM      6  C   UNL     1       5.013  -3.406  24.108  0.00  0.00    +0.016 C 
ENDROOT
BRANCH   2   7
ATOM      7  N   UNL     1       8.029  -1.594  23.533  0.00  0.00    -0.308 N 
ATOM      8  H   UNL     1       8.342  -2.517  23.817  0.00  0.00    +0.149 HD
ATOM      9  C   UNL     1       8.874  -0.787  22.808  0.00  0.00    +0.210 C 
ATOM     10  C   UNL     1      10.332  -1.103  22.977  0.00  0.00    +0.109 C 
ATOM     11  O   UNL     1       8.487   0.147  22.111  0.00  0.00    -0.276 OA
ENDBRANCH   2   7
BRANCH   3  12
ATOM     12  N   UNL     1       5.430   0.625  24.367  0.00  0.00    -0.325 NA
ATOM     13  H   UNL     1       4.433   0.456  24.194  0.00  0.00    +0.119 HD
ATOM     14  H   UNL     1       5.473   1.260  25.161  0.00  0.00    +0.119 HD
ENDBRANCH   3  12
BRANCH   5  15
ATOM     15  C   UNL     1       3.800  -3.466  26.292  0.00  0.00    +0.335 C 
ATOM     16  O   UNL     1       2.631  -3.156  26.472  0.00  0.00    -0.245 OA
BRANCH  15  17
ATOM     17  O   UNL     1       4.503  -4.342  27.050  0.00  0.00    -0.462 OA
BRANCH  17  18
ATOM     18  C   UNL     1       3.948  -5.664  27.080  0.00  0.00    +0.229 C 
ATOM     19  C   UNL     1       4.791  -6.529  26.158  0.00  0.00    +0.048 C 
ENDBRANCH  17  18
ENDBRANCH  15  17
ENDBRANCH   5  15
BRANCH   1  20
ATOM     20  O   UNL     1       6.853  -3.672  22.547  0.00  0.00    -0.367 OA
BRANCH  20  21
ATOM     21  C   UNL     1       6.958  -4.984  23.129  0.00  0.00    +0.119 C 
BRANCH  21  23
ATOM     22  C   UNL     1       6.177  -5.794  20.807  0.00  0.00    +0.006 C 
ATOM     23  C   UNL     1       7.000  -6.088  22.053  0.00  0.00    +0.028 C 
ENDBRANCH  21  23
BRANCH  21  24
ATOM     24  C   UNL     1       8.263  -4.997  23.959  0.00  0.00    +0.028 C 
ATOM     25  C   UNL     1       8.053  -4.830  25.460  0.00  0.00    +0.006 C 
ENDBRANCH  21  24
ENDBRANCH  20  21
ENDBRANCH   1  20
TORSDOF 9
ENDMDL
MODEL 8
REMARK VINA RESULT:      -5.0      2.155      3.151
REMARK  Name = 
REMARK  13 active torsions:
REMARK  status: ('A' for Active; 'I' for Inactive)
REMARK    1  A    between atoms: C_1  and  C_2
REMARK    2  A    between atoms: C_2  and  C_3
REMARK    3  A    between atoms: C_3  and  C_4
REMARK    4  A    between atoms: C_3  and  O_6
REMARK    5  A    between atoms: C_4  and  C_5
REMARK    6  A    between atoms: O_6  and  C_7
REMARK    7  A    between atoms: C_9  and  C_19
REMARK    8  A    between atoms: C_11  and  N_18
REMARK    9  A    between atoms: C_12  and  N_14
REMARK   10  A    between atoms: C_15  and  C_17
REMARK   11  A    between atoms: C_19  and  O_21
REMARK   12  A    between atoms: O_21  and  C_22
REMARK   13  A    between atoms: C_22  and  C_23
REMARK                            x       y       z     vdW  Elec       q    Type
REMARK                         _______ _______ _______ _____ _____    ______ ____
ROOT
ATOM      1  C   UNL     1       5.383  -5.880  24.817  0.00  0.00    +0.164 C 
ATOM      2  C   UNL     1       5.937  -5.916  26.279  0.00  0.00    +0.122 C 
ATOM      3  C   UNL     1       7.097  -4.935  26.625  0.00  0.00    +0.078 C 
ATOM      4  C   UNL     1       7.366  -3.771  25.666  0.00  0.00    +0.062 C 
ATOM      5  C   UNL     1       6.604  -3.732  24.381  0.00  0.00    +0.037 C 
ATOM      6  C   UNL     1       5.700  -4.656  24.018  0.00  0.00    +0.016 C 
ENDROOT
BRANCH   2   7
ATOM      7  N   UNL     1       4.866  -5.824  27.282  0.00  0.00    -0.308 N 
ATOM      8  H   UNL     1       4.006  -5.394  26.953  0.00  0.00    +0.149 HD
ATOM      9  C   UNL     1       4.825  -6.678  28.357  0.00  0.00    +0.210 C 
ATOM     10  C   UNL     1       3.651  -6.473  29.271  0.00  0.00    +0.109 C 
ATOM     11  O   UNL     1       5.692  -7.517  28.590  0.00  0.00    -0.276 OA
ENDBRANCH   2   7
BRANCH   3  12
ATOM     12  N   UNL     1       8.361  -5.645  26.922  0.00  0.00    -0.325 NA
ATOM     13  H   UNL     1       8.864  -5.080  27.615  0.00  0.00    +0.119 HD
ATOM     14  H   UNL     1       8.173  -6.539  27.371  0.00  0.00    +0.119 HD
ENDBRANCH   3  12
BRANCH   5  15
ATOM     15  C   UNL     1       6.930  -2.530  23.554  0.00  0.00    +0.335 C 
ATOM     16  O   UNL     1       6.408  -1.440  23.736  0.00  0.00    -0.245 OA
BRANCH  15  17
ATOM     17  O   UNL     1       7.774  -2.835  22.538  0.00  0.00    -0.462 OA
BRANCH  17  18
ATOM     18  C   UNL     1       8.718  -1.800  22.234  0.00  0.00    +0.229 C 
ATOM     19  C   UNL     1       9.872  -1.939  23.212  0.00  0.00    +0.048 C 
ENDBRANCH  17  18
ENDBRANCH  15  17
ENDBRANCH   5  15
BRANCH   1  20
ATOM     20  O   UNL     1       3.954  -6.103  24.881  0.00  0.00    -0.367 OA
BRANCH  20  21
ATOM     21  C   UNL     1       3.096  -5.414  23.953  0.00  0.00    +0.119 C 
BRANCH  21  23
ATOM     22  C   UNL     1       0.973  -6.018  22.617  0.00  0.00    +0.006 C 
ATOM     23  C   UNL     1       2.405  -6.388  22.977  0.00  0.00    +0.028 C 
ENDBRANCH  21  23
BRANCH  21  24
ATOM     24  C   UNL     1       2.040  -4.666  24.799  0.00  0.00    +0.028 C 
ATOM     25  C   UNL     1       2.594  -3.496  25.604  0.00  0.00    +0.006 C 
ENDBRANCH  21  24
ENDBRANCH  20  21
ENDBRANCH   1  20
TORSDOF 9
ENDMDL
MODEL 9
REMARK VINA RESULT:      -5.0      1.484      2.259
REMARK  Name = 
REMARK  13 active torsions:
REMARK  status: ('A' for Active; 'I' for Inactive)
REMARK    1  A    between atoms: C_1  and  C_2
REMARK    2  A    between atoms: C_2  and  C_3
REMARK    3  A    between atoms: C_3  and  C_4
REMARK    4  A    between atoms: C_3  and  O_6
REMARK    5  A    between atoms: C_4  and  C_5
REMARK    6  A    between atoms: O_6  and  C_7
REMARK    7  A    between atoms: C_9  and  C_19
REMARK    8  A    between atoms: C_11  and  N_18
REMARK    9  A    between atoms: C_12  and  N_14
REMARK   10  A    between atoms: C_15  and  C_17
REMARK   11  A    between atoms: C_19  and  O_21
REMARK   12  A    between atoms: O_21  and  C_22
REMARK   13  A    between atoms: C_22  and  C_23
REMARK                            x       y       z     vdW  Elec       q    Type
REMARK                         _______ _______ _______ _____ _____    ______ ____
ROOT
ATOM      1  C   UNL     1       6.753  -5.230  24.913  0.00  0.00    +0.164 C 
ATOM      2  C   UNL     1       7.404  -5.118  26.330  0.00  0.00    +0.122 C 
ATOM      3  C   UNL     1       8.679  -4.231  26.460  0.00  0.00    +0.078 C 
ATOM      4  C   UNL     1       8.995  -3.253  25.323  0.00  0.00    +0.062 C 
ATOM      5  C   UNL     1       8.150  -3.314  24.092  0.00  0.00    +0.037 C 
ATOM      6  C   UNL     1       7.134  -4.175  23.923  0.00  0.00    +0.016 C 
ENDROOT
BRANCH   2   7
ATOM      7  N   UNL     1       6.423  -4.766  27.366  0.00  0.00    -0.308 N 
ATOM      8  H   UNL     1       5.696  -4.123  27.068  0.00  0.00    +0.149 HD
ATOM      9  C   UNL     1       6.192  -5.597  28.437  0.00  0.00    +0.210 C 
ATOM     10  C   UNL     1       5.138  -5.108  29.388  0.00  0.00    +0.109 C 
ATOM     11  O   UNL     1       6.818  -6.635  28.636  0.00  0.00    -0.276 OA
ENDBRANCH   2   7
BRANCH   3  12
ATOM     12  N   UNL     1       9.883  -5.027  26.788  0.00  0.00    -0.325 NA
ATOM     13  H   UNL     1       9.610  -6.015  26.736  0.00  0.00    +0.119 HD
ATOM     14  H   UNL     1      10.603  -4.897  26.081  0.00  0.00    +0.119 HD
ENDBRANCH   3  12
BRANCH   5  15
ATOM     15  C   UNL     1       8.535  -2.286  23.078  0.00  0.00    +0.335 C 
ATOM     16  O   UNL     1       7.757  -1.862  22.236  0.00  0.00    -0.245 OA
BRANCH  15  17
ATOM     17  O   UNL     1       9.854  -1.981  23.149  0.00  0.00    -0.462 OA
BRANCH  17  18
ATOM     18  C   UNL     1      10.153  -0.611  22.850  0.00  0.00    +0.229 C 
ATOM     19  C   UNL     1      10.347   0.108  24.175  0.00  0.00    +0.048 C 
ENDBRANCH  17  18
ENDBRANCH  15  17
ENDBRANCH   5  15
BRANCH   1  20
ATOM     20  O   UNL     1       5.317  -5.282  25.090  0.00  0.00    -0.367 OA
BRANCH  20  21
ATOM     21  C   UNL     1       4.612  -6.486  24.735  0.00  0.00    +0.119 C 
BRANCH  21  23
ATOM     22  C   UNL     1       2.559  -7.916  25.366  0.00  0.00    +0.006 C 
ATOM     23  C   UNL     1       3.595  -6.897  25.819  0.00  0.00    +0.028 C 
ENDBRANCH  21  23
BRANCH  21  24
ATOM     24  C   UNL     1       3.885  -6.197  23.402  0.00  0.00    +0.028 C 
ATOM     25  C   UNL     1       2.906  -5.029  23.462  0.00  0.00    +0.006 C 
ENDBRANCH  21  24
ENDBRANCH  20  21
ENDBRANCH   1  20
TORSDOF 9
ENDMDL
