MODEL 1
REMARK VINA RESULT:      -7.2      0.000      0.000
REMARK  Name = 
REMARK  16 active torsions:
REMARK  status: ('A' for Active; 'I' for Inactive)
REMARK    1  A    between atoms: C_1  and  C_2
REMARK    2  A    between atoms: C_2  and  C_3
REMARK    3  A    between atoms: C_2  and  C_4
REMARK    4  A    between atoms: C_4  and  N_5
REMARK    5  A    between atoms: N_5  and  C_6
REMARK    6  A    between atoms: N_5  and  S_34
REMARK    7  A    between atoms: C_6  and  C_7
REMARK    8  A    between atoms: C_7  and  C_9
REMARK    9  A    between atoms: C_7  and  O_33
REMARK   10  A    between atoms: C_9  and  C_11
REMARK   11  A    between atoms: C_9  and  N_18
REMARK   12  A    between atoms: C_11  and  C_12
REMARK   13  A    between atoms: C_19  and  O_21
REMARK   14  A    between atoms: O_21  and  C_22
REMARK   15  A    between atoms: S_34  and  C_37
REMARK   16  A    between atoms: C_40  and  N_43
REMARK                            x       y       z     vdW  Elec       q    Type
REMARK                         _______ _______ _______ _____ _____    ______ ____
ROOT
ATOM      1  C   UNL     1       8.153  -1.149  26.527  0.00  0.00    +0.151 C 
ENDROOT
BRANCH   1   2
ATOM      2  O   UNL     1       9.113  -0.867  27.572  0.00  0.00    -0.389 OA
ATOM      3  H   UNL     1       9.975  -0.715  27.127  0.00  0.00    +0.210 HD
ENDBRANCH   1   2
BRANCH   1   4
ATOM      4  C   UNL     1       8.447  -0.134  25.312  0.00  0.00    +0.142 C 
BRANCH   4   5
ATOM      5  N   UNL     1       7.241   0.282  24.362  0.00  0.00    -0.174 NA
BRANCH   5   6
ATOM      6  S   UNL     1       6.244   1.640  24.907  0.00  0.00    +0.061 S 
ATOM      7  O   UNL     1       6.267   1.640  26.349  0.00  0.00    -0.153 OA
ATOM      8  O   UNL     1       5.002   1.617  24.181  0.00  0.00    -0.153 OA
BRANCH   6   9
ATOM      9  C   UNL     1       7.171   3.067  24.319  0.00  0.00    +0.106 A 
ATOM     10  C   UNL     1       6.782   3.793  23.187  0.00  0.00    +0.030 A 
ATOM     11  C   UNL     1       7.549   4.899  22.772  0.00  0.00    +0.024 A 
ATOM     12  C   UNL     1       8.677   5.305  23.496  0.00  0.00    +0.025 A 
ATOM     13  C   UNL     1       9.091   4.522  24.577  0.00  0.00    +0.024 A 
ATOM     14  C   UNL     1       8.340   3.418  24.999  0.00  0.00    +0.030 A 
BRANCH  12  15
ATOM     15  N   UNL     1       9.506   6.324  23.013  0.00  0.00    -0.358 N 
ATOM     16  H   UNL     1       9.113   7.257  23.078  0.00  0.00    +0.142 HD
ATOM     17  H   UNL     1      10.461   6.287  23.359  0.00  0.00    +0.142 HD
ENDBRANCH  12  15
ENDBRANCH   6   9
ENDBRANCH   5   6
BRANCH   5  18
ATOM     18  C   UNL     1       7.683   0.630  22.926  0.00  0.00    +0.112 C 
BRANCH  18  20
ATOM     19  C   UNL     1       9.347  -0.715  21.494  0.00  0.00    +0.008 C 
ATOM     20  C   UNL     1       9.147   0.404  22.516  0.00  0.00    -0.001 C 
ATOM     21  C   UNL     1       9.676   1.731  21.914  0.00  0.00    +0.008 C 
ENDBRANCH  18  20
ENDBRANCH   5  18
ENDBRANCH   4   5
ENDBRANCH   1   4
BRANCH   1  22
ATOM     22  C   UNL     1       8.318  -2.751  26.290  0.00  0.00    +0.110 C 
BRANCH  22  23
ATOM     23  N   UNL     1       7.041  -3.515  26.620  0.00  0.00    -0.275 N 
ATOM     24  H   UNL     1       6.196  -2.957  26.629  0.00  0.00    +0.152 HD
ATOM     25  C   UNL     1       6.927  -4.785  27.133  0.00  0.00    +0.401 C 
ATOM     26  O   UNL     1       7.864  -5.525  27.391  0.00  0.00    -0.226 OA
BRANCH  25  27
ATOM     27  O   UNL     1       5.599  -5.169  27.236  0.00  0.00    -0.444 OA
BRANCH  27  28
ATOM     28  C   UNL     1       5.187  -6.158  26.280  0.00  0.00    +0.212 C 
ATOM     29  C   UNL     1       4.763  -5.565  24.942  0.00  0.00    +0.090 C 
ATOM     30  C   UNL     1       3.498  -4.718  24.811  0.00  0.00    +0.040 C 
ATOM     31  C   UNL     1       2.953  -5.144  23.453  0.00  0.00    +0.163 C 
ATOM     32  O   UNL     1       3.429  -6.468  23.195  0.00  0.00    -0.351 OA
ATOM     33  C   UNL     1       4.324  -6.831  24.237  0.00  0.00    +0.257 C 
ATOM     34  O   UNL     1       3.677  -7.642  25.242  0.00  0.00    -0.347 OA
ATOM     35  C   UNL     1       4.005  -7.089  26.547  0.00  0.00    +0.208 C 
ENDBRANCH  27  28
ENDBRANCH  25  27
ENDBRANCH  22  23
BRANCH  22  36
ATOM     36  C   UNL     1       8.896  -3.163  24.904  0.00  0.00    +0.060 C 
BRANCH  36  37
ATOM     37  C   UNL     1       7.973  -3.765  23.859  0.00  0.00    -0.046 A 
ATOM     38  C   UNL     1       8.094  -5.114  23.472  0.00  0.00    +0.004 A 
ATOM     39  C   UNL     1       7.308  -5.648  22.444  0.00  0.00    +0.000 A 
ATOM     40  C   UNL     1       6.392  -4.838  21.781  0.00  0.00    +0.000 A 
ATOM     41  C   UNL     1       6.268  -3.498  22.143  0.00  0.00    +0.000 A 
ATOM     42  C   UNL     1       7.051  -2.965  23.173  0.00  0.00    +0.004 A 
ENDBRANCH  36  37
ENDBRANCH  22  36
ENDBRANCH   1  22
TORSDOF 14
ENDMDL
MODEL 2
REMARK VINA RESULT:      -6.9      2.145      3.130
REMARK  Name = 
REMARK  16 active torsions:
REMARK  status: ('A' for Active; 'I' for Inactive)
REMARK    1  A    between atoms: C_1  and  C_2
REMARK    2  A    between atoms: C_2  and  C_3
REMARK    3  A    between atoms: C_2  and  C_4
REMARK    4  A    between atoms: C_4  and  N_5
REMARK    5  A    between atoms: N_5  and  C_6
REMARK    6  A    between atoms: N_5  and  S_34
REMARK    7  A    between atoms: C_6  and  C_7
REMARK    8  A    between atoms: C_7  and  C_9
REMARK    9  A    between atoms: C_7  and  O_33
REMARK   10  A    between atoms: C_9  and  C_11
REMARK   11  A    between atoms: C_9  and  N_18
REMARK   12  A    between atoms: C_11  and  C_12
REMARK   13  A    between atoms: C_19  and  O_21
REMARK   14  A    between atoms: O_21  and  C_22
REMARK   15  A    between atoms: S_34  and  C_37
REMARK   16  A    between atoms: C_40  and  N_43
REMARK                            x       y       z     vdW  Elec       q    Type
REMARK                         _______ _______ _______ _____ _____    ______ ____
ROOT
ATOM      1  C   UNL     1      10.127  -1.601  23.302  0.00  0.00    +0.151 C 
ENDROOT
BRANCH   1   2
ATOM      2  O   UNL     1       9.842  -0.946  22.044  0.00  0.00    -0.389 OA
ATOM      3  H   UNL     1       9.849  -1.645  21.356  0.00  0.00    +0.210 HD
ENDBRANCH   1   2
BRANCH   1   4
ATOM      4  C   UNL     1       9.992  -0.495  24.465  0.00  0.00    +0.142 C 
BRANCH   4   5
ATOM      5  N   UNL     1       8.938   0.681  24.277  0.00  0.00    -0.174 NA
BRANCH   5   6
ATOM      6  S   UNL     1       7.388   0.487  25.111  0.00  0.00    +0.061 S 
ATOM      7  O   UNL     1       7.550   1.002  26.448  0.00  0.00    -0.153 OA
ATOM      8  O   UNL     1       6.907  -0.850  24.880  0.00  0.00    -0.153 OA
BRANCH   6   9
ATOM      9  C   UNL     1       6.309   1.600  24.195  0.00  0.00    +0.106 A 
ATOM     10  C   UNL     1       5.162   2.163  24.766  0.00  0.00    +0.030 A 
ATOM     11  C   UNL     1       4.354   3.025  23.999  0.00  0.00    +0.024 A 
ATOM     12  C   UNL     1       4.699   3.354  22.683  0.00  0.00    +0.025 A 
ATOM     13  C   UNL     1       5.804   2.721  22.107  0.00  0.00    +0.024 A 
ATOM     14  C   UNL     1       6.616   1.860  22.857  0.00  0.00    +0.030 A 
BRANCH  12  15
ATOM     15  N   UNL     1       3.832   4.109  21.885  0.00  0.00    -0.358 N 
ATOM     16  H   UNL     1       2.954   3.650  21.661  0.00  0.00    +0.142 HD
ATOM     17  H   UNL     1       3.694   5.064  22.204  0.00  0.00    +0.142 HD
ENDBRANCH  12  15
ENDBRANCH   6   9
ENDBRANCH   5   6
BRANCH   5  18
ATOM     18  C   UNL     1       9.477   2.063  24.700  0.00  0.00    +0.112 C 
BRANCH  18  20
ATOM     19  C   UNL     1      10.165   2.368  22.238  0.00  0.00    +0.008 C 
ATOM     20  C   UNL     1      10.123   2.972  23.643  0.00  0.00    -0.001 C 
ATOM     21  C   UNL     1       9.309   4.290  23.595  0.00  0.00    +0.008 C 
ENDBRANCH  18  20
ENDBRANCH   5  18
ENDBRANCH   4   5
ENDBRANCH   1   4
BRANCH   1  22
ATOM     22  C   UNL     1       9.123  -2.881  23.294  0.00  0.00    +0.110 C 
BRANCH  22  23
ATOM     23  N   UNL     1       8.679  -3.272  24.699  0.00  0.00    -0.275 N 
ATOM     24  H   UNL     1       8.222  -2.536  25.226  0.00  0.00    +0.152 HD
ATOM     25  C   UNL     1       9.028  -4.393  25.412  0.00  0.00    +0.401 C 
ATOM     26  O   UNL     1       9.755  -5.286  25.006  0.00  0.00    -0.226 OA
BRANCH  25  27
ATOM     27  O   UNL     1       8.371  -4.438  26.633  0.00  0.00    -0.444 OA
BRANCH  27  28
ATOM     28  C   UNL     1       7.396  -5.487  26.748  0.00  0.00    +0.212 C 
ATOM     29  C   UNL     1       6.080  -5.168  26.050  0.00  0.00    +0.090 C 
ATOM     30  C   UNL     1       5.153  -4.067  26.565  0.00  0.00    +0.040 C 
ATOM     31  C   UNL     1       3.770  -4.662  26.328  0.00  0.00    +0.163 C 
ATOM     32  O   UNL     1       3.907  -6.085  26.337  0.00  0.00    -0.351 OA
ATOM     33  C   UNL     1       5.290  -6.400  26.437  0.00  0.00    +0.257 C 
ATOM     34  O   UNL     1       5.673  -6.711  27.794  0.00  0.00    -0.347 OA
ATOM     35  C   UNL     1       6.874  -5.951  28.107  0.00  0.00    +0.208 C 
ENDBRANCH  27  28
ENDBRANCH  25  27
ENDBRANCH  22  23
BRANCH  22  36
ATOM     36  C   UNL     1       7.916  -2.775  22.316  0.00  0.00    +0.060 C 
BRANCH  36  37
ATOM     37  C   UNL     1       6.815  -3.821  22.371  0.00  0.00    -0.046 A 
ATOM     38  C   UNL     1       5.493  -3.469  22.704  0.00  0.00    +0.004 A 
ATOM     39  C   UNL     1       4.497  -4.441  22.846  0.00  0.00    +0.000 A 
ATOM     40  C   UNL     1       4.808  -5.784  22.664  0.00  0.00    +0.000 A 
ATOM     41  C   UNL     1       6.115  -6.151  22.345  0.00  0.00    +0.000 A 
ATOM     42  C   UNL     1       7.111  -5.179  22.200  0.00  0.00    +0.004 A 
ENDBRANCH  36  37
ENDBRANCH  22  36
ENDBRANCH   1  22
TORSDOF 14
ENDMDL
MODEL 3
REMARK VINA RESULT:      -6.9      2.218      3.042
REMARK  Name = 
REMARK  16 active torsions:
REMARK  status: ('A' for Active; 'I' for Inactive)
REMARK    1  A    between atoms: C_1  and  C_2
REMARK    2  A    between atoms: C_2  and  C_3
REMARK    3  A    between atoms: C_2  and  C_4
REMARK    4  A    between atoms: C_4  and  N_5
REMARK    5  A    between atoms: N_5  and  C_6
REMARK    6  A    between atoms: N_5  and  S_34
REMARK    7  A    between atoms: C_6  and  C_7
REMARK    8  A    between atoms: C_7  and  C_9
REMARK    9  A    between atoms: C_7  and  O_33
REMARK   10  A    between atoms: C_9  and  C_11
REMARK   11  A    between atoms: C_9  and  N_18
REMARK   12  A    between atoms: C_11  and  C_12
REMARK   13  A    between atoms: C_19  and  O_21
REMARK   14  A    between atoms: O_21  and  C_22
REMARK   15  A    between atoms: S_34  and  C_37
REMARK   16  A    between atoms: C_40  and  N_43
REMARK                            x       y       z     vdW  Elec       q    Type
REMARK                         _______ _______ _______ _____ _____    ______ ____
ROOT
ATOM      1  C   UNL     1      10.134  -1.367  23.708  0.00  0.00    +0.151 C 
ENDROOT
BRANCH   1   2
ATOM      2  O   UNL     1      10.120  -0.880  22.346  0.00  0.00    -0.389 OA
ATOM      3  H   UNL     1      10.947  -1.199  21.926  0.00  0.00    +0.210 HD
ENDBRANCH   1   2
BRANCH   1   4
ATOM      4  C   UNL     1       9.615  -0.173  24.656  0.00  0.00    +0.142 C 
BRANCH   4   5
ATOM      5  N   UNL     1       8.573   0.871  24.060  0.00  0.00    -0.174 NA
BRANCH   5   6
ATOM      6  S   UNL     1       9.145   1.871  22.715  0.00  0.00    +0.061 S 
ATOM      7  O   UNL     1       8.577   1.331  21.505  0.00  0.00    -0.153 OA
ATOM      8  O   UNL     1      10.565   2.057  22.853  0.00  0.00    -0.153 OA
BRANCH   6   9
ATOM      9  C   UNL     1       8.370   3.461  23.052  0.00  0.00    +0.106 A 
ATOM     10  C   UNL     1       8.819   4.306  24.075  0.00  0.00    +0.030 A 
ATOM     11  C   UNL     1       8.170   5.537  24.294  0.00  0.00    +0.024 A 
ATOM     12  C   UNL     1       7.105   5.944  23.483  0.00  0.00    +0.025 A 
ATOM     13  C   UNL     1       6.624   5.053  22.519  0.00  0.00    +0.024 A 
ATOM     14  C   UNL     1       7.257   3.825  22.291  0.00  0.00    +0.030 A 
BRANCH  12  15
ATOM     15  N   UNL     1       6.385   7.107  23.781  0.00  0.00    -0.358 N 
ATOM     16  H   UNL     1       6.007   7.142  24.722  0.00  0.00    +0.142 HD
ATOM     17  H   UNL     1       6.858   7.969  23.526  0.00  0.00    +0.142 HD
ENDBRANCH  12  15
ENDBRANCH   6   9
ENDBRANCH   5   6
BRANCH   5  18
ATOM     18  C   UNL     1       7.260   0.220  23.577  0.00  0.00    +0.112 C 
BRANCH  18  20
ATOM     19  C   UNL     1       5.865  -0.783  25.493  0.00  0.00    +0.008 C 
ATOM     20  C   UNL     1       6.003   0.329  24.454  0.00  0.00    -0.001 C 
ATOM     21  C   UNL     1       6.058   1.694  25.187  0.00  0.00    +0.008 C 
ENDBRANCH  18  20
ENDBRANCH   5  18
ENDBRANCH   4   5
ENDBRANCH   1   4
BRANCH   1  22
ATOM     22  C   UNL     1       9.279  -2.749  23.620  0.00  0.00    +0.110 C 
BRANCH  22  23
ATOM     23  N   UNL     1       8.744  -3.181  24.980  0.00  0.00    -0.275 N 
ATOM     24  H   UNL     1       8.215  -2.474  25.479  0.00  0.00    +0.152 HD
ATOM     25  C   UNL     1       9.084  -4.298  25.705  0.00  0.00    +0.401 C 
ATOM     26  O   UNL     1       9.879  -5.153  25.346  0.00  0.00    -0.226 OA
BRANCH  25  27
ATOM     27  O   UNL     1       8.335  -4.390  26.869  0.00  0.00    -0.444 OA
BRANCH  27  28
ATOM     28  C   UNL     1       7.394  -5.475  26.889  0.00  0.00    +0.212 C 
ATOM     29  C   UNL     1       6.107  -5.171  26.130  0.00  0.00    +0.090 C 
ATOM     30  C   UNL     1       5.115  -4.124  26.633  0.00  0.00    +0.040 C 
ATOM     31  C   UNL     1       3.769  -4.754  26.297  0.00  0.00    +0.163 C 
ATOM     32  O   UNL     1       3.956  -6.171  26.259  0.00  0.00    -0.351 OA
ATOM     33  C   UNL     1       5.341  -6.444  26.424  0.00  0.00    +0.257 C 
ATOM     34  O   UNL     1       5.659  -6.795  27.788  0.00  0.00    -0.347 OA
ATOM     35  C   UNL     1       6.814  -6.009  28.197  0.00  0.00    +0.208 C 
ENDBRANCH  27  28
ENDBRANCH  25  27
ENDBRANCH  22  23
BRANCH  22  36
ATOM     36  C   UNL     1       8.171  -2.779  22.528  0.00  0.00    +0.060 C 
BRANCH  36  37
ATOM     37  C   UNL     1       7.041  -3.788  22.636  0.00  0.00    -0.046 A 
ATOM     38  C   UNL     1       7.267  -5.161  22.412  0.00  0.00    +0.004 A 
ATOM     39  C   UNL     1       6.212  -6.080  22.420  0.00  0.00    +0.000 A 
ATOM     40  C   UNL     1       4.912  -5.642  22.645  0.00  0.00    +0.000 A 
ATOM     41  C   UNL     1       4.669  -4.286  22.858  0.00  0.00    +0.000 A 
ATOM     42  C   UNL     1       5.724  -3.366  22.853  0.00  0.00    +0.004 A 
ENDBRANCH  36  37
ENDBRANCH  22  36
ENDBRANCH   1  22
TORSDOF 14
ENDMDL
MODEL 4
REMARK VINA RESULT:      -6.8      1.124      1.478
REMARK  Name = 
REMARK  16 active torsions:
REMARK  status: ('A' for Active; 'I' for Inactive)
REMARK    1  A    between atoms: C_1  and  C_2
REMARK    2  A    between atoms: C_2  and  C_3
REMARK    3  A    between atoms: C_2  and  C_4
REMARK    4  A    between atoms: C_4  and  N_5
REMARK    5  A    between atoms: N_5  and  C_6
REMARK    6  A    between atoms: N_5  and  S_34
REMARK    7  A    between atoms: C_6  and  C_7
REMARK    8  A    between atoms: C_7  and  C_9
REMARK    9  A    between atoms: C_7  and  O_33
REMARK   10  A    between atoms: C_9  and  C_11
REMARK   11  A    between atoms: C_9  and  N_18
REMARK   12  A    between atoms: C_11  and  C_12
REMARK   13  A    between atoms: C_19  and  O_21
REMARK   14  A    between atoms: O_21  and  C_22
REMARK   15  A    between atoms: S_34  and  C_37
REMARK   16  A    between atoms: C_40  and  N_43
REMARK                            x       y       z     vdW  Elec       q    Type
REMARK                         _______ _______ _______ _____ _____    ______ ____
ROOT
ATOM      1  C   UNL     1       8.268  -1.568  25.860  0.00  0.00    +0.151 C 
ENDROOT
BRANCH   1   2
ATOM      2  O   UNL     1       8.510  -1.103  27.208  0.00  0.00    -0.389 OA
ATOM      3  H   UNL     1       8.913  -0.212  27.130  0.00  0.00    +0.210 HD
ENDBRANCH   1   2
BRANCH   1   4
ATOM      4  C   UNL     1       9.326  -0.828  24.896  0.00  0.00    +0.142 C 
BRANCH   4   5
ATOM      5  N   UNL     1       8.924   0.573  24.261  0.00  0.00    -0.174 NA
BRANCH   5   6
ATOM      6  S   UNL     1       7.401   1.282  24.822  0.00  0.00    +0.061 S 
ATOM      7  O   UNL     1       7.559   1.591  26.221  0.00  0.00    -0.153 OA
ATOM      8  O   UNL     1       6.315   0.459  24.358  0.00  0.00    -0.153 OA
BRANCH   6   9
ATOM      9  C   UNL     1       7.324   2.825  23.898  0.00  0.00    +0.106 A 
ATOM     10  C   UNL     1       7.596   4.063  24.493  0.00  0.00    +0.030 A 
ATOM     11  C   UNL     1       7.516   5.238  23.721  0.00  0.00    +0.024 A 
ATOM     12  C   UNL     1       7.203   5.184  22.357  0.00  0.00    +0.025 A 
ATOM     13  C   UNL     1       6.861   3.948  21.802  0.00  0.00    +0.024 A 
ATOM     14  C   UNL     1       6.934   2.771  22.558  0.00  0.00    +0.030 A 
BRANCH  12  15
ATOM     15  N   UNL     1       7.003   6.359  21.623  0.00  0.00    -0.358 N 
ATOM     16  H   UNL     1       6.601   6.221  20.702  0.00  0.00    +0.142 HD
ATOM     17  H   UNL     1       6.535   7.100  22.138  0.00  0.00    +0.142 HD
ENDBRANCH  12  15
ENDBRANCH   6   9
ENDBRANCH   5   6
BRANCH   5  18
ATOM     18  C   UNL     1       9.997   1.665  24.454  0.00  0.00    +0.112 C 
BRANCH  18  20
ATOM     19  C   UNL     1      10.206   1.802  21.892  0.00  0.00    +0.008 C 
ATOM     20  C   UNL     1      10.841   2.108  23.249  0.00  0.00    -0.001 C 
ATOM     21  C   UNL     1      11.059   3.638  23.365  0.00  0.00    +0.008 C 
ENDBRANCH  18  20
ENDBRANCH   5  18
ENDBRANCH   4   5
ENDBRANCH   1   4
BRANCH   1  22
ATOM     22  C   UNL     1       8.316  -3.187  26.008  0.00  0.00    +0.110 C 
BRANCH  22  23
ATOM     23  N   UNL     1       6.992  -3.759  26.499  0.00  0.00    -0.275 N 
ATOM     24  H   UNL     1       6.203  -3.125  26.447  0.00  0.00    +0.152 HD
ATOM     25  C   UNL     1       6.785  -4.915  27.214  0.00  0.00    +0.401 C 
ATOM     26  O   UNL     1       7.660  -5.695  27.556  0.00  0.00    -0.226 OA
BRANCH  25  27
ATOM     27  O   UNL     1       5.433  -5.143  27.422  0.00  0.00    -0.444 OA
BRANCH  27  28
ATOM     28  C   UNL     1       4.862  -6.158  26.581  0.00  0.00    +0.212 C 
ATOM     29  C   UNL     1       4.702  -5.719  25.130  0.00  0.00    +0.090 C 
ATOM     30  C   UNL     1       3.699  -4.636  24.732  0.00  0.00    +0.040 C 
ATOM     31  C   UNL     1       3.170  -5.149  23.398  0.00  0.00    +0.163 C 
ATOM     32  O   UNL     1       3.321  -6.571  23.394  0.00  0.00    -0.351 OA
ATOM     33  C   UNL     1       4.016  -6.950  24.574  0.00  0.00    +0.257 C 
ATOM     34  O   UNL     1       3.114  -7.405  25.606  0.00  0.00    -0.347 OA
ATOM     35  C   UNL     1       3.469  -6.728  26.844  0.00  0.00    +0.208 C 
ENDBRANCH  27  28
ENDBRANCH  25  27
ENDBRANCH  22  23
BRANCH  22  36
ATOM     36  C   UNL     1       8.849  -3.954  24.762  0.00  0.00    +0.060 C 
BRANCH  36  37
ATOM     37  C   UNL     1       7.886  -4.339  23.652  0.00  0.00    -0.046 A 
ATOM     38  C   UNL     1       7.787  -5.670  23.202  0.00  0.00    +0.004 A 
ATOM     39  C   UNL     1       6.970  -6.012  22.119  0.00  0.00    +0.000 A 
ATOM     40  C   UNL     1       6.242  -5.026  21.462  0.00  0.00    +0.000 A 
ATOM     41  C   UNL     1       6.336  -3.701  21.887  0.00  0.00    +0.000 A 
ATOM     42  C   UNL     1       7.151  -3.360  22.972  0.00  0.00    +0.004 A 
ENDBRANCH  36  37
ENDBRANCH  22  36
ENDBRANCH   1  22
TORSDOF 14
ENDMDL
MODEL 5
REMARK VINA RESULT:      -6.8      2.097      3.109
REMARK  Name = 
REMARK  16 active torsions:
REMARK  status: ('A' for Active; 'I' for Inactive)
REMARK    1  A    between atoms: C_1  and  C_2
REMARK    2  A    between atoms: C_2  and  C_3
REMARK    3  A    between atoms: C_2  and  C_4
REMARK    4  A    between atoms: C_4  and  N_5
REMARK    5  A    between atoms: N_5  and  C_6
REMARK    6  A    between atoms: N_5  and  S_34
REMARK    7  A    between atoms: C_6  and  C_7
REMARK    8  A    between atoms: C_7  and  C_9
REMARK    9  A    between atoms: C_7  and  O_33
REMARK   10  A    between atoms: C_9  and  C_11
REMARK   11  A    between atoms: C_9  and  N_18
REMARK   12  A    between atoms: C_11  and  C_12
REMARK   13  A    between atoms: C_19  and  O_21
REMARK   14  A    between atoms: O_21  and  C_22
REMARK   15  A    between atoms: S_34  and  C_37
REMARK   16  A    between atoms: C_40  and  N_43
REMARK                            x       y       z     vdW  Elec       q    Type
REMARK                         _______ _______ _______ _____ _____    ______ ____
ROOT
ATOM      1  C   UNL     1       9.318  -0.770  24.536  0.00  0.00    +0.151 C 
ENDROOT
BRANCH   1   2
ATOM      2  O   UNL     1      10.269  -0.477  23.487  0.00  0.00    -0.389 OA
ATOM      3  H   UNL     1      10.026  -1.041  22.722  0.00  0.00    +0.210 HD
ENDBRANCH   1   2
BRANCH   1   4
ATOM      4  C   UNL     1       8.010   0.134  24.270  0.00  0.00    +0.142 C 
BRANCH   4   5
ATOM      5  N   UNL     1       8.130   1.711  24.436  0.00  0.00    -0.174 NA
BRANCH   5   6
ATOM      6  S   UNL     1       8.281   2.648  22.941  0.00  0.00    +0.061 S 
ATOM      7  O   UNL     1       7.055   3.386  22.770  0.00  0.00    -0.153 OA
ATOM      8  O   UNL     1       8.782   1.783  21.906  0.00  0.00    -0.153 OA
BRANCH   6   9
ATOM      9  C   UNL     1       9.598   3.810  23.340  0.00  0.00    +0.106 A 
ATOM     10  C   UNL     1       9.334   5.104  23.805  0.00  0.00    +0.030 A 
ATOM     11  C   UNL     1      10.406   5.970  24.096  0.00  0.00    +0.024 A 
ATOM     12  C   UNL     1      11.733   5.545  23.961  0.00  0.00    +0.025 A 
ATOM     13  C   UNL     1      11.974   4.277  23.424  0.00  0.00    +0.024 A 
ATOM     14  C   UNL     1      10.918   3.405  23.127  0.00  0.00    +0.030 A 
BRANCH  12  15
ATOM     15  N   UNL     1      12.792   6.444  24.132  0.00  0.00    -0.358 N 
ATOM     16  H   UNL     1      12.570   7.258  24.696  0.00  0.00    +0.142 HD
ATOM     17  H   UNL     1      13.667   6.011  24.414  0.00  0.00    +0.142 HD
ENDBRANCH  12  15
ENDBRANCH   6   9
ENDBRANCH   5   6
BRANCH   5  18
ATOM     18  C   UNL     1       6.955   2.338  25.214  0.00  0.00    +0.112 C 
BRANCH  18  20
ATOM     19  C   UNL     1       6.479   4.697  26.125  0.00  0.00    +0.008 C 
ATOM     20  C   UNL     1       7.248   3.387  26.297  0.00  0.00    -0.001 C 
ATOM     21  C   UNL     1       6.874   2.765  27.667  0.00  0.00    +0.008 C 
ENDBRANCH  18  20
ENDBRANCH   5  18
ENDBRANCH   4   5
ENDBRANCH   1   4
BRANCH   1  22
ATOM     22  C   UNL     1       9.193  -2.391  24.487  0.00  0.00    +0.110 C 
BRANCH  22  23
ATOM     23  N   UNL     1       8.430  -2.946  25.684  0.00  0.00    -0.275 N 
ATOM     24  H   UNL     1       7.791  -2.295  26.126  0.00  0.00    +0.152 HD
ATOM     25  C   UNL     1       8.672  -4.110  26.373  0.00  0.00    +0.401 C 
ATOM     26  O   UNL     1       9.553  -4.913  26.107  0.00  0.00    -0.226 OA
BRANCH  25  27
ATOM     27  O   UNL     1       7.723  -4.315  27.363  0.00  0.00    -0.444 OA
BRANCH  27  28
ATOM     28  C   UNL     1       6.939  -5.509  27.202  0.00  0.00    +0.212 C 
ATOM     29  C   UNL     1       5.700  -5.305  26.338  0.00  0.00    +0.090 C 
ATOM     30  C   UNL     1       4.532  -4.441  26.814  0.00  0.00    +0.040 C 
ATOM     31  C   UNL     1       3.321  -5.205  26.291  0.00  0.00    +0.163 C 
ATOM     32  O   UNL     1       3.702  -6.578  26.165  0.00  0.00    -0.351 OA
ATOM     33  C   UNL     1       5.089  -6.686  26.452  0.00  0.00    +0.257 C 
ATOM     34  O   UNL     1       5.324  -7.115  27.811  0.00  0.00    -0.347 OA
ATOM     35  C   UNL     1       6.318  -6.228  28.397  0.00  0.00    +0.208 C 
ENDBRANCH  27  28
ENDBRANCH  25  27
ENDBRANCH  22  23
BRANCH  22  36
ATOM     36  C   UNL     1       8.668  -2.979  23.144  0.00  0.00    +0.060 C 
BRANCH  36  37
ATOM     37  C   UNL     1       7.345  -3.725  23.122  0.00  0.00    -0.046 A 
ATOM     38  C   UNL     1       7.299  -5.120  22.935  0.00  0.00    +0.004 A 
ATOM     39  C   UNL     1       6.079  -5.797  22.821  0.00  0.00    +0.000 A 
ATOM     40  C   UNL     1       4.885  -5.089  22.885  0.00  0.00    +0.000 A 
ATOM     41  C   UNL     1       4.912  -3.706  23.059  0.00  0.00    +0.000 A 
ATOM     42  C   UNL     1       6.131  -3.029  23.176  0.00  0.00    +0.004 A 
ENDBRANCH  36  37
ENDBRANCH  22  36
ENDBRANCH   1  22
TORSDOF 14
ENDMDL
MODEL 6
REMARK VINA RESULT:      -6.7      3.064      7.752
REMARK  Name = 
REMARK  16 active torsions:
REMARK  status: ('A' for Active; 'I' for Inactive)
REMARK    1  A    between atoms: C_1  and  C_2
REMARK    2  A    between atoms: C_2  and  C_3
REMARK    3  A    between atoms: C_2  and  C_4
REMARK    4  A    between atoms: C_4  and  N_5
REMARK    5  A    between atoms: N_5  and  C_6
REMARK    6  A    between atoms: N_5  and  S_34
REMARK    7  A    between atoms: C_6  and  C_7
REMARK    8  A    between atoms: C_7  and  C_9
REMARK    9  A    between atoms: C_7  and  O_33
REMARK   10  A    between atoms: C_9  and  C_11
REMARK   11  A    between atoms: C_9  and  N_18
REMARK   12  A    between atoms: C_11  and  C_12
REMARK   13  A    between atoms: C_19  and  O_21
REMARK   14  A    between atoms: O_21  and  C_22
REMARK   15  A    between atoms: S_34  and  C_37
REMARK   16  A    between atoms: C_40  and  N_43
REMARK                            x       y       z     vdW  Elec       q    Type
REMARK                         _______ _______ _______ _____ _____    ______ ____
ROOT
ATOM      1  C   UNL     1       8.506  -0.343  26.512  0.00  0.00    +0.151 C 
ENDROOT
BRANCH   1   2
ATOM      2  O   UNL     1       9.102  -0.484  27.822  0.00  0.00    -0.389 OA
ATOM      3  H   UNL     1       8.361  -0.575  28.459  0.00  0.00    +0.210 HD
ENDBRANCH   1   2
BRANCH   1   4
ATOM      4  C   UNL     1       8.313  -1.823  25.906  0.00  0.00    +0.142 C 
BRANCH   4   5
ATOM      5  N   UNL     1       7.847  -1.969  24.393  0.00  0.00    -0.174 NA
BRANCH   5   6
ATOM      6  S   UNL     1       9.134  -2.071  23.180  0.00  0.00    +0.061 S 
ATOM      7  O   UNL     1       8.526  -2.485  21.940  0.00  0.00    -0.153 OA
ATOM      8  O   UNL     1      10.241  -2.794  23.747  0.00  0.00    -0.153 OA
BRANCH   6   9
ATOM      9  C   UNL     1       9.654  -0.355  23.017  0.00  0.00    +0.106 A 
ATOM     10  C   UNL     1       9.372   0.404  21.875  0.00  0.00    +0.030 A 
ATOM     11  C   UNL     1       9.808   1.741  21.803  0.00  0.00    +0.024 A 
ATOM     12  C   UNL     1      10.490   2.335  22.872  0.00  0.00    +0.025 A 
ATOM     13  C   UNL     1      10.828   1.538  23.970  0.00  0.00    +0.024 A 
ATOM     14  C   UNL     1      10.403   0.206  24.054  0.00  0.00    +0.030 A 
BRANCH  12  15
ATOM     15  N   UNL     1      11.030   3.621  22.749  0.00  0.00    -0.358 N 
ATOM     16  H   UNL     1      11.506   3.962  23.577  0.00  0.00    +0.142 HD
ATOM     17  H   UNL     1      11.578   3.765  21.906  0.00  0.00    +0.142 HD
ENDBRANCH  12  15
ENDBRANCH   6   9
ENDBRANCH   5   6
BRANCH   5  18
ATOM     18  C   UNL     1       6.934  -3.188  24.146  0.00  0.00    +0.112 C 
BRANCH  18  20
ATOM     19  C   UNL     1       5.004  -3.976  22.636  0.00  0.00    +0.008 C 
ATOM     20  C   UNL     1       5.491  -2.960  23.670  0.00  0.00    -0.001 C 
ATOM     21  C   UNL     1       4.569  -3.032  24.914  0.00  0.00    +0.008 C 
ENDBRANCH  18  20
ENDBRANCH   5  18
ENDBRANCH   4   5
ENDBRANCH   1   4
BRANCH   1  22
ATOM     22  C   UNL     1       7.198   0.583  26.793  0.00  0.00    +0.110 C 
BRANCH  22  23
ATOM     23  N   UNL     1       7.539   2.068  26.817  0.00  0.00    -0.275 N 
ATOM     24  H   UNL     1       8.390   2.322  26.327  0.00  0.00    +0.152 HD
ATOM     25  C   UNL     1       6.986   3.048  27.606  0.00  0.00    +0.401 C 
ATOM     26  O   UNL     1       6.091   2.873  28.419  0.00  0.00    -0.226 OA
BRANCH  25  27
ATOM     27  O   UNL     1       7.505   4.296  27.297  0.00  0.00    -0.444 OA
BRANCH  27  28
ATOM     28  C   UNL     1       7.361   4.679  25.920  0.00  0.00    +0.212 C 
ATOM     29  C   UNL     1       8.688   4.982  25.235  0.00  0.00    +0.090 C 
ATOM     30  C   UNL     1       9.526   6.199  25.625  0.00  0.00    +0.040 C 
ATOM     31  C   UNL     1      10.081   6.663  24.283  0.00  0.00    +0.163 C 
ATOM     32  O   UNL     1       9.173   6.224  23.269  0.00  0.00    -0.351 OA
ATOM     33  C   UNL     1       8.173   5.421  23.881  0.00  0.00    +0.257 C 
ATOM     34  O   UNL     1       6.966   6.170  24.137  0.00  0.00    -0.347 OA
ATOM     35  C   UNL     1       6.560   5.914  25.511  0.00  0.00    +0.208 C 
ENDBRANCH  27  28
ENDBRANCH  25  27
ENDBRANCH  22  23
BRANCH  22  36
ATOM     36  C   UNL     1       5.966   0.288  25.887  0.00  0.00    +0.060 C 
BRANCH  36  37
ATOM     37  C   UNL     1       5.612   1.255  24.769  0.00  0.00    -0.046 A 
ATOM     38  C   UNL     1       6.391   1.329  23.598  0.00  0.00    +0.004 A 
ATOM     39  C   UNL     1       6.123   2.281  22.608  0.00  0.00    +0.000 A 
ATOM     40  C   UNL     1       5.075   3.179  22.775  0.00  0.00    +0.000 A 
ATOM     41  C   UNL     1       4.302   3.127  23.934  0.00  0.00    +0.000 A 
ATOM     42  C   UNL     1       4.567   2.173  24.923  0.00  0.00    +0.004 A 
ENDBRANCH  36  37
ENDBRANCH  22  36
ENDBRANCH   1  22
TORSDOF 14
ENDMDL
MODEL 7
REMARK VINA RESULT:      -6.6      2.305      4.428
REMARK  Name = 
REMARK  16 active torsions:
REMARK  status: ('A' for Active; 'I' for Inactive)
REMARK    1  A    between atoms: C_1  and  C_2
REMARK    2  A    between atoms: C_2  and  C_3
REMARK    3  A    between atoms: C_2  and  C_4
REMARK    4  A    between atoms: C_4  and  N_5
REMARK    5  A    between atoms: N_5  and  C_6
REMARK    6  A    between atoms: N_5  and  S_34
REMARK    7  A    between atoms: C_6  and  C_7
REMARK    8  A    between atoms: C_7  and  C_9
REMARK    9  A    between atoms: C_7  and  O_33
REMARK   10  A    between atoms: C_9  and  C_11
REMARK   11  A    between atoms: C_9  and  N_18
REMARK   12  A    between atoms: C_11  and  C_12
REMARK   13  A    between atoms: C_19  and  O_21
REMARK   14  A    between atoms: O_21  and  C_22
REMARK   15  A    between atoms: S_34  and  C_37
REMARK   16  A    between atoms: C_40  and  N_43
REMARK                            x       y       z     vdW  Elec       q    Type
REMARK                         _______ _______ _______ _____ _____    ______ ____
ROOT
ATOM      1  C   UNL     1       7.711  -1.030  25.087  0.00  0.00    +0.151 C 
ENDROOT
BRANCH   1   2
ATOM      2  O   UNL     1       6.590  -1.685  24.449  0.00  0.00    -0.389 OA
ATOM      3  H   UNL     1       6.586  -2.612  24.771  0.00  0.00    +0.210 HD
ENDBRANCH   1   2
BRANCH   1   4
ATOM      4  C   UNL     1       7.274  -0.686  26.599  0.00  0.00    +0.142 C 
BRANCH   4   5
ATOM      5  N   UNL     1       6.772   0.786  26.927  0.00  0.00    -0.174 NA
BRANCH   5   6
ATOM      6  S   UNL     1       5.279   1.304  26.128  0.00  0.00    +0.061 S 
ATOM      7  O   UNL     1       4.547   2.118  27.066  0.00  0.00    -0.153 OA
ATOM      8  O   UNL     1       4.673   0.158  25.503  0.00  0.00    -0.153 OA
BRANCH   6   9
ATOM      9  C   UNL     1       5.891   2.363  24.806  0.00  0.00    +0.106 A 
ATOM     10  C   UNL     1       5.879   1.962  23.465  0.00  0.00    +0.030 A 
ATOM     11  C   UNL     1       6.374   2.832  22.474  0.00  0.00    +0.024 A 
ATOM     12  C   UNL     1       6.847   4.107  22.807  0.00  0.00    +0.025 A 
ATOM     13  C   UNL     1       6.921   4.458  24.158  0.00  0.00    +0.024 A 
ATOM     14  C   UNL     1       6.434   3.602  25.154  0.00  0.00    +0.030 A 
BRANCH  12  15
ATOM     15  N   UNL     1       7.451   4.919  21.840  0.00  0.00    -0.358 N 
ATOM     16  H   UNL     1       8.169   5.541  22.197  0.00  0.00    +0.142 HD
ATOM     17  H   UNL     1       7.755   4.423  21.007  0.00  0.00    +0.142 HD
ENDBRANCH  12  15
ENDBRANCH   6   9
ENDBRANCH   5   6
BRANCH   5  18
ATOM     18  C   UNL     1       6.556   1.039  28.434  0.00  0.00    +0.112 C 
BRANCH  18  20
ATOM     19  C   UNL     1       6.750   3.382  29.483  0.00  0.00    +0.008 C 
ATOM     20  C   UNL     1       7.447   2.061  29.158  0.00  0.00    -0.001 C 
ATOM     21  C   UNL     1       7.928   1.411  30.481  0.00  0.00    +0.008 C 
ENDBRANCH  18  20
ENDBRANCH   5  18
ENDBRANCH   4   5
ENDBRANCH   1   4
BRANCH   1  22
ATOM     22  C   UNL     1       8.944  -2.059  24.824  0.00  0.00    +0.110 C 
BRANCH  22  23
ATOM     23  N   UNL     1       8.468  -3.401  24.281  0.00  0.00    -0.275 N 
ATOM     24  H   UNL     1       7.532  -3.400  23.891  0.00  0.00    +0.152 HD
ATOM     25  C   UNL     1       9.039  -4.637  24.468  0.00  0.00    +0.401 C 
ATOM     26  O   UNL     1      10.060  -4.850  25.102  0.00  0.00    -0.226 OA
BRANCH  25  27
ATOM     27  O   UNL     1       8.359  -5.617  23.761  0.00  0.00    -0.444 OA
BRANCH  27  28
ATOM     28  C   UNL     1       7.289  -5.126  22.937  0.00  0.00    +0.212 C 
ATOM     29  C   UNL     1       5.927  -5.188  23.617  0.00  0.00    +0.090 C 
ATOM     30  C   UNL     1       5.253  -6.523  23.930  0.00  0.00    +0.040 C 
ATOM     31  C   UNL     1       3.784  -6.225  23.655  0.00  0.00    +0.163 C 
ATOM     32  O   UNL     1       3.733  -5.157  22.705  0.00  0.00    -0.351 OA
ATOM     33  C   UNL     1       5.059  -4.698  22.477  0.00  0.00    +0.257 C 
ATOM     34  O   UNL     1       5.623  -5.265  21.275  0.00  0.00    -0.347 OA
ATOM     35  C   UNL     1       6.949  -5.772  21.595  0.00  0.00    +0.208 C 
ENDBRANCH  27  28
ENDBRANCH  25  27
ENDBRANCH  22  23
BRANCH  22  36
ATOM     36  C   UNL     1      10.124  -1.483  23.988  0.00  0.00    +0.060 C 
BRANCH  36  37
ATOM     37  C   UNL     1      10.094  -0.027  23.555  0.00  0.00    -0.046 A 
ATOM     38  C   UNL     1       9.808   0.330  22.223  0.00  0.00    +0.004 A 
ATOM     39  C   UNL     1       9.870   1.662  21.799  0.00  0.00    +0.000 A 
ATOM     40  C   UNL     1      10.227   2.660  22.700  0.00  0.00    +0.000 A 
ATOM     41  C   UNL     1      10.524   2.322  24.019  0.00  0.00    +0.000 A 
ATOM     42  C   UNL     1      10.459   0.990  24.444  0.00  0.00    +0.004 A 
ENDBRANCH  36  37
ENDBRANCH  22  36
ENDBRANCH   1  22
TORSDOF 14
ENDMDL
MODEL 8
REMARK VINA RESULT:      -6.5      2.241      3.266
REMARK  Name = 
REMARK  16 active torsions:
REMARK  status: ('A' for Active; 'I' for Inactive)
REMARK    1  A    between atoms: C_1  and  C_2
REMARK    2  A    between atoms: C_2  and  C_3
REMARK    3  A    between atoms: C_2  and  C_4
REMARK    4  A    between atoms: C_4  and  N_5
REMARK    5  A    between atoms: N_5  and  C_6
REMARK    6  A    between atoms: N_5  and  S_34
REMARK    7  A    between atoms: C_6  and  C_7
REMARK    8  A    between atoms: C_7  and  C_9
REMARK    9  A    between atoms: C_7  and  O_33
REMARK   10  A    between atoms: C_9  and  C_11
REMARK   11  A    between atoms: C_9  and  N_18
REMARK   12  A    between atoms: C_11  and  C_12
REMARK   13  A    between atoms: C_19  and  O_21
REMARK   14  A    between atoms: O_21  and  C_22
REMARK   15  A    between atoms: S_34  and  C_37
REMARK   16  A    between atoms: C_40  and  N_43
REMARK                            x       y       z     vdW  Elec       q    Type
REMARK                         _______ _______ _______ _____ _____    ______ ____
ROOT
ATOM      1  C   UNL     1      10.000  -1.126  24.169  0.00  0.00    +0.151 C 
ENDROOT
BRANCH   1   2
ATOM      2  O   UNL     1      10.318  -0.740  22.812  0.00  0.00    -0.389 OA
ATOM      3  H   UNL     1      11.219  -1.084  22.626  0.00  0.00    +0.210 HD
ENDBRANCH   1   2
BRANCH   1   4
ATOM      4  C   UNL     1       9.224   0.108  24.854  0.00  0.00    +0.142 C 
BRANCH   4   5
ATOM      5  N   UNL     1       7.986   0.746  24.086  0.00  0.00    -0.174 NA
BRANCH   5   6
ATOM      6  S   UNL     1       6.406   0.582  24.870  0.00  0.00    +0.061 S 
ATOM      7  O   UNL     1       6.155  -0.828  25.041  0.00  0.00    -0.153 OA
ATOM      8  O   UNL     1       5.465   1.429  24.187  0.00  0.00    -0.153 OA
BRANCH   6   9
ATOM      9  C   UNL     1       6.695   1.313  26.490  0.00  0.00    +0.106 A 
ATOM     10  C   UNL     1       6.611   2.693  26.709  0.00  0.00    +0.030 A 
ATOM     11  C   UNL     1       6.851   3.208  27.998  0.00  0.00    +0.024 A 
ATOM     12  C   UNL     1       7.139   2.357  29.072  0.00  0.00    +0.025 A 
ATOM     13  C   UNL     1       7.294   0.992  28.815  0.00  0.00    +0.024 A 
ATOM     14  C   UNL     1       7.061   0.465  27.538  0.00  0.00    +0.030 A 
BRANCH  12  15
ATOM     15  N   UNL     1       7.499   2.878  30.320  0.00  0.00    -0.358 N 
ATOM     16  H   UNL     1       6.946   2.535  31.098  0.00  0.00    +0.142 HD
ATOM     17  H   UNL     1       8.496   2.846  30.516  0.00  0.00    +0.142 HD
ENDBRANCH  12  15
ENDBRANCH   6   9
ENDBRANCH   5   6
BRANCH   5  18
ATOM     18  C   UNL     1       8.157   2.250  23.788  0.00  0.00    +0.112 C 
BRANCH  18  20
ATOM     19  C   UNL     1      10.580   2.968  23.296  0.00  0.00    +0.008 C 
ATOM     20  C   UNL     1       9.416   2.975  24.288  0.00  0.00    -0.001 C 
ATOM     21  C   UNL     1       9.024   4.445  24.587  0.00  0.00    +0.008 C 
ENDBRANCH  18  20
ENDBRANCH   5  18
ENDBRANCH   4   5
ENDBRANCH   1   4
BRANCH   1  22
ATOM     22  C   UNL     1       9.235  -2.550  23.984  0.00  0.00    +0.110 C 
BRANCH  22  23
ATOM     23  N   UNL     1       8.574  -3.018  25.275  0.00  0.00    -0.275 N 
ATOM     24  H   UNL     1       7.995  -2.326  25.738  0.00  0.00    +0.152 HD
ATOM     25  C   UNL     1       8.850  -4.152  26.001  0.00  0.00    +0.401 C 
ATOM     26  O   UNL     1       9.681  -4.994  25.699  0.00  0.00    -0.226 OA
BRANCH  25  27
ATOM     27  O   UNL     1       7.993  -4.277  27.084  0.00  0.00    -0.444 OA
BRANCH  27  28
ATOM     28  C   UNL     1       7.142  -5.434  27.043  0.00  0.00    +0.212 C 
ATOM     29  C   UNL     1       5.921  -5.253  26.148  0.00  0.00    +0.090 C 
ATOM     30  C   UNL     1       4.803  -4.278  26.515  0.00  0.00    +0.040 C 
ATOM     31  C   UNL     1       3.553  -5.024  26.063  0.00  0.00    +0.163 C 
ATOM     32  O   UNL     1       3.853  -6.421  26.090  0.00  0.00    -0.351 OA
ATOM     33  C   UNL     1       5.231  -6.577  26.403  0.00  0.00    +0.257 C 
ATOM     34  O   UNL     1       5.433  -6.870  27.802  0.00  0.00    -0.347 OA
ATOM     35  C   UNL     1       6.473  -5.983  28.301  0.00  0.00    +0.208 C 
ENDBRANCH  27  28
ENDBRANCH  25  27
ENDBRANCH  22  23
BRANCH  22  36
ATOM     36  C   UNL     1       8.260  -2.630  22.774  0.00  0.00    +0.060 C 
BRANCH  36  37
ATOM     37  C   UNL     1       7.164  -3.683  22.765  0.00  0.00    -0.046 A 
ATOM     38  C   UNL     1       7.467  -5.047  22.585  0.00  0.00    +0.004 A 
ATOM     39  C   UNL     1       6.454  -6.007  22.484  0.00  0.00    +0.000 A 
ATOM     40  C   UNL     1       5.121  -5.619  22.553  0.00  0.00    +0.000 A 
ATOM     41  C   UNL     1       4.804  -4.272  22.719  0.00  0.00    +0.000 A 
ATOM     42  C   UNL     1       5.816  -3.311  22.824  0.00  0.00    +0.004 A 
ENDBRANCH  36  37
ENDBRANCH  22  36
ENDBRANCH   1  22
TORSDOF 14
ENDMDL
MODEL 9
REMARK VINA RESULT:      -6.5      2.027      3.402
REMARK  Name = 
REMARK  16 active torsions:
REMARK  status: ('A' for Active; 'I' for Inactive)
REMARK    1  A    between atoms: C_1  and  C_2
REMARK    2  A    between atoms: C_2  and  C_3
REMARK    3  A    between atoms: C_2  and  C_4
REMARK    4  A    between atoms: C_4  and  N_5
REMARK    5  A    between atoms: N_5  and  C_6
REMARK    6  A    between atoms: N_5  and  S_34
REMARK    7  A    between atoms: C_6  and  C_7
REMARK    8  A    between atoms: C_7  and  C_9
REMARK    9  A    between atoms: C_7  and  O_33
REMARK   10  A    between atoms: C_9  and  C_11
REMARK   11  A    between atoms: C_9  and  N_18
REMARK   12  A    between atoms: C_11  and  C_12
REMARK   13  A    between atoms: C_19  and  O_21
REMARK   14  A    between atoms: O_21  and  C_22
REMARK   15  A    between atoms: S_34  and  C_37
REMARK   16  A    between atoms: C_40  and  N_43
REMARK                            x       y       z     vdW  Elec       q    Type
REMARK                         _______ _______ _______ _____ _____    ______ ____
ROOT
ATOM      1  C   UNL     1       7.706  -0.783  27.143  0.00  0.00    +0.151 C 
ENDROOT
BRANCH   1   2
ATOM      2  O   UNL     1       9.056  -0.328  27.391  0.00  0.00    -0.389 OA
ATOM      3  H   UNL     1       9.640  -1.110  27.287  0.00  0.00    +0.210 HD
ENDBRANCH   1   2
BRANCH   1   4
ATOM      4  C   UNL     1       6.940   0.387  26.345  0.00  0.00    +0.142 C 
BRANCH   4   5
ATOM      5  N   UNL     1       7.455   1.883  26.510  0.00  0.00    -0.174 NA
BRANCH   5   6
ATOM      6  S   UNL     1       7.635   2.821  25.019  0.00  0.00    +0.061 S 
ATOM      7  O   UNL     1       8.544   3.904  25.299  0.00  0.00    -0.153 OA
ATOM      8  O   UNL     1       6.327   3.067  24.472  0.00  0.00    -0.153 OA
BRANCH   6   9
ATOM      9  C   UNL     1       8.455   1.654  23.920  0.00  0.00    +0.106 A 
ATOM     10  C   UNL     1       7.831   1.148  22.773  0.00  0.00    +0.030 A 
ATOM     11  C   UNL     1       8.522   0.235  21.952  0.00  0.00    +0.024 A 
ATOM     12  C   UNL     1       9.836  -0.148  22.247  0.00  0.00    +0.025 A 
ATOM     13  C   UNL     1      10.411   0.309  23.436  0.00  0.00    +0.024 A 
ATOM     14  C   UNL     1       9.735   1.216  24.263  0.00  0.00    +0.030 A 
BRANCH  12  15
ATOM     15  N   UNL     1      10.473  -1.147  21.502  0.00  0.00    -0.358 N 
ATOM     16  H   UNL     1       9.972  -2.029  21.459  0.00  0.00    +0.142 HD
ATOM     17  H   UNL     1      10.794  -0.846  20.586  0.00  0.00    +0.142 HD
ENDBRANCH  12  15
ENDBRANCH   6   9
ENDBRANCH   5   6
BRANCH   5  18
ATOM     18  C   UNL     1       6.572   2.736  27.445  0.00  0.00    +0.112 C 
BRANCH  18  20
ATOM     19  C   UNL     1       6.990   2.848  29.982  0.00  0.00    +0.008 C 
ATOM     20  C   UNL     1       6.214   2.195  28.838  0.00  0.00    -0.001 C 
ATOM     21  C   UNL     1       4.699   2.437  29.061  0.00  0.00    +0.008 C 
ENDBRANCH  18  20
ENDBRANCH   5  18
ENDBRANCH   4   5
ENDBRANCH   1   4
BRANCH   1  22
ATOM     22  C   UNL     1       7.924  -2.229  26.429  0.00  0.00    +0.110 C 
BRANCH  22  23
ATOM     23  N   UNL     1       6.728  -3.153  26.627  0.00  0.00    -0.275 N 
ATOM     24  H   UNL     1       5.822  -2.703  26.567  0.00  0.00    +0.152 HD
ATOM     25  C   UNL     1       6.728  -4.442  27.105  0.00  0.00    +0.401 C 
ATOM     26  O   UNL     1       7.722  -5.068  27.436  0.00  0.00    -0.226 OA
BRANCH  25  27
ATOM     27  O   UNL     1       5.453  -4.988  27.079  0.00  0.00    -0.444 OA
BRANCH  27  28
ATOM     28  C   UNL     1       5.227  -5.925  26.014  0.00  0.00    +0.212 C 
ATOM     29  C   UNL     1       4.602  -5.292  24.776  0.00  0.00    +0.090 C 
ATOM     30  C   UNL     1       3.169  -4.760  24.792  0.00  0.00    +0.040 C 
ATOM     31  C   UNL     1       2.661  -5.137  23.405  0.00  0.00    +0.163 C 
ATOM     32  O   UNL     1       3.414  -6.269  22.965  0.00  0.00    -0.351 OA
ATOM     33  C   UNL     1       4.428  -6.533  23.926  0.00  0.00    +0.257 C 
ATOM     34  O   UNL     1       4.045  -7.589  24.833  0.00  0.00    -0.347 OA
ATOM     35  C   UNL     1       4.310  -7.134  26.190  0.00  0.00    +0.208 C 
ENDBRANCH  27  28
ENDBRANCH  25  27
ENDBRANCH  22  23
BRANCH  22  36
ATOM     36  C   UNL     1       8.372  -2.176  24.939  0.00  0.00    +0.060 C 
BRANCH  36  37
ATOM     37  C   UNL     1       7.528  -2.863  23.879  0.00  0.00    -0.046 A 
ATOM     38  C   UNL     1       7.930  -4.086  23.307  0.00  0.00    +0.004 A 
ATOM     39  C   UNL     1       7.203  -4.674  22.266  0.00  0.00    +0.000 A 
ATOM     40  C   UNL     1       6.065  -4.045  21.774  0.00  0.00    +0.000 A 
ATOM     41  C   UNL     1       5.659  -2.829  22.321  0.00  0.00    +0.000 A 
ATOM     42  C   UNL     1       6.384  -2.241  23.364  0.00  0.00    +0.004 A 
ENDBRANCH  36  37
ENDBRANCH  22  36
ENDBRANCH   1  22
TORSDOF 14
ENDMDL
