MODEL 1
REMARK VINA RESULT:      -6.4      0.000      0.000
REMARK  Name = 
REMARK  5 active torsions:
REMARK  status: ('A' for Active; 'I' for Inactive)
REMARK    1  A    between atoms: C_1  and  C_2
REMARK    2  A    between atoms: N_4  and  C_10
REMARK    3  A    between atoms: C_13  and  N_20
REMARK    4  A    between atoms: C_15  and  C_18
REMARK    5  A    between atoms: C_18  and  O_19
REMARK                            x       y       z     vdW  Elec       q    Type
REMARK                         _______ _______ _______ _____ _____    ______ ____
ROOT
ATOM      1  C   UNL     1       6.600  -2.876  24.777  0.00  0.00    +0.226 C 
ATOM      2  O   UNL     1       5.909  -3.235  23.569  0.00  0.00    -0.349 OA
ATOM      3  C   UNL     1       5.972  -4.666  23.406  0.00  0.00    +0.178 C 
ATOM      4  C   UNL     1       7.026  -5.199  24.382  0.00  0.00    +0.230 C 
ATOM      5  C   UNL     1       6.935  -4.180  25.502  0.00  0.00    +0.091 C 
ENDROOT
BRANCH   1  14
ATOM      6  C   UNL     1       9.424  -0.546  21.418  0.00  0.00    +0.051 C 
ATOM      7  C   UNL     1       9.104  -0.931  22.822  0.00  0.00    +0.030 A 
ATOM      8  C   UNL     1       9.898  -0.338  23.919  0.00  0.00    +0.257 A 
ATOM      9  O   UNL     1      10.809   0.453  23.702  0.00  0.00    -0.267 OA
ATOM     10  N   UNL     1       9.550  -0.720  25.179  0.00  0.00    -0.275 N 
ATOM     11  H   UNL     1      10.060  -0.295  25.939  0.00  0.00    +0.173 HD
ATOM     12  C   UNL     1       8.471  -1.492  25.524  0.00  0.00    +0.331 A 
ATOM     13  O   UNL     1       8.179  -1.660  26.709  0.00  0.00    -0.246 OA
ATOM     14  N   UNL     1       7.762  -2.041  24.462  0.00  0.00    -0.274 N 
ATOM     15  C   UNL     1       8.108  -1.758  23.158  0.00  0.00    +0.101 A 
ENDBRANCH   1  14
BRANCH   4  16
ATOM     16  N   UNL     1       8.381  -5.186  23.799  0.00  0.00    +0.125 NA
ATOM     17  N   UNL     1       9.318  -5.375  24.589  0.00  0.00    +0.219 NA
ATOM     18  N   UNL     1      10.243  -5.575  25.381  0.00  0.00    +0.104 NA
ATOM     19  H   UNL     1      10.436  -4.733  25.935  0.00  0.00    +0.288 HD
ENDBRANCH   4  16
BRANCH   3  20
ATOM     20  C   UNL     1       6.177  -5.018  21.933  0.00  0.00    +0.189 C 
BRANCH  20  21
ATOM     21  O   UNL     1       6.250  -6.424  21.739  0.00  0.00    -0.392 OA
ATOM     22  H   UNL     1       6.109  -6.836  22.610  0.00  0.00    +0.210 HD
ENDBRANCH  20  21
ENDBRANCH   3  20
TORSDOF 4
ENDMDL
MODEL 2
REMARK VINA RESULT:      -6.2      2.060      5.286
REMARK  Name = 
REMARK  5 active torsions:
REMARK  status: ('A' for Active; 'I' for Inactive)
REMARK    1  A    between atoms: C_1  and  C_2
REMARK    2  A    between atoms: N_4  and  C_10
REMARK    3  A    between atoms: C_13  and  N_20
REMARK    4  A    between atoms: C_15  and  C_18
REMARK    5  A    between atoms: C_18  and  O_19
REMARK                            x       y       z     vdW  Elec       q    Type
REMARK                         _______ _______ _______ _____ _____    ______ ____
ROOT
ATOM      1  C   UNL     1       9.046  -3.213  24.912  0.00  0.00    +0.226 C 
ATOM      2  O   UNL     1       9.888  -2.992  23.768  0.00  0.00    -0.349 OA
ATOM      3  C   UNL     1       9.863  -1.589  23.437  0.00  0.00    +0.178 C 
ATOM      4  C   UNL     1       8.701  -0.951  24.206  0.00  0.00    +0.230 C 
ATOM      5  C   UNL     1       8.638  -1.836  25.436  0.00  0.00    +0.091 C 
ENDROOT
BRANCH   1  14
ATOM      6  C   UNL     1       6.565  -5.809  21.478  0.00  0.00    +0.051 C 
ATOM      7  C   UNL     1       6.748  -5.321  22.874  0.00  0.00    +0.030 A 
ATOM      8  C   UNL     1       5.855  -5.842  23.931  0.00  0.00    +0.257 A 
ATOM      9  O   UNL     1       4.973  -6.657  23.687  0.00  0.00    -0.267 OA
ATOM     10  N   UNL     1       6.080  -5.367  25.187  0.00  0.00    -0.275 N 
ATOM     11  H   UNL     1       5.502  -5.742  25.924  0.00  0.00    +0.173 HD
ATOM     12  C   UNL     1       7.119  -4.561  25.576  0.00  0.00    +0.331 A 
ATOM     13  O   UNL     1       7.296  -4.305  26.768  0.00  0.00    -0.246 OA
ATOM     14  N   UNL     1       7.923  -4.081  24.550  0.00  0.00    -0.274 N 
ATOM     15  C   UNL     1       7.704  -4.460  23.242  0.00  0.00    +0.101 A 
ENDBRANCH   1  14
BRANCH   4  16
ATOM     16  N   UNL     1       7.430  -1.034  23.463  0.00  0.00    +0.125 NA
ATOM     17  N   UNL     1       6.989   0.034  23.012  0.00  0.00    +0.219 NA
ATOM     18  N   UNL     1       6.562   1.100  22.560  0.00  0.00    +0.104 NA
ATOM     19  H   UNL     1       6.132   1.664  23.300  0.00  0.00    +0.288 HD
ENDBRANCH   4  16
BRANCH   3  20
ATOM     20  C   UNL     1       9.849  -1.407  21.920  0.00  0.00    +0.189 C 
BRANCH  20  21
ATOM     21  O   UNL     1       9.481  -0.084  21.557  0.00  0.00    -0.392 OA
ATOM     22  H   UNL     1       8.529   0.004  21.739  0.00  0.00    +0.210 HD
ENDBRANCH  20  21
ENDBRANCH   3  20
TORSDOF 4
ENDMDL
MODEL 3
REMARK VINA RESULT:      -6.1      2.373      5.278
REMARK  Name = 
REMARK  5 active torsions:
REMARK  status: ('A' for Active; 'I' for Inactive)
REMARK    1  A    between atoms: C_1  and  C_2
REMARK    2  A    between atoms: N_4  and  C_10
REMARK    3  A    between atoms: C_13  and  N_20
REMARK    4  A    between atoms: C_15  and  C_18
REMARK    5  A    between atoms: C_18  and  O_19
REMARK                            x       y       z     vdW  Elec       q    Type
REMARK                         _______ _______ _______ _____ _____    ______ ____
ROOT
ATOM      1  C   UNL     1       8.690  -3.558  23.606  0.00  0.00    +0.226 C 
ATOM      2  O   UNL     1       7.585  -2.905  22.959  0.00  0.00    -0.349 OA
ATOM      3  C   UNL     1       7.861  -1.492  22.885  0.00  0.00    +0.178 C 
ATOM      4  C   UNL     1       9.043  -1.199  23.815  0.00  0.00    +0.230 C 
ATOM      5  C   UNL     1       9.796  -2.515  23.759  0.00  0.00    +0.091 C 
ENDROOT
BRANCH   1  14
ATOM      6  C   UNL     1       5.080  -4.459  26.899  0.00  0.00    +0.051 C 
ATOM      7  C   UNL     1       6.491  -4.580  26.434  0.00  0.00    +0.030 A 
ATOM      8  C   UNL     1       7.417  -5.446  27.194  0.00  0.00    +0.257 A 
ATOM      9  O   UNL     1       7.055  -6.060  28.191  0.00  0.00    -0.267 OA
ATOM     10  N   UNL     1       8.688  -5.524  26.712  0.00  0.00    -0.275 N 
ATOM     11  H   UNL     1       9.320  -6.141  27.200  0.00  0.00    +0.173 HD
ATOM     12  C   UNL     1       9.146  -4.983  25.539  0.00  0.00    +0.331 A 
ATOM     13  O   UNL     1      10.285  -5.234  25.140  0.00  0.00    -0.246 OA
ATOM     14  N   UNL     1       8.249  -4.164  24.865  0.00  0.00    -0.274 N 
ATOM     15  C   UNL     1       6.967  -3.978  25.338  0.00  0.00    +0.101 A 
ENDBRANCH   1  14
BRANCH   4  16
ATOM     16  N   UNL     1       8.608  -0.928  25.198  0.00  0.00    +0.125 NA
ATOM     17  N   UNL     1       8.522   0.266  25.520  0.00  0.00    +0.219 NA
ATOM     18  N   UNL     1       8.429   1.458  25.828  0.00  0.00    +0.104 NA
ATOM     19  H   UNL     1       9.356   1.861  26.004  0.00  0.00    +0.288 HD
ENDBRANCH   4  16
BRANCH   3  20
ATOM     20  C   UNL     1       6.584  -0.694  23.144  0.00  0.00    +0.189 C 
BRANCH  20  21
ATOM     21  O   UNL     1       6.847   0.701  23.214  0.00  0.00    -0.392 OA
ATOM     22  H   UNL     1       7.809   0.811  23.117  0.00  0.00    +0.210 HD
ENDBRANCH  20  21
ENDBRANCH   3  20
TORSDOF 4
ENDMDL
MODEL 4
REMARK VINA RESULT:      -6.0      2.211      5.542
REMARK  Name = 
REMARK  5 active torsions:
REMARK  status: ('A' for Active; 'I' for Inactive)
REMARK    1  A    between atoms: C_1  and  C_2
REMARK    2  A    between atoms: N_4  and  C_10
REMARK    3  A    between atoms: C_13  and  N_20
REMARK    4  A    between atoms: C_15  and  C_18
REMARK    5  A    between atoms: C_18  and  O_19
REMARK                            x       y       z     vdW  Elec       q    Type
REMARK                         _______ _______ _______ _____ _____    ______ ____
ROOT
ATOM      1  C   UNL     1      10.077  -1.985  23.433  0.00  0.00    +0.226 C 
ATOM      2  O   UNL     1      10.142  -1.319  22.160  0.00  0.00    -0.349 OA
ATOM      3  C   UNL     1       9.988   0.098  22.370  0.00  0.00    +0.178 C 
ATOM      4  C   UNL     1       9.481   0.304  23.801  0.00  0.00    +0.230 C 
ATOM      5  C   UNL     1      10.085  -0.897  24.505  0.00  0.00    +0.091 C 
ENDROOT
BRANCH   1  14
ATOM      6  C   UNL     1       5.561  -3.224  21.770  0.00  0.00    +0.051 C 
ATOM      7  C   UNL     1       6.738  -3.444  22.658  0.00  0.00    +0.030 A 
ATOM      8  C   UNL     1       6.779  -4.664  23.493  0.00  0.00    +0.257 A 
ATOM      9  O   UNL     1       5.873  -5.489  23.475  0.00  0.00    -0.267 OA
ATOM     10  N   UNL     1       7.885  -4.813  24.273  0.00  0.00    -0.275 N 
ATOM     11  H   UNL     1       7.942  -5.659  24.821  0.00  0.00    +0.173 HD
ATOM     12  C   UNL     1       9.000  -4.016  24.262  0.00  0.00    +0.331 A 
ATOM     13  O   UNL     1       9.995  -4.329  24.918  0.00  0.00    -0.246 OA
ATOM     14  N   UNL     1       8.913  -2.873  23.477  0.00  0.00    -0.274 N 
ATOM     15  C   UNL     1       7.789  -2.618  22.719  0.00  0.00    +0.101 A 
ENDBRANCH   1  14
BRANCH   4  16
ATOM     16  N   UNL     1       8.009   0.246  23.884  0.00  0.00    +0.125 NA
ATOM     17  N   UNL     1       7.420   1.336  23.923  0.00  0.00    +0.219 NA
ATOM     18  N   UNL     1       6.842   2.427  23.952  0.00  0.00    +0.104 NA
ATOM     19  H   UNL     1       6.911   2.850  24.883  0.00  0.00    +0.288 HD
ENDBRANCH   4  16
BRANCH   3  20
ATOM     20  C   UNL     1       9.134   0.705  21.258  0.00  0.00    +0.189 C 
BRANCH  20  21
ATOM     21  O   UNL     1       8.945   2.100  21.448  0.00  0.00    -0.392 OA
ATOM     22  H   UNL     1       7.990   2.240  21.578  0.00  0.00    +0.210 HD
ENDBRANCH  20  21
ENDBRANCH   3  20
TORSDOF 4
ENDMDL
MODEL 5
REMARK VINA RESULT:      -5.8      2.696      5.972
REMARK  Name = 
REMARK  5 active torsions:
REMARK  status: ('A' for Active; 'I' for Inactive)
REMARK    1  A    between atoms: C_1  and  C_2
REMARK    2  A    between atoms: N_4  and  C_10
REMARK    3  A    between atoms: C_13  and  N_20
REMARK    4  A    between atoms: C_15  and  C_18
REMARK    5  A    between atoms: C_18  and  O_19
REMARK                            x       y       z     vdW  Elec       q    Type
REMARK                         _______ _______ _______ _____ _____    ______ ____
ROOT
ATOM      1  C   UNL     1       8.971   0.446  21.584  0.00  0.00    +0.226 C 
ATOM      2  O   UNL     1       7.822   1.285  21.376  0.00  0.00    -0.349 OA
ATOM      3  C   UNL     1       8.086   2.583  21.943  0.00  0.00    +0.178 C 
ATOM      4  C   UNL     1       9.329   2.460  22.830  0.00  0.00    +0.230 C 
ATOM      5  C   UNL     1      10.081   1.342  22.132  0.00  0.00    +0.091 C 
ENDROOT
BRANCH   1  14
ATOM      6  C   UNL     1       5.584  -2.021  24.255  0.00  0.00    +0.051 C 
ATOM      7  C   UNL     1       6.968  -1.849  23.728  0.00  0.00    +0.030 A 
ATOM      8  C   UNL     1       7.959  -2.918  23.975  0.00  0.00    +0.257 A 
ATOM      9  O   UNL     1       7.673  -3.932  24.600  0.00  0.00    -0.267 OA
ATOM     10  N   UNL     1       9.202  -2.707  23.460  0.00  0.00    -0.275 N 
ATOM     11  H   UNL     1       9.878  -3.445  23.590  0.00  0.00    +0.173 HD
ATOM     12  C   UNL     1       9.576  -1.673  22.641  0.00  0.00    +0.331 A 
ATOM     13  O   UNL     1      10.696  -1.659  22.126  0.00  0.00    -0.246 OA
ATOM     14  N   UNL     1       8.620  -0.683  22.449  0.00  0.00    -0.274 N 
ATOM     15  C   UNL     1       7.363  -0.794  23.006  0.00  0.00    +0.101 A 
ENDBRANCH   1  14
BRANCH   4  16
ATOM     16  N   UNL     1       8.990   2.053  24.207  0.00  0.00    +0.125 NA
ATOM     17  N   UNL     1       9.797   1.297  24.769  0.00  0.00    +0.219 NA
ATOM     18  N   UNL     1      10.612   0.553  25.323  0.00  0.00    +0.104 NA
ATOM     19  H   UNL     1      10.519  -0.408  24.979  0.00  0.00    +0.288 HD
ENDBRANCH   4  16
BRANCH   3  20
ATOM     20  C   UNL     1       6.827   3.129  22.615  0.00  0.00    +0.189 C 
BRANCH  20  21
ATOM     21  O   UNL     1       7.106   4.301  23.369  0.00  0.00    -0.392 OA
ATOM     22  H   UNL     1       6.253   4.628  23.706  0.00  0.00    +0.210 HD
ENDBRANCH  20  21
ENDBRANCH   3  20
TORSDOF 4
ENDMDL
MODEL 6
REMARK VINA RESULT:      -5.7      2.161      5.460
REMARK  Name = 
REMARK  5 active torsions:
REMARK  status: ('A' for Active; 'I' for Inactive)
REMARK    1  A    between atoms: C_1  and  C_2
REMARK    2  A    between atoms: N_4  and  C_10
REMARK    3  A    between atoms: C_13  and  N_20
REMARK    4  A    between atoms: C_15  and  C_18
REMARK    5  A    between atoms: C_18  and  O_19
REMARK                            x       y       z     vdW  Elec       q    Type
REMARK                         _______ _______ _______ _____ _____    ______ ____
ROOT
ATOM      1  C   UNL     1       9.857  -0.476  24.787  0.00  0.00    +0.226 C 
ATOM      2  O   UNL     1      10.335  -0.340  23.438  0.00  0.00    -0.349 OA
ATOM      3  C   UNL     1       9.653   0.766  22.814  0.00  0.00    +0.178 C 
ATOM      4  C   UNL     1       8.462   1.139  23.702  0.00  0.00    +0.230 C 
ATOM      5  C   UNL     1       8.978   0.741  25.072  0.00  0.00    +0.091 C 
ENDROOT
BRANCH   1  14
ATOM      6  C   UNL     1       6.293  -3.208  26.912  0.00  0.00    +0.051 C 
ATOM      7  C   UNL     1       7.457  -3.056  25.994  0.00  0.00    +0.030 A 
ATOM      8  C   UNL     1       7.839  -4.199  25.138  0.00  0.00    +0.257 A 
ATOM      9  O   UNL     1       7.228  -5.260  25.168  0.00  0.00    -0.267 OA
ATOM     10  N   UNL     1       8.903  -3.994  24.313  0.00  0.00    -0.275 N 
ATOM     11  H   UNL     1       9.152  -4.754  23.697  0.00  0.00    +0.173 HD
ATOM     12  C   UNL     1       9.562  -2.808  24.118  0.00  0.00    +0.331 A 
ATOM     13  O   UNL     1      10.426  -2.712  23.244  0.00  0.00    -0.246 OA
ATOM     14  N   UNL     1       9.182  -1.765  24.954  0.00  0.00    -0.274 N 
ATOM     15  C   UNL     1       8.162  -1.926  25.868  0.00  0.00    +0.101 A 
ENDBRANCH   1  14
BRANCH   4  16
ATOM     16  N   UNL     1       7.256   0.356  23.374  0.00  0.00    +0.125 NA
ATOM     17  N   UNL     1       6.218   0.670  23.976  0.00  0.00    +0.219 NA
ATOM     18  N   UNL     1       5.188   0.997  24.573  0.00  0.00    +0.104 NA
ATOM     19  H   UNL     1       5.198   0.642  25.535  0.00  0.00    +0.288 HD
ENDBRANCH   4  16
BRANCH   3  20
ATOM     20  C   UNL     1       9.330   0.430  21.358  0.00  0.00    +0.189 C 
BRANCH  20  21
ATOM     21  O   UNL     1       9.635  -0.924  21.056  0.00  0.00    -0.392 OA
ATOM     22  H   UNL     1      10.276  -0.911  20.323  0.00  0.00    +0.210 HD
ENDBRANCH  20  21
ENDBRANCH   3  20
TORSDOF 4
ENDMDL
MODEL 7
REMARK VINA RESULT:      -5.6      2.614      3.781
REMARK  Name = 
REMARK  5 active torsions:
REMARK  status: ('A' for Active; 'I' for Inactive)
REMARK    1  A    between atoms: C_1  and  C_2
REMARK    2  A    between atoms: N_4  and  C_10
REMARK    3  A    between atoms: C_13  and  N_20
REMARK    4  A    between atoms: C_15  and  C_18
REMARK    5  A    between atoms: C_18  and  O_19
REMARK                            x       y       z     vdW  Elec       q    Type
REMARK                         _______ _______ _______ _____ _____    ______ ____
ROOT
ATOM      1  C   UNL     1       9.212  -4.127  25.030  0.00  0.00    +0.226 C 
ATOM      2  O   UNL     1       8.851  -4.613  26.334  0.00  0.00    -0.349 OA
ATOM      3  C   UNL     1       7.680  -5.443  26.212  0.00  0.00    +0.178 C 
ATOM      4  C   UNL     1       7.087  -5.210  24.819  0.00  0.00    +0.230 C 
ATOM      5  C   UNL     1       8.331  -4.864  24.022  0.00  0.00    +0.091 C 
ENDROOT
BRANCH   1  14
ATOM      6  C   UNL     1       7.690   0.118  27.115  0.00  0.00    +0.051 C 
ATOM      7  C   UNL     1       8.349  -0.640  26.013  0.00  0.00    +0.030 A 
ATOM      8  C   UNL     1       9.016   0.116  24.932  0.00  0.00    +0.257 A 
ATOM      9  O   UNL     1       9.035   1.341  24.919  0.00  0.00    -0.267 OA
ATOM     10  N   UNL     1       9.609  -0.633  23.962  0.00  0.00    -0.275 N 
ATOM     11  H   UNL     1      10.099  -0.129  23.237  0.00  0.00    +0.173 HD
ATOM     12  C   UNL     1       9.750  -1.996  23.961  0.00  0.00    +0.331 A 
ATOM     13  O   UNL     1      10.425  -2.552  23.093  0.00  0.00    -0.246 OA
ATOM     14  N   UNL     1       9.095  -2.668  24.986  0.00  0.00    -0.274 N 
ATOM     15  C   UNL     1       8.408  -1.975  25.961  0.00  0.00    +0.101 A 
ENDBRANCH   1  14
BRANCH   4  16
ATOM     16  N   UNL     1       6.146  -4.074  24.798  0.00  0.00    +0.125 NA
ATOM     17  N   UNL     1       5.519  -3.902  23.742  0.00  0.00    +0.219 NA
ATOM     18  N   UNL     1       4.893  -3.744  22.690  0.00  0.00    +0.104 NA
ATOM     19  H   UNL     1       5.486  -3.310  21.976  0.00  0.00    +0.288 HD
ENDBRANCH   4  16
BRANCH   3  20
ATOM     20  C   UNL     1       6.741  -5.205  27.394  0.00  0.00    +0.189 C 
BRANCH  20  21
ATOM     21  O   UNL     1       6.965  -6.145  28.435  0.00  0.00    -0.392 OA
ATOM     22  H   UNL     1       6.332  -6.872  28.299  0.00  0.00    +0.210 HD
ENDBRANCH  20  21
ENDBRANCH   3  20
TORSDOF 4
ENDMDL
MODEL 8
REMARK VINA RESULT:      -5.5      2.423      5.865
REMARK  Name = 
REMARK  5 active torsions:
REMARK  status: ('A' for Active; 'I' for Inactive)
REMARK    1  A    between atoms: C_1  and  C_2
REMARK    2  A    between atoms: N_4  and  C_10
REMARK    3  A    between atoms: C_13  and  N_20
REMARK    4  A    between atoms: C_15  and  C_18
REMARK    5  A    between atoms: C_18  and  O_19
REMARK                            x       y       z     vdW  Elec       q    Type
REMARK                         _______ _______ _______ _____ _____    ______ ____
ROOT
ATOM      1  C   UNL     1      10.538  -0.141  23.447  0.00  0.00    +0.226 C 
ATOM      2  O   UNL     1      10.171   0.740  22.373  0.00  0.00    -0.349 OA
ATOM      3  C   UNL     1       9.758   2.004  22.930  0.00  0.00    +0.178 C 
ATOM      4  C   UNL     1       9.547   1.802  24.434  0.00  0.00    +0.230 C 
ATOM      5  C   UNL     1      10.542   0.695  24.727  0.00  0.00    +0.091 C 
ENDROOT
BRANCH   1  14
ATOM      6  C   UNL     1       8.106  -3.612  26.040  0.00  0.00    +0.051 C 
ATOM      7  C   UNL     1       8.480  -2.957  24.755  0.00  0.00    +0.030 A 
ATOM      8  C   UNL     1       7.815  -3.402  23.512  0.00  0.00    +0.257 A 
ATOM      9  O   UNL     1       6.972  -4.292  23.514  0.00  0.00    -0.267 OA
ATOM     10  N   UNL     1       8.191  -2.758  22.373  0.00  0.00    -0.275 N 
ATOM     11  H   UNL     1       7.718  -3.027  21.523  0.00  0.00    +0.173 HD
ATOM     12  C   UNL     1       9.022  -1.671  22.292  0.00  0.00    +0.331 A 
ATOM     13  O   UNL     1       9.183  -1.088  21.218  0.00  0.00    -0.246 OA
ATOM     14  N   UNL     1       9.638  -1.296  23.480  0.00  0.00    -0.274 N 
ATOM     15  C   UNL     1       9.362  -1.955  24.659  0.00  0.00    +0.101 A 
ENDBRANCH   1  14
BRANCH   4  16
ATOM     16  N   UNL     1       8.180   1.345  24.748  0.00  0.00    +0.125 NA
ATOM     17  N   UNL     1       7.822   1.462  25.929  0.00  0.00    +0.219 NA
ATOM     18  N   UNL     1       7.470   1.592  27.105  0.00  0.00    +0.104 NA
ATOM     19  H   UNL     1       7.887   0.861  27.692  0.00  0.00    +0.288 HD
ENDBRANCH   4  16
BRANCH   3  20
ATOM     20  C   UNL     1       8.566   2.558  22.150  0.00  0.00    +0.189 C 
BRANCH  20  21
ATOM     21  O   UNL     1       7.660   1.527  21.781  0.00  0.00    -0.392 OA
ATOM     22  H   UNL     1       7.445   1.664  20.842  0.00  0.00    +0.210 HD
ENDBRANCH  20  21
ENDBRANCH   3  20
TORSDOF 4
ENDMDL
MODEL 9
REMARK VINA RESULT:      -5.5      3.029      3.940
REMARK  Name = 
REMARK  5 active torsions:
REMARK  status: ('A' for Active; 'I' for Inactive)
REMARK    1  A    between atoms: C_1  and  C_2
REMARK    2  A    between atoms: N_4  and  C_10
REMARK    3  A    between atoms: C_13  and  N_20
REMARK    4  A    between atoms: C_15  and  C_18
REMARK    5  A    between atoms: C_18  and  O_19
REMARK                            x       y       z     vdW  Elec       q    Type
REMARK                         _______ _______ _______ _____ _____    ______ ____
ROOT
ATOM      1  C   UNL     1       3.822  -4.125  25.365  0.00  0.00    +0.226 C 
ATOM      2  O   UNL     1       3.086  -5.238  24.829  0.00  0.00    -0.349 OA
ATOM      3  C   UNL     1       3.170  -6.339  25.756  0.00  0.00    +0.178 C 
ATOM      4  C   UNL     1       4.275  -6.013  26.767  0.00  0.00    +0.230 C 
ATOM      5  C   UNL     1       4.212  -4.497  26.795  0.00  0.00    +0.091 C 
ENDROOT
BRANCH   1  14
ATOM      6  C   UNL     1       7.034  -5.486  21.826  0.00  0.00    +0.051 C 
ATOM      7  C   UNL     1       6.487  -4.486  22.788  0.00  0.00    +0.030 A 
ATOM      8  C   UNL     1       7.012  -3.105  22.751  0.00  0.00    +0.257 A 
ATOM      9  O   UNL     1       7.882  -2.766  21.956  0.00  0.00    -0.267 OA
ATOM     10  N   UNL     1       6.465  -2.236  23.645  0.00  0.00    -0.275 N 
ATOM     11  H   UNL     1       6.789  -1.281  23.606  0.00  0.00    +0.173 HD
ATOM     12  C   UNL     1       5.404  -2.488  24.476  0.00  0.00    +0.331 A 
ATOM     13  O   UNL     1       4.909  -1.581  25.147  0.00  0.00    -0.246 OA
ATOM     14  N   UNL     1       4.953  -3.803  24.491  0.00  0.00    -0.274 N 
ATOM     15  C   UNL     1       5.514  -4.754  23.666  0.00  0.00    +0.101 A 
ENDBRANCH   1  14
BRANCH   4  16
ATOM     16  N   UNL     1       5.603  -6.452  26.299  0.00  0.00    +0.125 NA
ATOM     17  N   UNL     1       6.561  -6.175  27.036  0.00  0.00    +0.219 NA
ATOM     18  N   UNL     1       7.508  -5.904  27.782  0.00  0.00    +0.104 NA
ATOM     19  H   UNL     1       7.766  -4.915  27.696  0.00  0.00    +0.288 HD
ENDBRANCH   4  16
BRANCH   3  20
ATOM     20  C   UNL     1       3.319  -7.656  24.995  0.00  0.00    +0.189 C 
BRANCH  20  21
ATOM     21  O   UNL     1       4.256  -7.542  23.934  0.00  0.00    -0.392 OA
ATOM     22  H   UNL     1       4.662  -6.661  24.010  0.00  0.00    +0.210 HD
ENDBRANCH  20  21
ENDBRANCH   3  20
TORSDOF 4
ENDMDL
